(PID.TID 0000.0001) 
(PID.TID 0000.0001) // ======================================================
(PID.TID 0000.0001) //                      MITgcm UV
(PID.TID 0000.0001) //                      =========
(PID.TID 0000.0001) // ======================================================
(PID.TID 0000.0001) // execution environment starting up...
(PID.TID 0000.0001) // Run starting Wed Apr  1 14:19:48 1998
(PID.TID 0000.0001) // on melville.lcs.mit.edu
(PID.TID 0000.0001) // account cnh
(PID.TID 0000.0001) // MITgcm UV Release: $Name:  $
(PID.TID 0000.0001) 
(PID.TID 0000.0001) // =======================================================
(PID.TID 0000.0001) // Execution Environment parameter file "eedata"
(PID.TID 0000.0001) // =======================================================
(PID.TID 0000.0001) ># Example "eedata" file
(PID.TID 0000.0001) ># Lines beginning "#" are comments
(PID.TID 0000.0001) ># nTx - No. threads per process in X
(PID.TID 0000.0001) ># nTy - No. threads per process in Y
(PID.TID 0000.0001) > &EEPARMS
(PID.TID 0000.0001) > nTx=1,nTy=1
(PID.TID 0000.0001) > &
(PID.TID 0000.0001) ># Note: Some systems use & as the
(PID.TID 0000.0001) ># namelist terminator. Other systems
(PID.TID 0000.0001) ># use a / character (as shown here).
(PID.TID 0000.0001) 
(PID.TID 0000.0001) // =======================================================
(PID.TID 0000.0001) // Computational Grid Specification ( see files "SIZE.h" )
(PID.TID 0000.0001) //                                  ( and "eedata"       )
(PID.TID 0000.0001) // =======================================================
(PID.TID 0000.0001)      nPx =    1 ; /* No. processes in X */
(PID.TID 0000.0001)      nPy =    1 ; /* No. processes in Y */
(PID.TID 0000.0001)      nSx =    1 ; /* No. tiles in X per process */
(PID.TID 0000.0001)      nSy =    4 ; /* No. tiles in Y per process */
(PID.TID 0000.0001)      sNx =    1 ; /* Tile size in X */
(PID.TID 0000.0001)      sNy =   14 ; /* Tile size in Y */
(PID.TID 0000.0001)      OLx =    3 ; /* Tile overlap distance in X */
(PID.TID 0000.0001)      OLy =    3 ; /* Tile overlap distance in Y */
(PID.TID 0000.0001)      nTx =    1 ; /* No. threads in X per process */
(PID.TID 0000.0001)      nTy =    1 ; /* No. threads in Y per process */
(PID.TID 0000.0001)       Nr =   15 ; /* No. levels in the vertical   */
(PID.TID 0000.0001)       nX =    1 ; /* Total domain size in X ( = nPx*nSx*sNx ) */
(PID.TID 0000.0001)       nY =   56 ; /* Total domain size in Y ( = nPy*nSy*sNy ) */
(PID.TID 0000.0001)   nTiles =    4 ; /* Total no. tiles per process ( = nSx*nSy ) */
(PID.TID 0000.0001)   nProcs =    1 ; /* Total no. processes ( = nPx*nPy ) */
(PID.TID 0000.0001) nThreads =    1 ; /* Total no. threads per process ( = nTx*nTy ) */
(PID.TID 0000.0001) usingMPI =    F ; /* Flag used to control whether MPI is in use */
(PID.TID 0000.0001)                   /*  note: To execute a program with MPI calls */
(PID.TID 0000.0001)                   /*  it must be launched appropriately e.g     */
(PID.TID 0000.0001)                   /*  "mpirun -np 64 ......"                    */
(PID.TID 0000.0001) 
(PID.TID 0000.0001) // ======================================================
(PID.TID 0000.0001) // Mapping of tiles to threads
(PID.TID 0000.0001) // ======================================================
(PID.TID 0000.0001) // -o- Thread   1, tiles (   1:   1,   1:   4)
(PID.TID 0000.0001) 
(PID.TID 0000.0001) // ======================================================
(PID.TID 0000.0001) // Tile <-> Tile connectvity table
(PID.TID 0000.0001) // ======================================================
(PID.TID 0000.0001) // Tile number: 000001 (process no. = 000001)
(PID.TID 0000.0001) //        WEST: Tile = 000001, Process = 000001, Comm = put
(PID.TID 0000.0001) //                bi = 000001, bj = 000001
(PID.TID 0000.0001) //        EAST: Tile = 000001, Process = 000001, Comm = put
(PID.TID 0000.0001) //                bi = 000001, bj = 000001
(PID.TID 0000.0001) //       SOUTH: Tile = 000004, Process = 000001, Comm = put
(PID.TID 0000.0001) //                bi = 000001, bj = 000004
(PID.TID 0000.0001) //       NORTH: Tile = 000002, Process = 000001, Comm = put
(PID.TID 0000.0001) //                bi = 000001, bj = 000002
(PID.TID 0000.0001) // Tile number: 000002 (process no. = 000001)
(PID.TID 0000.0001) //        WEST: Tile = 000002, Process = 000001, Comm = put
(PID.TID 0000.0001) //                bi = 000001, bj = 000002
(PID.TID 0000.0001) //        EAST: Tile = 000002, Process = 000001, Comm = put
(PID.TID 0000.0001) //                bi = 000001, bj = 000002
(PID.TID 0000.0001) //       SOUTH: Tile = 000001, Process = 000001, Comm = put
(PID.TID 0000.0001) //                bi = 000001, bj = 000001
(PID.TID 0000.0001) //       NORTH: Tile = 000003, Process = 000001, Comm = put
(PID.TID 0000.0001) //                bi = 000001, bj = 000003
(PID.TID 0000.0001) // Tile number: 000003 (process no. = 000001)
(PID.TID 0000.0001) //        WEST: Tile = 000003, Process = 000001, Comm = put
(PID.TID 0000.0001) //                bi = 000001, bj = 000003
(PID.TID 0000.0001) //        EAST: Tile = 000003, Process = 000001, Comm = put
(PID.TID 0000.0001) //                bi = 000001, bj = 000003
(PID.TID 0000.0001) //       SOUTH: Tile = 000002, Process = 000001, Comm = put
(PID.TID 0000.0001) //                bi = 000001, bj = 000002
(PID.TID 0000.0001) //       NORTH: Tile = 000004, Process = 000001, Comm = put
(PID.TID 0000.0001) //                bi = 000001, bj = 000004
(PID.TID 0000.0001) // Tile number: 000004 (process no. = 000001)
(PID.TID 0000.0001) //        WEST: Tile = 000004, Process = 000001, Comm = put
(PID.TID 0000.0001) //                bi = 000001, bj = 000004
(PID.TID 0000.0001) //        EAST: Tile = 000004, Process = 000001, Comm = put
(PID.TID 0000.0001) //                bi = 000001, bj = 000004
(PID.TID 0000.0001) //       SOUTH: Tile = 000003, Process = 000001, Comm = put
(PID.TID 0000.0001) //                bi = 000001, bj = 000003
(PID.TID 0000.0001) //       NORTH: Tile = 000001, Process = 000001, Comm = put
(PID.TID 0000.0001) //                bi = 000001, bj = 000001
(PID.TID 0000.0001) 
(PID.TID 0000.0001) // =======================================================
(PID.TID 0000.0001) // Model parameter file "data"
(PID.TID 0000.0001) // =======================================================
(PID.TID 0000.0001) ># ====================
(PID.TID 0000.0001) ># | Model parameters |
(PID.TID 0000.0001) ># ====================
(PID.TID 0000.0001) >#
(PID.TID 0000.0001) ># Continuous equation parameters
(PID.TID 0000.0001) > &PARM01
(PID.TID 0000.0001) > tRef= 18.8, 16.3, 13.1, 10.4, 8.1, 6.0, 4.5,
(PID.TID 0000.0001) >      3.4, 2.7, 2.2, 1.8, 1.5, 1.2, 1.0, 0.9,
(PID.TID 0000.0001) > sRef= 15*34.7,
(PID.TID 0000.0001) > cosPower=1.,
(PID.TID 0000.0001) > viscAz=1.E-3,
(PID.TID 0000.0001) > viscAh=12.E5,
(PID.TID 0000.0001) > no_slip_sides=.FALSE.,
(PID.TID 0000.0001) > no_slip_bottom=.TRUE.,
(PID.TID 0000.0001) > bottomDragLinear=1.E-3,
(PID.TID 0000.0001) >#diffK4T=2.E12,
(PID.TID 0000.0001) > diffKhT=0.E3,
(PID.TID 0000.0001) > diffKzT=1.E-5,
(PID.TID 0000.0001) > ivdc_kappa=100.,
(PID.TID 0000.0001) > implicitDiffusion=.TRUE.,
(PID.TID 0000.0001) > eosType='LINEAR',
(PID.TID 0000.0001) > tAlpha=2.E-4,
(PID.TID 0000.0001) > sBeta =0.E-4,
(PID.TID 0000.0001) > saltStepping=.FALSE.,
(PID.TID 0000.0001) > gravity=9.81,
(PID.TID 0000.0001) > rhonil=1035.,
(PID.TID 0000.0001) > implicitFreeSurface=.TRUE.,
(PID.TID 0000.0001) > exactConserv=.TRUE.,
(PID.TID 0000.0001) > staggerTimeStep=.TRUE.,
(PID.TID 0000.0001) > readBinaryPrec=64,
(PID.TID 0000.0001) > tempAdvScheme=77,
(PID.TID 0000.0001) > &
(PID.TID 0000.0001) >
(PID.TID 0000.0001) ># Elliptic solver parameters
(PID.TID 0000.0001) > &PARM02
(PID.TID 0000.0001) > cg2dMaxIters=1000,
(PID.TID 0000.0001) >#cg2dTargetResidual=1.E-13,
(PID.TID 0000.0001) > cg2dTargetResWunit=1.E-17,
(PID.TID 0000.0001) > &
(PID.TID 0000.0001) >
(PID.TID 0000.0001) ># Time stepping parameters
(PID.TID 0000.0001) > &PARM03
(PID.TID 0000.0001) > niter0=36000,
(PID.TID 0000.0001) > nTimeSteps=20,
(PID.TID 0000.0001) >#endTime=3110400000.,
(PID.TID 0000.0001) > deltaTmom=1200.0,
(PID.TID 0000.0001) > deltaTfreesurf=3600.0,
(PID.TID 0000.0001) > deltaTtracer=86400.0,
(PID.TID 0000.0001) > deltaTClock =86400.0,
(PID.TID 0000.0001) > abEps=0.1,
(PID.TID 0000.0001) > tauCD=321428.,
(PID.TID 0000.0001) > tauThetaClimRelax=2592000.0,
(PID.TID 0000.0001) > chkptFreq=0.0,
(PID.TID 0000.0001) > pChkptFreq=3110400000.0,
(PID.TID 0000.0001) > taveFreq=1555200000.0,
(PID.TID 0000.0001) > dumpFreq=1555200000.0,
(PID.TID 0000.0001) > diagFreq=1555200000.0,
(PID.TID 0000.0001) >#monitorFreq=31104000.0,
(PID.TID 0000.0001) > monitorFreq=1.0,
(PID.TID 0000.0001) > &
(PID.TID 0000.0001) >
(PID.TID 0000.0001) ># Gridding parameters
(PID.TID 0000.0001) > &PARM04
(PID.TID 0000.0001) > usingCartesianGrid=.FALSE.,
(PID.TID 0000.0001) > usingSphericalPolarGrid=.TRUE.,
(PID.TID 0000.0001) > delRc= 20.,  60.,  85., 120., 165., 215., 265., 315.,
(PID.TID 0000.0001) >       365., 415., 465., 515., 565., 615., 665., 350.,
(PID.TID 0000.0001) > phiMin=-84.,
(PID.TID 0000.0001) > delY=56*3,
(PID.TID 0000.0001) > delX=1*3,
(PID.TID 0000.0001) > &
(PID.TID 0000.0001) >
(PID.TID 0000.0001) ># Input datasets
(PID.TID 0000.0001) > &PARM05
(PID.TID 0000.0001) > bathyFile='topo_sl.bin',
(PID.TID 0000.0001) > zonalWindFile='taux_sl.bin',
(PID.TID 0000.0001) > thetaClimFile='sst_sl.bin',
(PID.TID 0000.0001) > &
(PID.TID 0000.0001) 
(PID.TID 0000.0001) S/R INI_PARMS ; read PARM01 : OK
(PID.TID 0000.0001) S/R INI_PARMS ; read PARM02 : OK
(PID.TID 0000.0001) S/R INI_PARMS ; read PARM03 : OK
(PID.TID 0000.0001) S/R INI_PARMS ; read PARM04 : OK
(PID.TID 0000.0001) S/R INI_PARMS ; read PARM05 : OK
(PID.TID 0000.0001) %MON XC_max                       =   1.5000000000000E+00
(PID.TID 0000.0001) %MON XC_min                       =   1.5000000000000E+00
(PID.TID 0000.0001) %MON XC_mean                      =   1.5000000000000E+00
(PID.TID 0000.0001) %MON XC_sd                        =   0.0000000000000E+00
(PID.TID 0000.0001) %MON XG_max                       =   0.0000000000000E+00
(PID.TID 0000.0001) %MON XG_min                       =   0.0000000000000E+00
(PID.TID 0000.0001) %MON XG_mean                      =   0.0000000000000E+00
(PID.TID 0000.0001) %MON XG_sd                        =   0.0000000000000E+00
(PID.TID 0000.0001) %MON DXC_max                      =   3.3341812682592E+05
(PID.TID 0000.0001) %MON DXC_min                      =   4.3534716771864E+04
(PID.TID 0000.0001) %MON DXC_mean                     =   2.2627957857351E+05
(PID.TID 0000.0001) %MON DXC_sd                       =   9.1462046601761E+04
(PID.TID 0000.0001) %MON DXF_max                      =   3.3341812682592E+05
(PID.TID 0000.0001) %MON DXF_min                      =   4.3534716771864E+04
(PID.TID 0000.0001) %MON DXF_mean                     =   2.2627957857351E+05
(PID.TID 0000.0001) %MON DXF_sd                       =   9.1462046601761E+04
(PID.TID 0000.0001) %MON DXG_max                      =   3.3353242005612E+05
(PID.TID 0000.0001) %MON DXG_min                      =   3.4863631318407E+04
(PID.TID 0000.0001) %MON DXG_mean                     =   2.2620203821339E+05
(PID.TID 0000.0001) %MON DXG_sd                       =   9.1624145029333E+04
(PID.TID 0000.0001) %MON DXV_max                      =   3.3353242005612E+05
(PID.TID 0000.0001) %MON DXV_min                      =   3.4863631318407E+04
(PID.TID 0000.0001) %MON DXV_mean                     =   2.2620203821339E+05
(PID.TID 0000.0001) %MON DXV_sd                       =   9.1624145029333E+04
(PID.TID 0000.0001) %MON YC_max                       =   8.2500000000000E+01
(PID.TID 0000.0001) %MON YC_min                       =  -8.2500000000000E+01
(PID.TID 0000.0001) %MON YC_mean                      =   0.0000000000000E+00
(PID.TID 0000.0001) %MON YC_sd                        =   4.8489689625734E+01
(PID.TID 0000.0001) %MON YG_max                       =   8.1000000000000E+01
(PID.TID 0000.0001) %MON YG_min                       =  -8.4000000000000E+01
(PID.TID 0000.0001) %MON YG_mean                      =  -1.5272727272727E+00
(PID.TID 0000.0001) %MON YG_sd                        =   4.8928093638598E+01
(PID.TID 0000.0001) %MON DYC_max                      =   3.3353242005612E+05
(PID.TID 0000.0001) %MON DYC_min                      =   3.3353242005612E+05
(PID.TID 0000.0001) %MON DYC_mean                     =   3.3353242005612E+05
(PID.TID 0000.0001) %MON DYC_sd                       =   2.3283064365387E-10
(PID.TID 0000.0001) %MON DYF_max                      =   3.3353242005612E+05
(PID.TID 0000.0001) %MON DYF_min                      =   3.3353242005612E+05
(PID.TID 0000.0001) %MON DYF_mean                     =   3.3353242005612E+05
(PID.TID 0000.0001) %MON DYF_sd                       =   2.3283064365387E-10
(PID.TID 0000.0001) %MON DYG_max                      =   3.3353242005612E+05
(PID.TID 0000.0001) %MON DYG_min                      =   3.3353242005612E+05
(PID.TID 0000.0001) %MON DYG_mean                     =   3.3353242005612E+05
(PID.TID 0000.0001) %MON DYG_sd                       =   2.3283064365387E-10
(PID.TID 0000.0001) %MON DYU_max                      =   3.3353242005612E+05
(PID.TID 0000.0001) %MON DYU_min                      =   3.3353242005612E+05
(PID.TID 0000.0001) %MON DYU_mean                     =   3.3353242005612E+05
(PID.TID 0000.0001) %MON DYU_sd                       =   2.3283064365387E-10
(PID.TID 0000.0001) %MON RA_max                       =   1.1119305196237E+11
(PID.TID 0000.0001) %MON RA_min                       =   1.4518580829016E+10
(PID.TID 0000.0001) %MON RA_mean                      =   7.5462954512622E+10
(PID.TID 0000.0001) %MON RA_sd                        =   3.0502073169179E+10
(PID.TID 0000.0001) %MON RAW_max                      =   1.1119305196237E+11
(PID.TID 0000.0001) %MON RAW_min                      =   1.4518580829016E+10
(PID.TID 0000.0001) %MON RAW_mean                     =   7.5462954512622E+10
(PID.TID 0000.0001) %MON RAW_sd                       =   3.0502073169179E+10
(PID.TID 0000.0001) %MON RAS_max                      =   1.1123116810562E+11
(PID.TID 0000.0001) %MON RAS_min                      =   1.1626823069547E+10
(PID.TID 0000.0001) %MON RAS_mean                     =   7.5437095242840E+10
(PID.TID 0000.0001) %MON RAS_sd                       =   3.0556132074289E+10
(PID.TID 0000.0001) %MON RAZ_max                      =   1.1123116810562E+11
(PID.TID 0000.0001) %MON RAZ_min                      =   1.1626823069547E+10
(PID.TID 0000.0001) %MON RAZ_mean                     =   7.5437095242840E+10
(PID.TID 0000.0001) %MON RAZ_sd                       =   3.0556132074289E+10
(PID.TID 0000.0001)  MDSREADFIELD: opening global file: topo_sl.bin
(PID.TID 0000.0001) // =======================================================
(PID.TID 0000.0001) // Field Model R_low (ini_masks_etc) at iteration          1
(PID.TID 0000.0001) // CMIN =         -5.200000000000000E+03
(PID.TID 0000.0001) // CMAX =         -5.200000000000000E+03
(PID.TID 0000.0001) // CINT =          0.000000000000000E+00
(PID.TID 0000.0001) // SYMBOLS (CMIN->CMAX): -abcdefghijklmnopqrstuvwxyz+
(PID.TID 0000.0001) //                  0.0: .
(PID.TID 0000.0001) // RANGE I (Lo:Hi:Step):(  -2:   4:   1)
(PID.TID 0000.0001) // RANGE J (Lo:Hi:Step):(  59:  -2:  -1)
(PID.TID 0000.0001) // RANGE K (Lo:Hi:Step):(   1:   1:   1)
(PID.TID 0000.0001) // =======================================================
(PID.TID 0000.0001) K =   1
(PID.TID 0000.0001) //
(PID.TID 0000.0001) // |--J--|**01234
(PID.TID 0000.0001) //     59 .......
(PID.TID 0000.0001) //     58 -------
(PID.TID 0000.0001) //     57 .......
(PID.TID 0000.0001) //     56 .......
(PID.TID 0000.0001) //     55 -------
(PID.TID 0000.0001) //     54 -------
(PID.TID 0000.0001) //     53 -------
(PID.TID 0000.0001) //     52 -------
(PID.TID 0000.0001) //     51 -------
(PID.TID 0000.0001) //     50 -------
(PID.TID 0000.0001) //     49 -------
(PID.TID 0000.0001) //     48 -------
(PID.TID 0000.0001) //     47 -------
(PID.TID 0000.0001) //     46 -------
(PID.TID 0000.0001) //     45 -------
(PID.TID 0000.0001) //     44 -------
(PID.TID 0000.0001) //     43 -------
(PID.TID 0000.0001) //     42 -------
(PID.TID 0000.0001) //     41 -------
(PID.TID 0000.0001) //     40 -------
(PID.TID 0000.0001) //     45 -------
(PID.TID 0000.0001) //     44 -------
(PID.TID 0000.0001) //     43 -------
(PID.TID 0000.0001) //     42 -------
(PID.TID 0000.0001) //     41 -------
(PID.TID 0000.0001) //     40 -------
(PID.TID 0000.0001) //     39 -------
(PID.TID 0000.0001) //     38 -------
(PID.TID 0000.0001) //     37 -------
(PID.TID 0000.0001) //     36 -------
(PID.TID 0000.0001) //     35 -------
(PID.TID 0000.0001) //     34 -------
(PID.TID 0000.0001) //     33 -------
(PID.TID 0000.0001) //     32 -------
(PID.TID 0000.0001) //     31 -------
(PID.TID 0000.0001) //     30 -------
(PID.TID 0000.0001) //     29 -------
(PID.TID 0000.0001) //     28 -------
(PID.TID 0000.0001) //     27 -------
(PID.TID 0000.0001) //     26 -------
(PID.TID 0000.0001) //     31 -------
(PID.TID 0000.0001) //     30 -------
(PID.TID 0000.0001) //     29 -------
(PID.TID 0000.0001) //     28 -------
(PID.TID 0000.0001) //     27 -------
(PID.TID 0000.0001) //     26 -------
(PID.TID 0000.0001) //     25 -------
(PID.TID 0000.0001) //     24 -------
(PID.TID 0000.0001) //     23 -------
(PID.TID 0000.0001) //     22 -------
(PID.TID 0000.0001) //     21 -------
(PID.TID 0000.0001) //     20 -------
(PID.TID 0000.0001) //     19 -------
(PID.TID 0000.0001) //     18 -------
(PID.TID 0000.0001) //     17 -------
(PID.TID 0000.0001) //     16 -------
(PID.TID 0000.0001) //     15 -------
(PID.TID 0000.0001) //     14 -------
(PID.TID 0000.0001) //     13 -------
(PID.TID 0000.0001) //     12 -------
(PID.TID 0000.0001) //     17 -------
(PID.TID 0000.0001) //     16 -------
(PID.TID 0000.0001) //     15 -------
(PID.TID 0000.0001) //     14 -------
(PID.TID 0000.0001) //     13 -------
(PID.TID 0000.0001) //     12 -------
(PID.TID 0000.0001) //     11 -------
(PID.TID 0000.0001) //     10 -------
(PID.TID 0000.0001) //      9 -------
(PID.TID 0000.0001) //      8 -------
(PID.TID 0000.0001) //      7 -------
(PID.TID 0000.0001) //      6 -------
(PID.TID 0000.0001) //      5 -------
(PID.TID 0000.0001) //      4 -------
(PID.TID 0000.0001) //      3 -------
(PID.TID 0000.0001) //      2 -------
(PID.TID 0000.0001) //      1 .......
(PID.TID 0000.0001) //      0 .......
(PID.TID 0000.0001) //     -1 -------
(PID.TID 0000.0001) //     -2 .......
(PID.TID 0000.0001) // =======================================================
(PID.TID 0000.0001) // END OF FIELD                                          =
(PID.TID 0000.0001) // =======================================================
(PID.TID 0000.0001) 
(PID.TID 0000.0001) // =======================================================
(PID.TID 0000.0001) // Field Model Ro_surf (ini_masks_etc) at iteration          1
(PID.TID 0000.0001) // CMIN =          1.000000000000000E+32
(PID.TID 0000.0001) // CMAX =         -1.000000000000000E+32
(PID.TID 0000.0001) // CINT =          0.000000000000000E+00
(PID.TID 0000.0001) // SYMBOLS (CMIN->CMAX): -abcdefghijklmnopqrstuvwxyz+
(PID.TID 0000.0001) //                  0.0: .
(PID.TID 0000.0001) // RANGE I (Lo:Hi:Step):(  -2:   4:   1)
(PID.TID 0000.0001) // RANGE J (Lo:Hi:Step):(  59:  -2:  -1)
(PID.TID 0000.0001) // RANGE K (Lo:Hi:Step):(   1:   1:   1)
(PID.TID 0000.0001) // =======================================================
(PID.TID 0000.0001) K =   1
(PID.TID 0000.0001) //
(PID.TID 0000.0001) // |--J--|**01234
(PID.TID 0000.0001) //     59 .......
(PID.TID 0000.0001) //     58 .......
(PID.TID 0000.0001) //     57 .......
(PID.TID 0000.0001) //     56 .......
(PID.TID 0000.0001) //     55 .......
(PID.TID 0000.0001) //     54 .......
(PID.TID 0000.0001) //     53 .......
(PID.TID 0000.0001) //     52 .......
(PID.TID 0000.0001) //     51 .......
(PID.TID 0000.0001) //     50 .......
(PID.TID 0000.0001) //     49 .......
(PID.TID 0000.0001) //     48 .......
(PID.TID 0000.0001) //     47 .......
(PID.TID 0000.0001) //     46 .......
(PID.TID 0000.0001) //     45 .......
(PID.TID 0000.0001) //     44 .......
(PID.TID 0000.0001) //     43 .......
(PID.TID 0000.0001) //     42 .......
(PID.TID 0000.0001) //     41 .......
(PID.TID 0000.0001) //     40 .......
(PID.TID 0000.0001) //     45 .......
(PID.TID 0000.0001) //     44 .......
(PID.TID 0000.0001) //     43 .......
(PID.TID 0000.0001) //     42 .......
(PID.TID 0000.0001) //     41 .......
(PID.TID 0000.0001) //     40 .......
(PID.TID 0000.0001) //     39 .......
(PID.TID 0000.0001) //     38 .......
(PID.TID 0000.0001) //     37 .......
(PID.TID 0000.0001) //     36 .......
(PID.TID 0000.0001) //     35 .......
(PID.TID 0000.0001) //     34 .......
(PID.TID 0000.0001) //     33 .......
(PID.TID 0000.0001) //     32 .......
(PID.TID 0000.0001) //     31 .......
(PID.TID 0000.0001) //     30 .......
(PID.TID 0000.0001) //     29 .......
(PID.TID 0000.0001) //     28 .......
(PID.TID 0000.0001) //     27 .......
(PID.TID 0000.0001) //     26 .......
(PID.TID 0000.0001) //     31 .......
(PID.TID 0000.0001) //     30 .......
(PID.TID 0000.0001) //     29 .......
(PID.TID 0000.0001) //     28 .......
(PID.TID 0000.0001) //     27 .......
(PID.TID 0000.0001) //     26 .......
(PID.TID 0000.0001) //     25 .......
(PID.TID 0000.0001) //     24 .......
(PID.TID 0000.0001) //     23 .......
(PID.TID 0000.0001) //     22 .......
(PID.TID 0000.0001) //     21 .......
(PID.TID 0000.0001) //     20 .......
(PID.TID 0000.0001) //     19 .......
(PID.TID 0000.0001) //     18 .......
(PID.TID 0000.0001) //     17 .......
(PID.TID 0000.0001) //     16 .......
(PID.TID 0000.0001) //     15 .......
(PID.TID 0000.0001) //     14 .......
(PID.TID 0000.0001) //     13 .......
(PID.TID 0000.0001) //     12 .......
(PID.TID 0000.0001) //     17 .......
(PID.TID 0000.0001) //     16 .......
(PID.TID 0000.0001) //     15 .......
(PID.TID 0000.0001) //     14 .......
(PID.TID 0000.0001) //     13 .......
(PID.TID 0000.0001) //     12 .......
(PID.TID 0000.0001) //     11 .......
(PID.TID 0000.0001) //     10 .......
(PID.TID 0000.0001) //      9 .......
(PID.TID 0000.0001) //      8 .......
(PID.TID 0000.0001) //      7 .......
(PID.TID 0000.0001) //      6 .......
(PID.TID 0000.0001) //      5 .......
(PID.TID 0000.0001) //      4 .......
(PID.TID 0000.0001) //      3 .......
(PID.TID 0000.0001) //      2 .......
(PID.TID 0000.0001) //      1 .......
(PID.TID 0000.0001) //      0 .......
(PID.TID 0000.0001) //     -1 .......
(PID.TID 0000.0001) //     -2 .......
(PID.TID 0000.0001) // =======================================================
(PID.TID 0000.0001) // END OF FIELD                                          =
(PID.TID 0000.0001) // =======================================================
(PID.TID 0000.0001) 
(PID.TID 0000.0001) // =======================================================
(PID.TID 0000.0001) // Field hFacC at iteration          1
(PID.TID 0000.0001) // CMIN =          1.000000000000000E+00
(PID.TID 0000.0001) // CMAX =          1.000000000000000E+00
(PID.TID 0000.0001) // CINT =          0.000000000000000E+00
(PID.TID 0000.0001) // SYMBOLS (CMIN->CMAX): -abcdefghijklmnopqrstuvwxyz+
(PID.TID 0000.0001) //                  0.0: .
(PID.TID 0000.0001) // RANGE I (Lo:Hi:Step):(  -2:   4:   1)
(PID.TID 0000.0001) // RANGE J (Lo:Hi:Step):(  59:  -2:  -1)
(PID.TID 0000.0001) // RANGE K (Lo:Hi:Step):(   1:   1:   1)
(PID.TID 0000.0001) // =======================================================
(PID.TID 0000.0001) K =   1
(PID.TID 0000.0001) //
(PID.TID 0000.0001) // |--J--|**01234
(PID.TID 0000.0001) //     59 .......
(PID.TID 0000.0001) //     58 -------
(PID.TID 0000.0001) //     57 .......
(PID.TID 0000.0001) //     56 .......
(PID.TID 0000.0001) //     55 -------
(PID.TID 0000.0001) //     54 -------
(PID.TID 0000.0001) //     53 -------
(PID.TID 0000.0001) //     52 -------
(PID.TID 0000.0001) //     51 -------
(PID.TID 0000.0001) //     50 -------
(PID.TID 0000.0001) //     49 -------
(PID.TID 0000.0001) //     48 -------
(PID.TID 0000.0001) //     47 -------
(PID.TID 0000.0001) //     46 -------
(PID.TID 0000.0001) //     45 -------
(PID.TID 0000.0001) //     44 -------
(PID.TID 0000.0001) //     43 -------
(PID.TID 0000.0001) //     42 -------
(PID.TID 0000.0001) //     41 -------
(PID.TID 0000.0001) //     40 -------
(PID.TID 0000.0001) //     45 -------
(PID.TID 0000.0001) //     44 -------
(PID.TID 0000.0001) //     43 -------
(PID.TID 0000.0001) //     42 -------
(PID.TID 0000.0001) //     41 -------
(PID.TID 0000.0001) //     40 -------
(PID.TID 0000.0001) //     39 -------
(PID.TID 0000.0001) //     38 -------
(PID.TID 0000.0001) //     37 -------
(PID.TID 0000.0001) //     36 -------
(PID.TID 0000.0001) //     35 -------
(PID.TID 0000.0001) //     34 -------
(PID.TID 0000.0001) //     33 -------
(PID.TID 0000.0001) //     32 -------
(PID.TID 0000.0001) //     31 -------
(PID.TID 0000.0001) //     30 -------
(PID.TID 0000.0001) //     29 -------
(PID.TID 0000.0001) //     28 -------
(PID.TID 0000.0001) //     27 -------
(PID.TID 0000.0001) //     26 -------
(PID.TID 0000.0001) //     31 -------
(PID.TID 0000.0001) //     30 -------
(PID.TID 0000.0001) //     29 -------
(PID.TID 0000.0001) //     28 -------
(PID.TID 0000.0001) //     27 -------
(PID.TID 0000.0001) //     26 -------
(PID.TID 0000.0001) //     25 -------
(PID.TID 0000.0001) //     24 -------
(PID.TID 0000.0001) //     23 -------
(PID.TID 0000.0001) //     22 -------
(PID.TID 0000.0001) //     21 -------
(PID.TID 0000.0001) //     20 -------
(PID.TID 0000.0001) //     19 -------
(PID.TID 0000.0001) //     18 -------
(PID.TID 0000.0001) //     17 -------
(PID.TID 0000.0001) //     16 -------
(PID.TID 0000.0001) //     15 -------
(PID.TID 0000.0001) //     14 -------
(PID.TID 0000.0001) //     13 -------
(PID.TID 0000.0001) //     12 -------
(PID.TID 0000.0001) //     17 -------
(PID.TID 0000.0001) //     16 -------
(PID.TID 0000.0001) //     15 -------
(PID.TID 0000.0001) //     14 -------
(PID.TID 0000.0001) //     13 -------
(PID.TID 0000.0001) //     12 -------
(PID.TID 0000.0001) //     11 -------
(PID.TID 0000.0001) //     10 -------
(PID.TID 0000.0001) //      9 -------
(PID.TID 0000.0001) //      8 -------
(PID.TID 0000.0001) //      7 -------
(PID.TID 0000.0001) //      6 -------
(PID.TID 0000.0001) //      5 -------
(PID.TID 0000.0001) //      4 -------
(PID.TID 0000.0001) //      3 -------
(PID.TID 0000.0001) //      2 -------
(PID.TID 0000.0001) //      1 .......
(PID.TID 0000.0001) //      0 .......
(PID.TID 0000.0001) //     -1 -------
(PID.TID 0000.0001) //     -2 .......
(PID.TID 0000.0001) // =======================================================
(PID.TID 0000.0001) // END OF FIELD                                          =
(PID.TID 0000.0001) // =======================================================
(PID.TID 0000.0001) 
(PID.TID 0000.0001) // =======================================================
(PID.TID 0000.0001) // Field hFacW at iteration          1
(PID.TID 0000.0001) // CMIN =          1.000000000000000E+00
(PID.TID 0000.0001) // CMAX =          1.000000000000000E+00
(PID.TID 0000.0001) // CINT =          0.000000000000000E+00
(PID.TID 0000.0001) // SYMBOLS (CMIN->CMAX): -abcdefghijklmnopqrstuvwxyz+
(PID.TID 0000.0001) //                  0.0: .
(PID.TID 0000.0001) // RANGE I (Lo:Hi:Step):(  -2:   4:   1)
(PID.TID 0000.0001) // RANGE J (Lo:Hi:Step):(  59:  -2:  -1)
(PID.TID 0000.0001) // RANGE K (Lo:Hi:Step):(   1:   1:   1)
(PID.TID 0000.0001) // =======================================================
(PID.TID 0000.0001) K =   1
(PID.TID 0000.0001) //
(PID.TID 0000.0001) // |--J--|**01234
(PID.TID 0000.0001) //     59 -------
(PID.TID 0000.0001) //     58 -------
(PID.TID 0000.0001) //     57 .......
(PID.TID 0000.0001) //     56 .......
(PID.TID 0000.0001) //     55 -------
(PID.TID 0000.0001) //     54 -------
(PID.TID 0000.0001) //     53 -------
(PID.TID 0000.0001) //     52 -------
(PID.TID 0000.0001) //     51 -------
(PID.TID 0000.0001) //     50 -------
(PID.TID 0000.0001) //     49 -------
(PID.TID 0000.0001) //     48 -------
(PID.TID 0000.0001) //     47 -------
(PID.TID 0000.0001) //     46 -------
(PID.TID 0000.0001) //     45 -------
(PID.TID 0000.0001) //     44 -------
(PID.TID 0000.0001) //     43 -------
(PID.TID 0000.0001) //     42 -------
(PID.TID 0000.0001) //     41 -------
(PID.TID 0000.0001) //     40 -------
(PID.TID 0000.0001) //     45 -------
(PID.TID 0000.0001) //     44 -------
(PID.TID 0000.0001) //     43 -------
(PID.TID 0000.0001) //     42 -------
(PID.TID 0000.0001) //     41 -------
(PID.TID 0000.0001) //     40 -------
(PID.TID 0000.0001) //     39 -------
(PID.TID 0000.0001) //     38 -------
(PID.TID 0000.0001) //     37 -------
(PID.TID 0000.0001) //     36 -------
(PID.TID 0000.0001) //     35 -------
(PID.TID 0000.0001) //     34 -------
(PID.TID 0000.0001) //     33 -------
(PID.TID 0000.0001) //     32 -------
(PID.TID 0000.0001) //     31 -------
(PID.TID 0000.0001) //     30 -------
(PID.TID 0000.0001) //     29 -------
(PID.TID 0000.0001) //     28 -------
(PID.TID 0000.0001) //     27 -------
(PID.TID 0000.0001) //     26 -------
(PID.TID 0000.0001) //     31 -------
(PID.TID 0000.0001) //     30 -------
(PID.TID 0000.0001) //     29 -------
(PID.TID 0000.0001) //     28 -------
(PID.TID 0000.0001) //     27 -------
(PID.TID 0000.0001) //     26 -------
(PID.TID 0000.0001) //     25 -------
(PID.TID 0000.0001) //     24 -------
(PID.TID 0000.0001) //     23 -------
(PID.TID 0000.0001) //     22 -------
(PID.TID 0000.0001) //     21 -------
(PID.TID 0000.0001) //     20 -------
(PID.TID 0000.0001) //     19 -------
(PID.TID 0000.0001) //     18 -------
(PID.TID 0000.0001) //     17 -------
(PID.TID 0000.0001) //     16 -------
(PID.TID 0000.0001) //     15 -------
(PID.TID 0000.0001) //     14 -------
(PID.TID 0000.0001) //     13 -------
(PID.TID 0000.0001) //     12 -------
(PID.TID 0000.0001) //     17 -------
(PID.TID 0000.0001) //     16 -------
(PID.TID 0000.0001) //     15 -------
(PID.TID 0000.0001) //     14 -------
(PID.TID 0000.0001) //     13 -------
(PID.TID 0000.0001) //     12 -------
(PID.TID 0000.0001) //     11 -------
(PID.TID 0000.0001) //     10 -------
(PID.TID 0000.0001) //      9 -------
(PID.TID 0000.0001) //      8 -------
(PID.TID 0000.0001) //      7 -------
(PID.TID 0000.0001) //      6 -------
(PID.TID 0000.0001) //      5 -------
(PID.TID 0000.0001) //      4 -------
(PID.TID 0000.0001) //      3 -------
(PID.TID 0000.0001) //      2 -------
(PID.TID 0000.0001) //      1 .......
(PID.TID 0000.0001) //      0 .......
(PID.TID 0000.0001) //     -1 -------
(PID.TID 0000.0001) //     -2 -------
(PID.TID 0000.0001) // =======================================================
(PID.TID 0000.0001) // END OF FIELD                                          =
(PID.TID 0000.0001) // =======================================================
(PID.TID 0000.0001) 
(PID.TID 0000.0001) // =======================================================
(PID.TID 0000.0001) // Field hFacS at iteration          1
(PID.TID 0000.0001) // CMIN =          1.000000000000000E+00
(PID.TID 0000.0001) // CMAX =          1.000000000000000E+00
(PID.TID 0000.0001) // CINT =          0.000000000000000E+00
(PID.TID 0000.0001) // SYMBOLS (CMIN->CMAX): -abcdefghijklmnopqrstuvwxyz+
(PID.TID 0000.0001) //                  0.0: .
(PID.TID 0000.0001) // RANGE I (Lo:Hi:Step):(  -2:   4:   1)
(PID.TID 0000.0001) // RANGE J (Lo:Hi:Step):(  59:  -2:  -1)
(PID.TID 0000.0001) // RANGE K (Lo:Hi:Step):(   1:   1:   1)
(PID.TID 0000.0001) // =======================================================
(PID.TID 0000.0001) K =   1
(PID.TID 0000.0001) //
(PID.TID 0000.0001) // |--J--|**01234
(PID.TID 0000.0001) //     59 .......
(PID.TID 0000.0001) //     58 .......
(PID.TID 0000.0001) //     57 .......
(PID.TID 0000.0001) //     56 .......
(PID.TID 0000.0001) //     55 -------
(PID.TID 0000.0001) //     54 -------
(PID.TID 0000.0001) //     53 -------
(PID.TID 0000.0001) //     52 -------
(PID.TID 0000.0001) //     51 -------
(PID.TID 0000.0001) //     50 -------
(PID.TID 0000.0001) //     49 -------
(PID.TID 0000.0001) //     48 -------
(PID.TID 0000.0001) //     47 -------
(PID.TID 0000.0001) //     46 -------
(PID.TID 0000.0001) //     45 -------
(PID.TID 0000.0001) //     44 -------
(PID.TID 0000.0001) //     43 -------
(PID.TID 0000.0001) //     42 -------
(PID.TID 0000.0001) //     41 -------
(PID.TID 0000.0001) //     40 -------
(PID.TID 0000.0001) //     45 -------
(PID.TID 0000.0001) //     44 -------
(PID.TID 0000.0001) //     43 -------
(PID.TID 0000.0001) //     42 -------
(PID.TID 0000.0001) //     41 -------
(PID.TID 0000.0001) //     40 -------
(PID.TID 0000.0001) //     39 -------
(PID.TID 0000.0001) //     38 -------
(PID.TID 0000.0001) //     37 -------
(PID.TID 0000.0001) //     36 -------
(PID.TID 0000.0001) //     35 -------
(PID.TID 0000.0001) //     34 -------
(PID.TID 0000.0001) //     33 -------
(PID.TID 0000.0001) //     32 -------
(PID.TID 0000.0001) //     31 -------
(PID.TID 0000.0001) //     30 -------
(PID.TID 0000.0001) //     29 -------
(PID.TID 0000.0001) //     28 -------
(PID.TID 0000.0001) //     27 -------
(PID.TID 0000.0001) //     26 -------
(PID.TID 0000.0001) //     31 -------
(PID.TID 0000.0001) //     30 -------
(PID.TID 0000.0001) //     29 -------
(PID.TID 0000.0001) //     28 -------
(PID.TID 0000.0001) //     27 -------
(PID.TID 0000.0001) //     26 -------
(PID.TID 0000.0001) //     25 -------
(PID.TID 0000.0001) //     24 -------
(PID.TID 0000.0001) //     23 -------
(PID.TID 0000.0001) //     22 -------
(PID.TID 0000.0001) //     21 -------
(PID.TID 0000.0001) //     20 -------
(PID.TID 0000.0001) //     19 -------
(PID.TID 0000.0001) //     18 -------
(PID.TID 0000.0001) //     17 -------
(PID.TID 0000.0001) //     16 -------
(PID.TID 0000.0001) //     15 -------
(PID.TID 0000.0001) //     14 -------
(PID.TID 0000.0001) //     13 -------
(PID.TID 0000.0001) //     12 -------
(PID.TID 0000.0001) //     17 -------
(PID.TID 0000.0001) //     16 -------
(PID.TID 0000.0001) //     15 -------
(PID.TID 0000.0001) //     14 -------
(PID.TID 0000.0001) //     13 -------
(PID.TID 0000.0001) //     12 -------
(PID.TID 0000.0001) //     11 -------
(PID.TID 0000.0001) //     10 -------
(PID.TID 0000.0001) //      9 -------
(PID.TID 0000.0001) //      8 -------
(PID.TID 0000.0001) //      7 -------
(PID.TID 0000.0001) //      6 -------
(PID.TID 0000.0001) //      5 -------
(PID.TID 0000.0001) //      4 -------
(PID.TID 0000.0001) //      3 -------
(PID.TID 0000.0001) //      2 .......
(PID.TID 0000.0001) //      1 .......
(PID.TID 0000.0001) //      0 .......
(PID.TID 0000.0001) //     -1 .......
(PID.TID 0000.0001) //     -2 .......
(PID.TID 0000.0001) // =======================================================
(PID.TID 0000.0001) // END OF FIELD                                          =
(PID.TID 0000.0001) // =======================================================
(PID.TID 0000.0001) 
(PID.TID 0000.0001) %MON fCori_max                    =   1.4419980985793E-04
(PID.TID 0000.0001) %MON fCori_min                    =  -1.4419980985793E-04
(PID.TID 0000.0001) %MON fCori_mean                   =   4.8401882700246E-22
(PID.TID 0000.0001) %MON fCori_sd                     =   9.9129524406610E-05
(PID.TID 0000.0001) %MON fCoriG_max                   =   1.4365344605787E-04
(PID.TID 0000.0001) %MON fCoriG_min                   =  -1.4464734631126E-04
(PID.TID 0000.0001) %MON fCoriG_mean                  =  -2.6299517511138E-06
(PID.TID 0000.0001) %MON fCoriG_sd                    =   9.9997297738060E-05
(PID.TID 0000.0001) %MON fCoriCos_max                 =   1.4539426427085E-04
(PID.TID 0000.0001) %MON fCoriCos_min                 =   1.8984265119424E-05
(PID.TID 0000.0001) %MON fCoriCos_mean                =   9.8674157759248E-05
(PID.TID 0000.0001) %MON fCoriCos_sd                  =   3.9884025205722E-05
(PID.TID 0000.0001)  PACKAGES_BOOT: opening data.pkg
(PID.TID 0000.0001)  OPEN_COPY_DATA_FILE: opening file data.pkg
(PID.TID 0000.0001) // =======================================================
(PID.TID 0000.0001) // Parameter file "data.pkg"
(PID.TID 0000.0001) // =======================================================
(PID.TID 0000.0001) ># Packages
(PID.TID 0000.0001) > &PACKAGES
(PID.TID 0000.0001) > useGMRedi=.TRUE.,
(PID.TID 0000.0001) > &
(PID.TID 0000.0001) >
(PID.TID 0000.0001) 
(PID.TID 0000.0001)  PACKAGES_BOOT: finished reading data.pkg
(PID.TID 0000.0001)  GM_READPARMS: opening data.gmredi
(PID.TID 0000.0001)  OPEN_COPY_DATA_FILE: opening file data.gmredi
(PID.TID 0000.0001) // =======================================================
(PID.TID 0000.0001) // Parameter file "data.gmredi"
(PID.TID 0000.0001) // =======================================================
(PID.TID 0000.0001) ># from MOM
(PID.TID 0000.0001) ># GM_background_K: 	isopycnal diffusion coefficien
(PID.TID 0000.0001) ># GM_maxSlope:		max slope of isopycnals
(PID.TID 0000.0001) ># GM_Scrit:		transition for scaling diffusion coefficient
(PID.TID 0000.0001) ># GM_Sd:		half width scaling for diffusion coefficient
(PID.TID 0000.0001) ># real background diff:	horizontal diffusion
(PID.TID 0000.0001) >
(PID.TID 0000.0001) ># ifdef GM_VISBECK_VARIABLE_K, include following in GM_PARM01
(PID.TID 0000.0001) ># GM_Visbeck_alpha   = 0.,
(PID.TID 0000.0001) ># GM_Visbeck_length  = 2.e+5,
(PID.TID 0000.0001) ># GM_Visbeck_depth   = 1.e+3,
(PID.TID 0000.0001) ># GM_Visbeck_maxval_K= 2.5e+3,
(PID.TID 0000.0001) >
(PID.TID 0000.0001) > &GM_PARM01
(PID.TID 0000.0001) >  GM_AdvForm=.TRUE.,
(PID.TID 0000.0001) ># GM_AdvSeparate=.TRUE.,
(PID.TID 0000.0001) ># GM_background_K=1000.,
(PID.TID 0000.0001) >  GM_background_K=10.,
(PID.TID 0000.0001) ># GM_isopycK=1000.,
(PID.TID 0000.0001) ># GM_taper_scheme    = 'clipping',
(PID.TID 0000.0001) >  GM_taper_scheme    = 'linear',
(PID.TID 0000.0001) ># GM_taper_scheme    = 'gkw91',
(PID.TID 0000.0001) ># GM_taper_scheme    = 'ldd97',
(PID.TID 0000.0001) >  GM_maxSlope        = 1.e-2,
(PID.TID 0000.0001) >  GM_Scrit           = 4.e-3,
(PID.TID 0000.0001) >  GM_Sd              = 1.e-3,
(PID.TID 0000.0001) >  GM_Visbeck_alpha   = 1.e-2,
(PID.TID 0000.0001) >  GM_Visbeck_length  = 2.e+5,
(PID.TID 0000.0001) >  GM_Visbeck_depth   = 1.e+3,
(PID.TID 0000.0001) >  GM_Visbeck_maxval_K= 2.5e+3,
(PID.TID 0000.0001) > &end
(PID.TID 0000.0001) >
(PID.TID 0000.0001) >
(PID.TID 0000.0001) 
(PID.TID 0000.0001)  GM_READPARMS: finished reading data.gmredi
(PID.TID 0000.0001) GMREDI_CHECK: #define GMREDI
(PID.TID 0000.0001) GM_AdvForm =  /* if FALSE => use SkewFlux Form */
(PID.TID 0000.0001)                   T
(PID.TID 0000.0001)     ;
(PID.TID 0000.0001) GM_AdvSeparate = /* Calc Bolus & Euler Adv. separately */
(PID.TID 0000.0001)                   F
(PID.TID 0000.0001)     ;
(PID.TID 0000.0001) GM_ExtraDiag =  /* Tensor Extra Diag (line 1&2) non 0 */
(PID.TID 0000.0001)                   T
(PID.TID 0000.0001)     ;
(PID.TID 0000.0001) GM_isopycK =   /* Background Isopyc. Diffusivity ( m^2/s ) */
(PID.TID 0000.0001)                 1.000000000000000E+01
(PID.TID 0000.0001)     ;
(PID.TID 0000.0001)  GM_skewflx*K =   /* Background GM_SkewFlx Diffusivity ( m^2/s ) */
(PID.TID 0000.0001)                 0.000000000000000E+00
(PID.TID 0000.0001)     ;
(PID.TID 0000.0001)  GM_advec*K =   /* Backg. GM-Advec(=Bolus) Diffusivity ( m^2/s ) */
(PID.TID 0000.0001)                 1.000000000000000E+01
(PID.TID 0000.0001)     ;
(PID.TID 0000.0001)  GM_Visbeck_alpha =   /* Visbeck alpha coeff. ( ) */
(PID.TID 0000.0001)                 1.000000000000000E-02
(PID.TID 0000.0001)     ;
(PID.TID 0000.0001)  Tapering/Cliping : linear
(PID.TID 0000.0001)  GM_Small_Number =  /* epsilon used in slope calc */
(PID.TID 0000.0001)                 1.000000000000000E-12
(PID.TID 0000.0001)     ;
(PID.TID 0000.0001)  GM_slopeSqCutoff =  /* Slope^2 cut-off value */
(PID.TID 0000.0001)                 1.000000000000000E+48
(PID.TID 0000.0001)     ;
(PID.TID 0000.0001) 
(PID.TID 0000.0001) // ===================================
(PID.TID 0000.0001) // GAD parameters :
(PID.TID 0000.0001) // ===================================
(PID.TID 0000.0001) tempAdvScheme =   /* Temp. advection scheme selector */
(PID.TID 0000.0001)                      77
(PID.TID 0000.0001)     ;
(PID.TID 0000.0001) tempMultiDimAdvec =   /* use Muti-Dim Advec method for Temp */
(PID.TID 0000.0001)                   T
(PID.TID 0000.0001)     ;
(PID.TID 0000.0001) tempAdamsBashforth =   /* use Adams-Bashforth time-stepping for Temp */
(PID.TID 0000.0001)                   F
(PID.TID 0000.0001)     ;
(PID.TID 0000.0001) saltAdvScheme =   /* Salt. advection scheme selector */
(PID.TID 0000.0001)                       2
(PID.TID 0000.0001)     ;
(PID.TID 0000.0001) saltMultiDimAdvec =   /* use Muti-Dim Advec method for Salt */
(PID.TID 0000.0001)                   F
(PID.TID 0000.0001)     ;
(PID.TID 0000.0001) saltAdamsBashforth =   /* use Adams-Bashforth time-stepping for Salt */
(PID.TID 0000.0001)                   T
(PID.TID 0000.0001)     ;
(PID.TID 0000.0001) // ===================================
(PID.TID 0000.0001) // CG2D normalisation factor =          0.3504529336387451438029547E-04
(PID.TID 0000.0001) 
 ini_cg2d: sumArea,cg2dTolerance =  4.19688829104880E+12  1.22567651146013E-12
(PID.TID 0000.0001) CONFIG_CHECK: OK
(PID.TID 0000.0001) // =======================================================
(PID.TID 0000.0001) // Model configuration
(PID.TID 0000.0001) // =======================================================
(PID.TID 0000.0001) //
(PID.TID 0000.0001) // "Physical" paramters ( PARM01 in namelist )
(PID.TID 0000.0001) //
(PID.TID 0000.0001) buoyancyRelation = OCEANIC
(PID.TID 0000.0001) tRef =   /* Reference temperature profile ( oC or oK ) */
(PID.TID 0000.0001)                 1.880000000000000E+01,      /* K =  1 */
(PID.TID 0000.0001)                 1.630000000000000E+01,      /* K =  2 */
(PID.TID 0000.0001)                 1.310000000000000E+01,      /* K =  3 */
(PID.TID 0000.0001)                 1.040000000000000E+01,      /* K =  4 */
(PID.TID 0000.0001)                 8.100000000000000E+00,      /* K =  5 */
(PID.TID 0000.0001)                 6.000000000000000E+00,      /* K =  6 */
(PID.TID 0000.0001)                 4.500000000000000E+00,      /* K =  7 */
(PID.TID 0000.0001)                 3.400000000000000E+00,      /* K =  8 */
(PID.TID 0000.0001)                 2.700000000000000E+00,      /* K =  9 */
(PID.TID 0000.0001)                 2.200000000000000E+00,      /* K = 10 */
(PID.TID 0000.0001)                 1.800000000000000E+00,      /* K = 11 */
(PID.TID 0000.0001)                 1.500000000000000E+00,      /* K = 12 */
(PID.TID 0000.0001)                 1.200000000000000E+00,      /* K = 13 */
(PID.TID 0000.0001)                 1.000000000000000E+00,      /* K = 14 */
(PID.TID 0000.0001)                 9.000000000000000E-01       /* K = 15 */
(PID.TID 0000.0001)     ;
(PID.TID 0000.0001) sRef =   /* Reference salinity profile ( ppt ) */
(PID.TID 0000.0001)    15 @  3.470000000000000E+01              /* K =  1: 15 */
(PID.TID 0000.0001)     ;
(PID.TID 0000.0001) viscAh =   /* Lateral eddy viscosity ( m^2/s ) */
(PID.TID 0000.0001)                 1.200000000000000E+06
(PID.TID 0000.0001)     ;
(PID.TID 0000.0001) viscAh =   /* Lateral biharmonic viscosity ( m^4/s ) */
(PID.TID 0000.0001)                 0.000000000000000E+00
(PID.TID 0000.0001)     ;
(PID.TID 0000.0001) no_slip_sides =  /* Viscous BCs: No-slip sides */
(PID.TID 0000.0001)                   F
(PID.TID 0000.0001)     ;
(PID.TID 0000.0001) viscAz =   /* Vertical eddy viscosity ( m^2/s ) */
(PID.TID 0000.0001)                 1.000000000000000E-03
(PID.TID 0000.0001)     ;
(PID.TID 0000.0001) viscAr =   /* Vertical eddy viscosity ( units of r^2/s ) */
(PID.TID 0000.0001)                 1.000000000000000E-03
(PID.TID 0000.0001)     ;
(PID.TID 0000.0001) diffKhT =   /* Laplacian diffusion of heat laterally ( m^2/s ) */
(PID.TID 0000.0001)                 0.000000000000000E+00
(PID.TID 0000.0001)     ;
(PID.TID 0000.0001) diffK4T =   /* Bihaarmonic diffusion of heat laterally ( m^4/s ) */
(PID.TID 0000.0001)                 0.000000000000000E+00
(PID.TID 0000.0001)     ;
(PID.TID 0000.0001) diffKzT =   /* Laplacian diffusion of heat vertically ( m^2/s ) */
(PID.TID 0000.0001)                 1.000000000000000E-05
(PID.TID 0000.0001)     ;
(PID.TID 0000.0001) diffKrT =   /* Laplacian diffusion of heat vertically ( m^2/s ) */
(PID.TID 0000.0001)                 1.000000000000000E-05
(PID.TID 0000.0001)     ;
(PID.TID 0000.0001) diffKhS =   /* Laplacian diffusion of salt laterally ( m^2/s ) */
(PID.TID 0000.0001)                 0.000000000000000E+00
(PID.TID 0000.0001)     ;
(PID.TID 0000.0001) diffK4S =   /* Bihaarmonic diffusion of salt laterally ( m^4/s ) */
(PID.TID 0000.0001)                 0.000000000000000E+00
(PID.TID 0000.0001)     ;
(PID.TID 0000.0001) diffKzS =   /* Laplacian diffusion of salt vertically ( m^2/s ) */
(PID.TID 0000.0001)                 1.234567000000000E+05
(PID.TID 0000.0001)     ;
(PID.TID 0000.0001) diffKrS =   /* Laplacian diffusion of salt vertically ( m^2/s ) */
(PID.TID 0000.0001)                 0.000000000000000E+00
(PID.TID 0000.0001)     ;
(PID.TID 0000.0001)  Equation of State : eosType = LINEAR
(PID.TID 0000.0001) tAlpha =   /* Linear EOS thermal expansion coefficient ( 1/degree ) */
(PID.TID 0000.0001)                 2.000000000000000E-04
(PID.TID 0000.0001)     ;
(PID.TID 0000.0001) sBeta =   /* Linear EOS haline contraction coefficient ( 1/ppt ) */
(PID.TID 0000.0001)                 0.000000000000000E+00
(PID.TID 0000.0001)     ;
(PID.TID 0000.0001) rhonil =   /* Reference density ( kg/m^3 ) */
(PID.TID 0000.0001)                 1.035000000000000E+03
(PID.TID 0000.0001)     ;
(PID.TID 0000.0001) rhoConst =   /* Reference density ( kg/m^3 ) */
(PID.TID 0000.0001)                 1.035000000000000E+03
(PID.TID 0000.0001)     ;
(PID.TID 0000.0001) rhoConstFresh =   /* Reference density ( kg/m^3 ) */
(PID.TID 0000.0001)                 9.998000000000000E+02
(PID.TID 0000.0001)     ;
(PID.TID 0000.0001) gravity =   /* Gravitational acceleration ( m/s^2 ) */
(PID.TID 0000.0001)                 9.810000000000000E+00
(PID.TID 0000.0001)     ;
(PID.TID 0000.0001) gBaro =   /* Barotropic gravity ( m/s^2 ) */
(PID.TID 0000.0001)                 9.810000000000000E+00
(PID.TID 0000.0001)     ;
(PID.TID 0000.0001) f0 =   /* Reference coriolis parameter ( 1/s ) */
(PID.TID 0000.0001)                 1.000000000000000E-04
(PID.TID 0000.0001)     ;
(PID.TID 0000.0001) beta =   /* Beta ( 1/(m.s) ) */
(PID.TID 0000.0001)                 9.999999999999999E-12
(PID.TID 0000.0001)     ;
(PID.TID 0000.0001) freeSurfFac =   /* Implicit free surface factor */
(PID.TID 0000.0001)                 1.000000000000000E+00
(PID.TID 0000.0001)     ;
(PID.TID 0000.0001) implicitFreeSurface =   /* Implicit free surface on/off flag */
(PID.TID 0000.0001)                   T
(PID.TID 0000.0001)     ;
(PID.TID 0000.0001) rigidLid =   /* Rigid lid on/off flag */
(PID.TID 0000.0001)                   F
(PID.TID 0000.0001)     ;
(PID.TID 0000.0001) implicSurfPress =   /* Surface Pressure implicit factor (0-1)*/
(PID.TID 0000.0001)                 1.000000000000000E+00
(PID.TID 0000.0001)     ;
(PID.TID 0000.0001) implicDiv2Dflow =   /* Barot. Flow Div. implicit factor (0-1)*/
(PID.TID 0000.0001)                 1.000000000000000E+00
(PID.TID 0000.0001)     ;
(PID.TID 0000.0001) exactConserv =   /* Exact Volume Conservation on/off flag*/
(PID.TID 0000.0001)                   T
(PID.TID 0000.0001)     ;
(PID.TID 0000.0001) uniformLin_PhiSurf =   /* use uniform Bo_surf on/off flag*/
(PID.TID 0000.0001)                   T
(PID.TID 0000.0001)     ;
(PID.TID 0000.0001) nonlinFreeSurf =   /* Non-linear Free Surf. options (-1,0,1,2,3)*/
(PID.TID 0000.0001)                       0
(PID.TID 0000.0001)     ;
(PID.TID 0000.0001)      -1,0= Off ; 1,2,3= On, 2=+rescale gU,gV, 3=+update cg2d solv.
(PID.TID 0000.0001) hFacInf =   /* lower threshold for hFac (nonlinFreeSurf only)*/
(PID.TID 0000.0001)                 1.000000000000000E+00
(PID.TID 0000.0001)     ;
(PID.TID 0000.0001) hFacSup =   /* upper threshold for hFac (nonlinFreeSurf only)*/
(PID.TID 0000.0001)                 1.000000000000000E+00
(PID.TID 0000.0001)     ;
(PID.TID 0000.0001) select_rStar =   /* r* Coordinate options (not yet implemented)*/
(PID.TID 0000.0001)                       0
(PID.TID 0000.0001)     ;
(PID.TID 0000.0001)      -1,0= Off ; 1,2,3= On, 2=+rescale gU,gV, 3=+update cg2d solv.
(PID.TID 0000.0001) useRealFreshWaterFlux =   /* Real Fresh Water Flux on/off flag*/
(PID.TID 0000.0001)                   F
(PID.TID 0000.0001)     ;
(PID.TID 0000.0001) convertFW2Salt = /* convert F.W. Flux to Salt Flux (-1=use local S)(ppt)*/
(PID.TID 0000.0001)                 3.500000000000000E+01
(PID.TID 0000.0001)     ;
(PID.TID 0000.0001) multiDimAdvection =   /* enable/disable Multi-Dim Advection */
(PID.TID 0000.0001)                   T
(PID.TID 0000.0001)     ;
(PID.TID 0000.0001) staggerTimeStep =   /* Stagger time stepping on/off flag */
(PID.TID 0000.0001)                   T
(PID.TID 0000.0001)     ;
(PID.TID 0000.0001) momStepping =  /* Momentum equation on/off flag */
(PID.TID 0000.0001)                   T
(PID.TID 0000.0001)     ;
(PID.TID 0000.0001) momAdvection =  /* Momentum advection on/off flag */
(PID.TID 0000.0001)                   T
(PID.TID 0000.0001)     ;
(PID.TID 0000.0001) momViscosity =  /* Momentum viscosity on/off flag */
(PID.TID 0000.0001)                   T
(PID.TID 0000.0001)     ;
(PID.TID 0000.0001) useCoriolis =  /* Coriolis on/off flag */
(PID.TID 0000.0001)                   T
(PID.TID 0000.0001)     ;
(PID.TID 0000.0001) momForcing =  /* Momentum forcing on/off flag */
(PID.TID 0000.0001)                   T
(PID.TID 0000.0001)     ;
(PID.TID 0000.0001) momPressureForcing =  /* Momentum pressure term on/off flag */
(PID.TID 0000.0001)                   T
(PID.TID 0000.0001)     ;
(PID.TID 0000.0001) tempStepping =  /* Temperature equation on/off flag */
(PID.TID 0000.0001)                   T
(PID.TID 0000.0001)     ;
(PID.TID 0000.0001) tempAdvection=  /* Temperature advection on/off flag */
(PID.TID 0000.0001)                   T
(PID.TID 0000.0001)     ;
(PID.TID 0000.0001) tempForcing  =  /* Temperature forcing on/off flag */
(PID.TID 0000.0001)                   T
(PID.TID 0000.0001)     ;
(PID.TID 0000.0001) saltStepping =  /* Salinity equation on/off flag */
(PID.TID 0000.0001)                   F
(PID.TID 0000.0001)     ;
(PID.TID 0000.0001) saltAdvection=  /* Salinity advection on/off flag */
(PID.TID 0000.0001)                   F
(PID.TID 0000.0001)     ;
(PID.TID 0000.0001) saltForcing  =  /* Salinity forcing on/off flag */
(PID.TID 0000.0001)                   F
(PID.TID 0000.0001)     ;
(PID.TID 0000.0001) nonHydrostatic =  /* Non-Hydrostatic on/off flag */
(PID.TID 0000.0001)                   F
(PID.TID 0000.0001)     ;
(PID.TID 0000.0001) //
(PID.TID 0000.0001) // Elliptic solver(s) paramters ( PARM02 in namelist )
(PID.TID 0000.0001) //
(PID.TID 0000.0001) cg2dMaxIters =   /* Upper limit on 2d con. grad iterations  */
(PID.TID 0000.0001)                    1000
(PID.TID 0000.0001)     ;
(PID.TID 0000.0001) cg2dChkResFreq =   /* 2d con. grad convergence test frequency */
(PID.TID 0000.0001)                       1
(PID.TID 0000.0001)     ;
(PID.TID 0000.0001) cg2dTargetResidual =   /* 2d con. grad target residual  */
(PID.TID 0000.0001)                 1.000000000000000E-07
(PID.TID 0000.0001)     ;
(PID.TID 0000.0001) //
(PID.TID 0000.0001) // Time stepping paramters ( PARM03 in namelist )
(PID.TID 0000.0001) //
(PID.TID 0000.0001) nIter0 =   /* Base timestep number  */
(PID.TID 0000.0001)                   36000
(PID.TID 0000.0001)     ;
(PID.TID 0000.0001) nTimeSteps =   /* Number of timesteps */
(PID.TID 0000.0001)                      20
(PID.TID 0000.0001)     ;
(PID.TID 0000.0001) deltatTmom =   /* Momentum equation timestep ( s ) */
(PID.TID 0000.0001)                 1.200000000000000E+03
(PID.TID 0000.0001)     ;
(PID.TID 0000.0001) deltaTfreesurf =   /* FreeSurface equation timestep ( s ) */
(PID.TID 0000.0001)                 3.600000000000000E+03
(PID.TID 0000.0001)     ;
(PID.TID 0000.0001) deltatTtracer =   /* Tracer equation timestep ( s ) */
(PID.TID 0000.0001)                 8.640000000000000E+04
(PID.TID 0000.0001)     ;
(PID.TID 0000.0001) deltatTClock  =   /* Model clock timestep ( s ) */
(PID.TID 0000.0001)                 8.640000000000000E+04
(PID.TID 0000.0001)     ;
(PID.TID 0000.0001) cAdjFreq =   /* Convective adjustment interval ( s ) */
(PID.TID 0000.0001)                 0.000000000000000E+00
(PID.TID 0000.0001)     ;
(PID.TID 0000.0001) forcing_In_AB =   /* put T,S Forcing in Adams-Bash. stepping */
(PID.TID 0000.0001)                   T
(PID.TID 0000.0001)     ;
(PID.TID 0000.0001) abeps =   /* Adams-Bashforth stabilizing weight */
(PID.TID 0000.0001)                 1.000000000000000E-01
(PID.TID 0000.0001)     ;
(PID.TID 0000.0001) tauCD =   /* CD coupling time-scale ( s ) */
(PID.TID 0000.0001)                 3.214280000000000E+05
(PID.TID 0000.0001)     ;
(PID.TID 0000.0001) rCD =   /* Normalised CD coupling parameter */
(PID.TID 0000.0001)                 9.962666600296178E-01
(PID.TID 0000.0001)     ;
(PID.TID 0000.0001) startTime =   /* Run start time ( s ). */
(PID.TID 0000.0001)                 3.110400000000000E+09
(PID.TID 0000.0001)     ;
(PID.TID 0000.0001) endTime =   /* Integration ending time ( s ). */
(PID.TID 0000.0001)                 3.112128000000000E+09
(PID.TID 0000.0001)     ;
(PID.TID 0000.0001) pChkPtFreq =   /* Permanent restart/checkpoint file interval ( s ). */
(PID.TID 0000.0001)                 3.110400000000000E+09
(PID.TID 0000.0001)     ;
(PID.TID 0000.0001) chkPtFreq =   /* Rolling restart/checkpoint file interval ( s ). */
(PID.TID 0000.0001)                 0.000000000000000E+00
(PID.TID 0000.0001)     ;
(PID.TID 0000.0001) dumpFreq =   /* Model state write out interval ( s ). */
(PID.TID 0000.0001)                 1.555200000000000E+09
(PID.TID 0000.0001)     ;
(PID.TID 0000.0001) //
(PID.TID 0000.0001) // Gridding paramters ( PARM04 in namelist )
(PID.TID 0000.0001) //
(PID.TID 0000.0001) usingCartesianGrid =   /* Cartesian coordinates flag ( True / False ) */
(PID.TID 0000.0001)                   F
(PID.TID 0000.0001)     ;
(PID.TID 0000.0001) usingSphericalPolarGrid =   /* Spherical coordinates flag ( True / False ) */
(PID.TID 0000.0001)                   T
(PID.TID 0000.0001)     ;
(PID.TID 0000.0001) groundAtK1 =   /* Lower Boundary (ground) at the surface(k=1) ( T / F ) */
(PID.TID 0000.0001)                   F
(PID.TID 0000.0001)     ;
(PID.TID 0000.0001) Ro_SeaLevel =   /* r(1) ( units of r ) */
(PID.TID 0000.0001)                 0.000000000000000E+00
(PID.TID 0000.0001)     ;
(PID.TID 0000.0001) rkFac =   /* minus Vertical index orientation  */
(PID.TID 0000.0001)                 1.000000000000000E+00
(PID.TID 0000.0001)     ;
(PID.TID 0000.0001) horiVertRatio =   /* Ratio on units : Horiz - Vertical */
(PID.TID 0000.0001)                 1.000000000000000E+00
(PID.TID 0000.0001)     ;
(PID.TID 0000.0001) drC =   /* C spacing ( units of r ) */
(PID.TID 0000.0001)                 2.000000000000000E+01,      /* K =  1 */
(PID.TID 0000.0001)                 6.000000000000000E+01,      /* K =  2 */
(PID.TID 0000.0001)                 8.500000000000000E+01,      /* K =  3 */
(PID.TID 0000.0001)                 1.200000000000000E+02,      /* K =  4 */
(PID.TID 0000.0001)                 1.650000000000000E+02,      /* K =  5 */
(PID.TID 0000.0001)                 2.150000000000000E+02,      /* K =  6 */
(PID.TID 0000.0001)                 2.650000000000000E+02,      /* K =  7 */
(PID.TID 0000.0001)                 3.150000000000000E+02,      /* K =  8 */
(PID.TID 0000.0001)                 3.650000000000000E+02,      /* K =  9 */
(PID.TID 0000.0001)                 4.150000000000000E+02,      /* K = 10 */
(PID.TID 0000.0001)                 4.650000000000000E+02,      /* K = 11 */
(PID.TID 0000.0001)                 5.150000000000000E+02,      /* K = 12 */
(PID.TID 0000.0001)                 5.650000000000000E+02,      /* K = 13 */
(PID.TID 0000.0001)                 6.150000000000000E+02,      /* K = 14 */
(PID.TID 0000.0001)                 6.650000000000000E+02       /* K = 15 */
(PID.TID 0000.0001)     ;
(PID.TID 0000.0001) drF =   /* W spacing ( units of r ) */
(PID.TID 0000.0001)                 5.000000000000000E+01,      /* K =  1 */
(PID.TID 0000.0001)                 7.250000000000000E+01,      /* K =  2 */
(PID.TID 0000.0001)                 1.025000000000000E+02,      /* K =  3 */
(PID.TID 0000.0001)                 1.425000000000000E+02,      /* K =  4 */
(PID.TID 0000.0001)                 1.900000000000000E+02,      /* K =  5 */
(PID.TID 0000.0001)                 2.400000000000000E+02,      /* K =  6 */
(PID.TID 0000.0001)                 2.900000000000000E+02,      /* K =  7 */
(PID.TID 0000.0001)                 3.400000000000000E+02,      /* K =  8 */
(PID.TID 0000.0001)                 3.900000000000000E+02,      /* K =  9 */
(PID.TID 0000.0001)                 4.400000000000000E+02,      /* K = 10 */
(PID.TID 0000.0001)                 4.900000000000000E+02,      /* K = 11 */
(PID.TID 0000.0001)                 5.400000000000000E+02,      /* K = 12 */
(PID.TID 0000.0001)                 5.900000000000000E+02,      /* K = 13 */
(PID.TID 0000.0001)                 6.400000000000000E+02,      /* K = 14 */
(PID.TID 0000.0001)                 6.825000000000000E+02       /* K = 15 */
(PID.TID 0000.0001)     ;
(PID.TID 0000.0001) delX =   /* U spacing ( m - cartesian, degrees - spherical ) */
(PID.TID 0000.0001)                 3.000000000000000E+00       /* I =  1 */
(PID.TID 0000.0001)     ;
(PID.TID 0000.0001) delY =   /* V spacing ( m - cartesian, degrees - spherical ) */
(PID.TID 0000.0001)    56 @  3.000000000000000E+00              /* J =  1: 56 */
(PID.TID 0000.0001)     ;
(PID.TID 0000.0001) phiMin =    /* South edge (ignored - cartesian, degrees - spherical ) */
(PID.TID 0000.0001)                -8.400000000000000E+01
(PID.TID 0000.0001)     ;
(PID.TID 0000.0001) thetaMin =    /* West edge ( ignored - cartesian, degrees - spherical ) */
(PID.TID 0000.0001)                 0.000000000000000E+00
(PID.TID 0000.0001)     ;
(PID.TID 0000.0001) rSphere =    /* Radius ( ignored - cartesian, m - spherical ) */
(PID.TID 0000.0001)                 6.370000000000000E+06
(PID.TID 0000.0001)     ;
(PID.TID 0000.0001) xcoord =   /* P-point X coord ( m - cartesian, degrees - spherical ) */
(PID.TID 0000.0001)                 1.500000000000000E+00       /* I =  1 */
(PID.TID 0000.0001)     ;
(PID.TID 0000.0001) ycoord =   /* P-point Y coord ( m - cartesian, degrees - spherical ) */
(PID.TID 0000.0001)                -8.250000000000000E+01,      /* J =  1 */
(PID.TID 0000.0001)                -7.950000000000000E+01,      /* J =  2 */
(PID.TID 0000.0001)                -7.650000000000000E+01,      /* J =  3 */
(PID.TID 0000.0001)                -7.350000000000000E+01,      /* J =  4 */
(PID.TID 0000.0001)                -7.050000000000000E+01,      /* J =  5 */
(PID.TID 0000.0001)                -6.750000000000000E+01,      /* J =  6 */
(PID.TID 0000.0001)                -6.450000000000000E+01,      /* J =  7 */
(PID.TID 0000.0001)                -6.150000000000000E+01,      /* J =  8 */
(PID.TID 0000.0001)                -5.850000000000000E+01,      /* J =  9 */
(PID.TID 0000.0001)                -5.550000000000000E+01,      /* J = 10 */
(PID.TID 0000.0001)                -5.250000000000000E+01,      /* J = 11 */
(PID.TID 0000.0001)                -4.950000000000000E+01,      /* J = 12 */
(PID.TID 0000.0001)                -4.650000000000000E+01,      /* J = 13 */
(PID.TID 0000.0001)                -4.350000000000000E+01,      /* J = 14 */
(PID.TID 0000.0001)                -4.050000000000000E+01,      /* J = 15 */
(PID.TID 0000.0001)                -3.750000000000000E+01,      /* J = 16 */
(PID.TID 0000.0001)                -3.450000000000000E+01,      /* J = 17 */
(PID.TID 0000.0001)                -3.150000000000000E+01,      /* J = 18 */
(PID.TID 0000.0001)                -2.850000000000000E+01,      /* J = 19 */
(PID.TID 0000.0001)                -2.550000000000000E+01,      /* J = 20 */
(PID.TID 0000.0001)                -2.250000000000000E+01,      /* J = 21 */
(PID.TID 0000.0001)                -1.950000000000000E+01,      /* J = 22 */
(PID.TID 0000.0001)                -1.650000000000000E+01,      /* J = 23 */
(PID.TID 0000.0001)                -1.350000000000000E+01,      /* J = 24 */
(PID.TID 0000.0001)                -1.050000000000000E+01,      /* J = 25 */
(PID.TID 0000.0001)                -7.500000000000000E+00,      /* J = 26 */
(PID.TID 0000.0001)                -4.500000000000000E+00,      /* J = 27 */
(PID.TID 0000.0001)                -1.500000000000000E+00,      /* J = 28 */
(PID.TID 0000.0001)                 1.500000000000000E+00,      /* J = 29 */
(PID.TID 0000.0001)                 4.500000000000000E+00,      /* J = 30 */
(PID.TID 0000.0001)                 7.500000000000000E+00,      /* J = 31 */
(PID.TID 0000.0001)                 1.050000000000000E+01,      /* J = 32 */
(PID.TID 0000.0001)                 1.350000000000000E+01,      /* J = 33 */
(PID.TID 0000.0001)                 1.650000000000000E+01,      /* J = 34 */
(PID.TID 0000.0001)                 1.950000000000000E+01,      /* J = 35 */
(PID.TID 0000.0001)                 2.250000000000000E+01,      /* J = 36 */
(PID.TID 0000.0001)                 2.550000000000000E+01,      /* J = 37 */
(PID.TID 0000.0001)                 2.850000000000000E+01,      /* J = 38 */
(PID.TID 0000.0001)                 3.150000000000000E+01,      /* J = 39 */
(PID.TID 0000.0001)                 3.450000000000000E+01,      /* J = 40 */
(PID.TID 0000.0001)                 3.750000000000000E+01,      /* J = 41 */
(PID.TID 0000.0001)                 4.050000000000000E+01,      /* J = 42 */
(PID.TID 0000.0001)                 4.350000000000000E+01,      /* J = 43 */
(PID.TID 0000.0001)                 4.650000000000000E+01,      /* J = 44 */
(PID.TID 0000.0001)                 4.950000000000000E+01,      /* J = 45 */
(PID.TID 0000.0001)                 5.250000000000000E+01,      /* J = 46 */
(PID.TID 0000.0001)                 5.550000000000000E+01,      /* J = 47 */
(PID.TID 0000.0001)                 5.850000000000000E+01,      /* J = 48 */
(PID.TID 0000.0001)                 6.150000000000000E+01,      /* J = 49 */
(PID.TID 0000.0001)                 6.450000000000000E+01,      /* J = 50 */
(PID.TID 0000.0001)                 6.750000000000000E+01,      /* J = 51 */
(PID.TID 0000.0001)                 7.050000000000000E+01,      /* J = 52 */
(PID.TID 0000.0001)                 7.350000000000000E+01,      /* J = 53 */
(PID.TID 0000.0001)                 7.650000000000000E+01,      /* J = 54 */
(PID.TID 0000.0001)                 7.950000000000000E+01,      /* J = 55 */
(PID.TID 0000.0001)                 8.250000000000000E+01       /* J = 56 */
(PID.TID 0000.0001)     ;
(PID.TID 0000.0001) rcoord =   /* P-point R coordinate (  units of r ) */
(PID.TID 0000.0001)                -2.000000000000000E+01,      /* K =  1 */
(PID.TID 0000.0001)                -8.000000000000000E+01,      /* K =  2 */
(PID.TID 0000.0001)                -1.650000000000000E+02,      /* K =  3 */
(PID.TID 0000.0001)                -2.850000000000000E+02,      /* K =  4 */
(PID.TID 0000.0001)                -4.500000000000000E+02,      /* K =  5 */
(PID.TID 0000.0001)                -6.650000000000000E+02,      /* K =  6 */
(PID.TID 0000.0001)                -9.300000000000000E+02,      /* K =  7 */
(PID.TID 0000.0001)                -1.245000000000000E+03,      /* K =  8 */
(PID.TID 0000.0001)                -1.610000000000000E+03,      /* K =  9 */
(PID.TID 0000.0001)                -2.025000000000000E+03,      /* K = 10 */
(PID.TID 0000.0001)                -2.490000000000000E+03,      /* K = 11 */
(PID.TID 0000.0001)                -3.005000000000000E+03,      /* K = 12 */
(PID.TID 0000.0001)                -3.570000000000000E+03,      /* K = 13 */
(PID.TID 0000.0001)                -4.185000000000000E+03,      /* K = 14 */
(PID.TID 0000.0001)                -4.850000000000000E+03       /* K = 15 */
(PID.TID 0000.0001)     ;
(PID.TID 0000.0001) rF =   /* W-Interf. R coordinate (  units of r ) */
(PID.TID 0000.0001)                 0.000000000000000E+00,      /* K =  1 */
(PID.TID 0000.0001)                -5.000000000000000E+01,      /* K =  2 */
(PID.TID 0000.0001)                -1.225000000000000E+02,      /* K =  3 */
(PID.TID 0000.0001)                -2.250000000000000E+02,      /* K =  4 */
(PID.TID 0000.0001)                -3.675000000000000E+02,      /* K =  5 */
(PID.TID 0000.0001)                -5.575000000000000E+02,      /* K =  6 */
(PID.TID 0000.0001)                -7.975000000000000E+02,      /* K =  7 */
(PID.TID 0000.0001)                -1.087500000000000E+03,      /* K =  8 */
(PID.TID 0000.0001)                -1.427500000000000E+03,      /* K =  9 */
(PID.TID 0000.0001)                -1.817500000000000E+03,      /* K = 10 */
(PID.TID 0000.0001)                -2.257500000000000E+03,      /* K = 11 */
(PID.TID 0000.0001)                -2.747500000000000E+03,      /* K = 12 */
(PID.TID 0000.0001)                -3.287500000000000E+03,      /* K = 13 */
(PID.TID 0000.0001)                -3.877500000000000E+03,      /* K = 14 */
(PID.TID 0000.0001)                -4.517500000000000E+03,      /* K = 15 */
(PID.TID 0000.0001)                -5.200000000000000E+03       /* K = 16 */
(PID.TID 0000.0001)     ;
(PID.TID 0000.0001) dxF =  /* dxF(:,1,:,1) ( m - cartesian, degrees - spherical ) */
(PID.TID 0000.0001)                 4.353471677186368E+04       /* I =  1 */
(PID.TID 0000.0001)     ;
(PID.TID 0000.0001) dxF =  /* dxF(1,:,1,:) ( m - cartesian, degrees - spherical ) */
(PID.TID 0000.0001)                 4.353471677186368E+04,      /* J =  1 */
(PID.TID 0000.0001)                 6.078145583759403E+04,      /* J =  2 */
(PID.TID 0000.0001)                 7.786159715774079E+04,      /* J =  3 */
(PID.TID 0000.0001)                 9.472832525217145E+04,      /* J =  4 */
(PID.TID 0000.0001)                 1.113354095915710E+05,      /* J =  5 */
(PID.TID 0000.0001)                 1.276373313121095E+05,      /* J =  6 */
(PID.TID 0000.0001)                 1.435894079794837E+05,      /* J =  7 */
(PID.TID 0000.0001)                 1.591479160603634E+05,      /* J =  8 */
(PID.TID 0000.0001)                 1.742702107655578E+05,      /* J =  9 */
(PID.TID 0000.0001)                 1.889148429364175E+05,      /* J = 10 */
(PID.TID 0000.0001)                 2.030416726540983E+05,      /* J = 11 */
(PID.TID 0000.0001)                 2.166119792602878E+05,      /* J = 12 */
(PID.TID 0000.0001)                 2.295885674878389E+05,      /* J = 13 */
(PID.TID 0000.0001)                 2.419358694104115E+05,      /* J = 14 */
(PID.TID 0000.0001)                 2.536200419316863E+05,      /* J = 15 */
(PID.TID 0000.0001)                 2.646090595469393E+05,      /* J = 16 */
(PID.TID 0000.0001)                 2.748728021227244E+05,      /* J = 17 */
(PID.TID 0000.0001)                 2.843831374540652E+05,      /* J = 18 */
(PID.TID 0000.0001)                 2.931139983728740E+05,      /* J = 19 */
(PID.TID 0000.0001)                 3.010414541962469E+05,      /* J = 20 */
(PID.TID 0000.0001)                 3.081437763188029E+05,      /* J = 21 */
(PID.TID 0000.0001)                 3.144014977692803E+05,      /* J = 22 */
(PID.TID 0000.0001)                 3.197974665681523E+05,      /* J = 23 */
(PID.TID 0000.0001)                 3.243168927400103E+05,      /* J = 24 */
(PID.TID 0000.0001)                 3.279473888518588E+05,      /* J = 25 */
(PID.TID 0000.0001)                 3.306790039662078E+05,      /* J = 26 */
(PID.TID 0000.0001)                 3.325042509159012E+05,      /* J = 27 */
(PID.TID 0000.0001)     2 @  3.334181268259212E+05,             /* J = 28: 29 */
(PID.TID 0000.0001)                 3.325042509159012E+05,      /* J = 30 */
(PID.TID 0000.0001)                 3.306790039662078E+05,      /* J = 31 */
(PID.TID 0000.0001)                 3.279473888518588E+05,      /* J = 32 */
(PID.TID 0000.0001)                 3.243168927400103E+05,      /* J = 33 */
(PID.TID 0000.0001)                 3.197974665681523E+05,      /* J = 34 */
(PID.TID 0000.0001)                 3.144014977692803E+05,      /* J = 35 */
(PID.TID 0000.0001)                 3.081437763188029E+05,      /* J = 36 */
(PID.TID 0000.0001)                 3.010414541962469E+05,      /* J = 37 */
(PID.TID 0000.0001)                 2.931139983728740E+05,      /* J = 38 */
(PID.TID 0000.0001)                 2.843831374540652E+05,      /* J = 39 */
(PID.TID 0000.0001)                 2.748728021227244E+05,      /* J = 40 */
(PID.TID 0000.0001)                 2.646090595469393E+05,      /* J = 41 */
(PID.TID 0000.0001)                 2.536200419316863E+05,      /* J = 42 */
(PID.TID 0000.0001)                 2.419358694104115E+05,      /* J = 43 */
(PID.TID 0000.0001)                 2.295885674878389E+05,      /* J = 44 */
(PID.TID 0000.0001)                 2.166119792602878E+05,      /* J = 45 */
(PID.TID 0000.0001)                 2.030416726540983E+05,      /* J = 46 */
(PID.TID 0000.0001)                 1.889148429364175E+05,      /* J = 47 */
(PID.TID 0000.0001)                 1.742702107655578E+05,      /* J = 48 */
(PID.TID 0000.0001)                 1.591479160603634E+05,      /* J = 49 */
(PID.TID 0000.0001)                 1.435894079794837E+05,      /* J = 50 */
(PID.TID 0000.0001)                 1.276373313121095E+05,      /* J = 51 */
(PID.TID 0000.0001)                 1.113354095915710E+05,      /* J = 52 */
(PID.TID 0000.0001)                 9.472832525217145E+04,      /* J = 53 */
(PID.TID 0000.0001)                 7.786159715774079E+04,      /* J = 54 */
(PID.TID 0000.0001)                 6.078145583759403E+04,      /* J = 55 */
(PID.TID 0000.0001)                 4.353471677186368E+04       /* J = 56 */
(PID.TID 0000.0001)     ;
(PID.TID 0000.0001) dyF =  /* dyF(:,1,:,1) ( m - cartesian, degrees - spherical ) */
(PID.TID 0000.0001)                 3.335324200561164E+05       /* I =  1 */
(PID.TID 0000.0001)     ;
(PID.TID 0000.0001) dyF =  /* dyF(1,:,1,:) ( m - cartesian, degrees - spherical ) */
(PID.TID 0000.0001)    56 @  3.335324200561164E+05              /* J =  1: 56 */
(PID.TID 0000.0001)     ;
(PID.TID 0000.0001) dxG =  /* dxG(:,1,:,1) ( m - cartesian, degrees - spherical ) */
(PID.TID 0000.0001)                 3.486363131840732E+04       /* I =  1 */
(PID.TID 0000.0001)     ;
(PID.TID 0000.0001) dxG =  /* dxG(1,:,1,:) ( m - cartesian, degrees - spherical ) */
(PID.TID 0000.0001)                 3.486363131840732E+04,      /* J =  1 */
(PID.TID 0000.0001)                 5.217596570505215E+04,      /* J =  2 */
(PID.TID 0000.0001)                 6.934528939640634E+04,      /* J =  3 */
(PID.TID 0000.0001)                 8.632454246965688E+04,      /* J =  4 */
(PID.TID 0000.0001)                 1.030671859723435E+05,      /* J =  5 */
(PID.TID 0000.0001)                 1.195273294823922E+05,      /* J =  6 */
(PID.TID 0000.0001)                 1.356598568905725E+05,      /* J =  7 */
(PID.TID 0000.0001)                 1.514205500606167E+05,      /* J =  8 */
(PID.TID 0000.0001)                 1.667662100280582E+05,      /* J =  9 */
(PID.TID 0000.0001)                 1.816547754055899E+05,      /* J = 10 */
(PID.TID 0000.0001)                 1.960454376704035E+05,      /* J = 11 */
(PID.TID 0000.0001)                 2.098987530175138E+05,      /* J = 12 */
(PID.TID 0000.0001)                 2.231767504724865E+05,      /* J = 13 */
(PID.TID 0000.0001)                 2.358430359672399E+05,      /* J = 14 */
(PID.TID 0000.0001)                 2.478628920936555E+05,      /* J = 15 */
(PID.TID 0000.0001)                 2.592033732615809E+05,      /* J = 16 */
(PID.TID 0000.0001)                 2.698333960004017E+05,      /* J = 17 */
(PID.TID 0000.0001)                 2.797238241566748E+05,      /* J = 18 */
(PID.TID 0000.0001)                 2.888475487542992E+05,      /* J = 19 */
(PID.TID 0000.0001)                 2.971795622983349E+05,      /* J = 20 */
(PID.TID 0000.0001)                 3.046970273188090E+05,      /* J = 21 */
(PID.TID 0000.0001)                 3.113793389666330E+05,      /* J = 22 */
(PID.TID 0000.0001)                 3.172081814900619E+05,      /* J = 23 */
(PID.TID 0000.0001)                 3.221675784368968E+05,      /* J = 24 */
(PID.TID 0000.0001)                 3.262439364448301E+05,      /* J = 25 */
(PID.TID 0000.0001)                 3.294260824999060E+05,      /* J = 26 */
(PID.TID 0000.0001)                 3.317052945609760E+05,      /* J = 27 */
(PID.TID 0000.0001)                 3.330753254662066E+05,      /* J = 28 */
(PID.TID 0000.0001)                 3.335324200561164E+05,      /* J = 29 */
(PID.TID 0000.0001)                 3.330753254662066E+05,      /* J = 30 */
(PID.TID 0000.0001)                 3.317052945609760E+05,      /* J = 31 */
(PID.TID 0000.0001)                 3.294260824999060E+05,      /* J = 32 */
(PID.TID 0000.0001)                 3.262439364448301E+05,      /* J = 33 */
(PID.TID 0000.0001)                 3.221675784368968E+05,      /* J = 34 */
(PID.TID 0000.0001)                 3.172081814900619E+05,      /* J = 35 */
(PID.TID 0000.0001)                 3.113793389666330E+05,      /* J = 36 */
(PID.TID 0000.0001)                 3.046970273188090E+05,      /* J = 37 */
(PID.TID 0000.0001)                 2.971795622983349E+05,      /* J = 38 */
(PID.TID 0000.0001)                 2.888475487542992E+05,      /* J = 39 */
(PID.TID 0000.0001)                 2.797238241566748E+05,      /* J = 40 */
(PID.TID 0000.0001)                 2.698333960004017E+05,      /* J = 41 */
(PID.TID 0000.0001)                 2.592033732615809E+05,      /* J = 42 */
(PID.TID 0000.0001)                 2.478628920936555E+05,      /* J = 43 */
(PID.TID 0000.0001)                 2.358430359672399E+05,      /* J = 44 */
(PID.TID 0000.0001)                 2.231767504724865E+05,      /* J = 45 */
(PID.TID 0000.0001)                 2.098987530175138E+05,      /* J = 46 */
(PID.TID 0000.0001)                 1.960454376704035E+05,      /* J = 47 */
(PID.TID 0000.0001)                 1.816547754055899E+05,      /* J = 48 */
(PID.TID 0000.0001)                 1.667662100280582E+05,      /* J = 49 */
(PID.TID 0000.0001)                 1.514205500606167E+05,      /* J = 50 */
(PID.TID 0000.0001)                 1.356598568905725E+05,      /* J = 51 */
(PID.TID 0000.0001)                 1.195273294823922E+05,      /* J = 52 */
(PID.TID 0000.0001)                 1.030671859723435E+05,      /* J = 53 */
(PID.TID 0000.0001)                 8.632454246965688E+04,      /* J = 54 */
(PID.TID 0000.0001)                 6.934528939640634E+04,      /* J = 55 */
(PID.TID 0000.0001)                 5.217596570505215E+04       /* J = 56 */
(PID.TID 0000.0001)     ;
(PID.TID 0000.0001) dyG =  /* dyG(:,1,:,1) ( m - cartesian, degrees - spherical ) */
(PID.TID 0000.0001)                 3.335324200561164E+05       /* I =  1 */
(PID.TID 0000.0001)     ;
(PID.TID 0000.0001) dyG =  /* dyG(1,:,1,:) ( m - cartesian, degrees - spherical ) */
(PID.TID 0000.0001)    56 @  3.335324200561164E+05              /* J =  1: 56 */
(PID.TID 0000.0001)     ;
(PID.TID 0000.0001) dxC =  /* dxC(:,1,:,1) ( m - cartesian, degrees - spherical ) */
(PID.TID 0000.0001)                 4.353471677186368E+04       /* I =  1 */
(PID.TID 0000.0001)     ;
(PID.TID 0000.0001) dxC =  /* dxC(1,:,1,:) ( m - cartesian, degrees - spherical ) */
(PID.TID 0000.0001)                 4.353471677186368E+04,      /* J =  1 */
(PID.TID 0000.0001)                 6.078145583759403E+04,      /* J =  2 */
(PID.TID 0000.0001)                 7.786159715774079E+04,      /* J =  3 */
(PID.TID 0000.0001)                 9.472832525217145E+04,      /* J =  4 */
(PID.TID 0000.0001)                 1.113354095915710E+05,      /* J =  5 */
(PID.TID 0000.0001)                 1.276373313121095E+05,      /* J =  6 */
(PID.TID 0000.0001)                 1.435894079794837E+05,      /* J =  7 */
(PID.TID 0000.0001)                 1.591479160603634E+05,      /* J =  8 */
(PID.TID 0000.0001)                 1.742702107655578E+05,      /* J =  9 */
(PID.TID 0000.0001)                 1.889148429364175E+05,      /* J = 10 */
(PID.TID 0000.0001)                 2.030416726540983E+05,      /* J = 11 */
(PID.TID 0000.0001)                 2.166119792602878E+05,      /* J = 12 */
(PID.TID 0000.0001)                 2.295885674878389E+05,      /* J = 13 */
(PID.TID 0000.0001)                 2.419358694104115E+05,      /* J = 14 */
(PID.TID 0000.0001)                 2.536200419316863E+05,      /* J = 15 */
(PID.TID 0000.0001)                 2.646090595469393E+05,      /* J = 16 */
(PID.TID 0000.0001)                 2.748728021227244E+05,      /* J = 17 */
(PID.TID 0000.0001)                 2.843831374540652E+05,      /* J = 18 */
(PID.TID 0000.0001)                 2.931139983728740E+05,      /* J = 19 */
(PID.TID 0000.0001)                 3.010414541962469E+05,      /* J = 20 */
(PID.TID 0000.0001)                 3.081437763188029E+05,      /* J = 21 */
(PID.TID 0000.0001)                 3.144014977692803E+05,      /* J = 22 */
(PID.TID 0000.0001)                 3.197974665681523E+05,      /* J = 23 */
(PID.TID 0000.0001)                 3.243168927400103E+05,      /* J = 24 */
(PID.TID 0000.0001)                 3.279473888518588E+05,      /* J = 25 */
(PID.TID 0000.0001)                 3.306790039662078E+05,      /* J = 26 */
(PID.TID 0000.0001)                 3.325042509159012E+05,      /* J = 27 */
(PID.TID 0000.0001)     2 @  3.334181268259212E+05,             /* J = 28: 29 */
(PID.TID 0000.0001)                 3.325042509159012E+05,      /* J = 30 */
(PID.TID 0000.0001)                 3.306790039662078E+05,      /* J = 31 */
(PID.TID 0000.0001)                 3.279473888518588E+05,      /* J = 32 */
(PID.TID 0000.0001)                 3.243168927400103E+05,      /* J = 33 */
(PID.TID 0000.0001)                 3.197974665681523E+05,      /* J = 34 */
(PID.TID 0000.0001)                 3.144014977692803E+05,      /* J = 35 */
(PID.TID 0000.0001)                 3.081437763188029E+05,      /* J = 36 */
(PID.TID 0000.0001)                 3.010414541962469E+05,      /* J = 37 */
(PID.TID 0000.0001)                 2.931139983728740E+05,      /* J = 38 */
(PID.TID 0000.0001)                 2.843831374540652E+05,      /* J = 39 */
(PID.TID 0000.0001)                 2.748728021227244E+05,      /* J = 40 */
(PID.TID 0000.0001)                 2.646090595469393E+05,      /* J = 41 */
(PID.TID 0000.0001)                 2.536200419316863E+05,      /* J = 42 */
(PID.TID 0000.0001)                 2.419358694104115E+05,      /* J = 43 */
(PID.TID 0000.0001)                 2.295885674878389E+05,      /* J = 44 */
(PID.TID 0000.0001)                 2.166119792602878E+05,      /* J = 45 */
(PID.TID 0000.0001)                 2.030416726540983E+05,      /* J = 46 */
(PID.TID 0000.0001)                 1.889148429364175E+05,      /* J = 47 */
(PID.TID 0000.0001)                 1.742702107655578E+05,      /* J = 48 */
(PID.TID 0000.0001)                 1.591479160603634E+05,      /* J = 49 */
(PID.TID 0000.0001)                 1.435894079794837E+05,      /* J = 50 */
(PID.TID 0000.0001)                 1.276373313121095E+05,      /* J = 51 */
(PID.TID 0000.0001)                 1.113354095915710E+05,      /* J = 52 */
(PID.TID 0000.0001)                 9.472832525217145E+04,      /* J = 53 */
(PID.TID 0000.0001)                 7.786159715774079E+04,      /* J = 54 */
(PID.TID 0000.0001)                 6.078145583759403E+04,      /* J = 55 */
(PID.TID 0000.0001)                 4.353471677186368E+04       /* J = 56 */
(PID.TID 0000.0001)     ;
(PID.TID 0000.0001) dyC =  /* dyC(:,1,:,1) ( m - cartesian, degrees - spherical ) */
(PID.TID 0000.0001)                 3.335324200561164E+05       /* I =  1 */
(PID.TID 0000.0001)     ;
(PID.TID 0000.0001) dyC =  /* dyC(1,:,1,:) ( m - cartesian, degrees - spherical ) */
(PID.TID 0000.0001)    56 @  3.335324200561164E+05              /* J =  1: 56 */
(PID.TID 0000.0001)     ;
(PID.TID 0000.0001) dxV =  /* dxV(:,1,:,1) ( m - cartesian, degrees - spherical ) */
(PID.TID 0000.0001)                 3.486363131840732E+04       /* I =  1 */
(PID.TID 0000.0001)     ;
(PID.TID 0000.0001) dxV =  /* dxV(1,:,1,:) ( m - cartesian, degrees - spherical ) */
(PID.TID 0000.0001)                 3.486363131840732E+04,      /* J =  1 */
(PID.TID 0000.0001)                 5.217596570505215E+04,      /* J =  2 */
(PID.TID 0000.0001)                 6.934528939640634E+04,      /* J =  3 */
(PID.TID 0000.0001)                 8.632454246965688E+04,      /* J =  4 */
(PID.TID 0000.0001)                 1.030671859723435E+05,      /* J =  5 */
(PID.TID 0000.0001)                 1.195273294823922E+05,      /* J =  6 */
(PID.TID 0000.0001)                 1.356598568905725E+05,      /* J =  7 */
(PID.TID 0000.0001)                 1.514205500606167E+05,      /* J =  8 */
(PID.TID 0000.0001)                 1.667662100280582E+05,      /* J =  9 */
(PID.TID 0000.0001)                 1.816547754055899E+05,      /* J = 10 */
(PID.TID 0000.0001)                 1.960454376704035E+05,      /* J = 11 */
(PID.TID 0000.0001)                 2.098987530175138E+05,      /* J = 12 */
(PID.TID 0000.0001)                 2.231767504724865E+05,      /* J = 13 */
(PID.TID 0000.0001)                 2.358430359672399E+05,      /* J = 14 */
(PID.TID 0000.0001)                 2.478628920936555E+05,      /* J = 15 */
(PID.TID 0000.0001)                 2.592033732615809E+05,      /* J = 16 */
(PID.TID 0000.0001)                 2.698333960004017E+05,      /* J = 17 */
(PID.TID 0000.0001)                 2.797238241566748E+05,      /* J = 18 */
(PID.TID 0000.0001)                 2.888475487542992E+05,      /* J = 19 */
(PID.TID 0000.0001)                 2.971795622983349E+05,      /* J = 20 */
(PID.TID 0000.0001)                 3.046970273188090E+05,      /* J = 21 */
(PID.TID 0000.0001)                 3.113793389666330E+05,      /* J = 22 */
(PID.TID 0000.0001)                 3.172081814900619E+05,      /* J = 23 */
(PID.TID 0000.0001)                 3.221675784368968E+05,      /* J = 24 */
(PID.TID 0000.0001)                 3.262439364448301E+05,      /* J = 25 */
(PID.TID 0000.0001)                 3.294260824999060E+05,      /* J = 26 */
(PID.TID 0000.0001)                 3.317052945609760E+05,      /* J = 27 */
(PID.TID 0000.0001)                 3.330753254662066E+05,      /* J = 28 */
(PID.TID 0000.0001)                 3.335324200561164E+05,      /* J = 29 */
(PID.TID 0000.0001)                 3.330753254662066E+05,      /* J = 30 */
(PID.TID 0000.0001)                 3.317052945609760E+05,      /* J = 31 */
(PID.TID 0000.0001)                 3.294260824999060E+05,      /* J = 32 */
(PID.TID 0000.0001)                 3.262439364448301E+05,      /* J = 33 */
(PID.TID 0000.0001)                 3.221675784368968E+05,      /* J = 34 */
(PID.TID 0000.0001)                 3.172081814900619E+05,      /* J = 35 */
(PID.TID 0000.0001)                 3.113793389666330E+05,      /* J = 36 */
(PID.TID 0000.0001)                 3.046970273188090E+05,      /* J = 37 */
(PID.TID 0000.0001)                 2.971795622983349E+05,      /* J = 38 */
(PID.TID 0000.0001)                 2.888475487542992E+05,      /* J = 39 */
(PID.TID 0000.0001)                 2.797238241566748E+05,      /* J = 40 */
(PID.TID 0000.0001)                 2.698333960004017E+05,      /* J = 41 */
(PID.TID 0000.0001)                 2.592033732615809E+05,      /* J = 42 */
(PID.TID 0000.0001)                 2.478628920936555E+05,      /* J = 43 */
(PID.TID 0000.0001)                 2.358430359672399E+05,      /* J = 44 */
(PID.TID 0000.0001)                 2.231767504724865E+05,      /* J = 45 */
(PID.TID 0000.0001)                 2.098987530175138E+05,      /* J = 46 */
(PID.TID 0000.0001)                 1.960454376704035E+05,      /* J = 47 */
(PID.TID 0000.0001)                 1.816547754055899E+05,      /* J = 48 */
(PID.TID 0000.0001)                 1.667662100280582E+05,      /* J = 49 */
(PID.TID 0000.0001)                 1.514205500606167E+05,      /* J = 50 */
(PID.TID 0000.0001)                 1.356598568905725E+05,      /* J = 51 */
(PID.TID 0000.0001)                 1.195273294823922E+05,      /* J = 52 */
(PID.TID 0000.0001)                 1.030671859723435E+05,      /* J = 53 */
(PID.TID 0000.0001)                 8.632454246965688E+04,      /* J = 54 */
(PID.TID 0000.0001)                 6.934528939640634E+04,      /* J = 55 */
(PID.TID 0000.0001)                 5.217596570505215E+04       /* J = 56 */
(PID.TID 0000.0001)     ;
(PID.TID 0000.0001) dyU =  /* dyU(:,1,:,1) ( m - cartesian, degrees - spherical ) */
(PID.TID 0000.0001)                 3.335324200561164E+05       /* I =  1 */
(PID.TID 0000.0001)     ;
(PID.TID 0000.0001) dyU =  /* dyU(1,:,1,:) ( m - cartesian, degrees - spherical ) */
(PID.TID 0000.0001)    56 @  3.335324200561164E+05              /* J =  1: 56 */
(PID.TID 0000.0001)     ;
(PID.TID 0000.0001) rA =  /* rA(:,1,:,1) ( m - cartesian, degrees - spherical ) */
(PID.TID 0000.0001)                 1.451858082901558E+10       /* I =  1 */
(PID.TID 0000.0001)     ;
(PID.TID 0000.0001) rA =  /* rA(1,:,1,:) ( m - cartesian, degrees - spherical ) */
(PID.TID 0000.0001)                 1.451858082901558E+10,      /* J =  1 */
(PID.TID 0000.0001)                 2.027027037083382E+10,      /* J =  2 */
(PID.TID 0000.0001)                 2.596640051053471E+10,      /* J =  3 */
(PID.TID 0000.0001)                 3.159135855133881E+10,      /* J =  4 */
(PID.TID 0000.0001)                 3.712972687424201E+10,      /* J =  5 */
(PID.TID 0000.0001)                 4.256632519663838E+10,      /* J =  6 */
(PID.TID 0000.0001)                 4.788625218042012E+10,      /* J =  7 */
(PID.TID 0000.0001)                 5.307492627550774E+10,      /* J =  8 */
(PID.TID 0000.0001)                 5.811812568686682E+10,      /* J =  9 */
(PID.TID 0000.0001)                 6.300202735546008E+10,      /* J = 10 */
(PID.TID 0000.0001)                 6.771324484628886E+10,      /* J = 11 */
(PID.TID 0000.0001)                 7.223886503968404E+10,      /* J = 12 */
(PID.TID 0000.0001)                 7.656648352526755E+10,      /* J = 13 */
(PID.TID 0000.0001)                 8.068423860157899E+10,      /* J = 14 */
(PID.TID 0000.0001)                 8.458084378817651E+10,      /* J = 15 */
(PID.TID 0000.0001)                 8.824561876109265E+10,      /* J = 16 */
(PID.TID 0000.0001)                 9.166851862686256E+10,      /* J = 17 */
(PID.TID 0000.0001)                 9.484016145487706E+10,      /* J = 18 */
(PID.TID 0000.0001)                 9.775185399260213E+10,      /* J = 19 */
(PID.TID 0000.0001)                 1.003956154931817E+11,      /* J = 20 */
(PID.TID 0000.0001)                 1.027641995901083E+11,      /* J = 21 */
(PID.TID 0000.0001)                 1.048511141590102E+11,      /* J = 22 */
(PID.TID 0000.0001)                 1.066506391121139E+11,      /* J = 23 */
(PID.TID 0000.0001)                 1.081578420766061E+11,      /* J = 24 */
(PID.TID 0000.0001)                 1.093685919139261E+11,      /* J = 25 */
(PID.TID 0000.0001)                 1.102795700429274E+11,      /* J = 26 */
(PID.TID 0000.0001)                 1.108882795358801E+11,      /* J = 27 */
(PID.TID 0000.0001)     2 @  1.111930519623746E+11,             /* J = 28: 29 */
(PID.TID 0000.0001)                 1.108882795358801E+11,      /* J = 30 */
(PID.TID 0000.0001)                 1.102795700429274E+11,      /* J = 31 */
(PID.TID 0000.0001)                 1.093685919139261E+11,      /* J = 32 */
(PID.TID 0000.0001)                 1.081578420766061E+11,      /* J = 33 */
(PID.TID 0000.0001)                 1.066506391121139E+11,      /* J = 34 */
(PID.TID 0000.0001)                 1.048511141590102E+11,      /* J = 35 */
(PID.TID 0000.0001)                 1.027641995901083E+11,      /* J = 36 */
(PID.TID 0000.0001)                 1.003956154931817E+11,      /* J = 37 */
(PID.TID 0000.0001)                 9.775185399260213E+10,      /* J = 38 */
(PID.TID 0000.0001)                 9.484016145487706E+10,      /* J = 39 */
(PID.TID 0000.0001)                 9.166851862686256E+10,      /* J = 40 */
(PID.TID 0000.0001)                 8.824561876109265E+10,      /* J = 41 */
(PID.TID 0000.0001)                 8.458084378817651E+10,      /* J = 42 */
(PID.TID 0000.0001)                 8.068423860157899E+10,      /* J = 43 */
(PID.TID 0000.0001)                 7.656648352526755E+10,      /* J = 44 */
(PID.TID 0000.0001)                 7.223886503968404E+10,      /* J = 45 */
(PID.TID 0000.0001)                 6.771324484628886E+10,      /* J = 46 */
(PID.TID 0000.0001)                 6.300202735546008E+10,      /* J = 47 */
(PID.TID 0000.0001)                 5.811812568686682E+10,      /* J = 48 */
(PID.TID 0000.0001)                 5.307492627550774E+10,      /* J = 49 */
(PID.TID 0000.0001)                 4.788625218042012E+10,      /* J = 50 */
(PID.TID 0000.0001)                 4.256632519663838E+10,      /* J = 51 */
(PID.TID 0000.0001)                 3.712972687424201E+10,      /* J = 52 */
(PID.TID 0000.0001)                 3.159135855133881E+10,      /* J = 53 */
(PID.TID 0000.0001)                 2.596640051053471E+10,      /* J = 54 */
(PID.TID 0000.0001)                 2.027027037083382E+10,      /* J = 55 */
(PID.TID 0000.0001)                 1.451858082901558E+10       /* J = 56 */
(PID.TID 0000.0001)     ;
(PID.TID 0000.0001) rAw =  /* rAw(:,1,:,1) ( m - cartesian, degrees - spherical ) */
(PID.TID 0000.0001)                 1.451858082901558E+10       /* I =  1 */
(PID.TID 0000.0001)     ;
(PID.TID 0000.0001) rAw =  /* rAw(1,:,1,:) ( m - cartesian, degrees - spherical ) */
(PID.TID 0000.0001)                 1.451858082901558E+10,      /* J =  1 */
(PID.TID 0000.0001)                 2.027027037083382E+10,      /* J =  2 */
(PID.TID 0000.0001)                 2.596640051053471E+10,      /* J =  3 */
(PID.TID 0000.0001)                 3.159135855133881E+10,      /* J =  4 */
(PID.TID 0000.0001)                 3.712972687424201E+10,      /* J =  5 */
(PID.TID 0000.0001)                 4.256632519663838E+10,      /* J =  6 */
(PID.TID 0000.0001)                 4.788625218042012E+10,      /* J =  7 */
(PID.TID 0000.0001)                 5.307492627550774E+10,      /* J =  8 */
(PID.TID 0000.0001)                 5.811812568686682E+10,      /* J =  9 */
(PID.TID 0000.0001)                 6.300202735546008E+10,      /* J = 10 */
(PID.TID 0000.0001)                 6.771324484628886E+10,      /* J = 11 */
(PID.TID 0000.0001)                 7.223886503968404E+10,      /* J = 12 */
(PID.TID 0000.0001)                 7.656648352526755E+10,      /* J = 13 */
(PID.TID 0000.0001)                 8.068423860157899E+10,      /* J = 14 */
(PID.TID 0000.0001)                 8.458084378817651E+10,      /* J = 15 */
(PID.TID 0000.0001)                 8.824561876109265E+10,      /* J = 16 */
(PID.TID 0000.0001)                 9.166851862686256E+10,      /* J = 17 */
(PID.TID 0000.0001)                 9.484016145487706E+10,      /* J = 18 */
(PID.TID 0000.0001)                 9.775185399260213E+10,      /* J = 19 */
(PID.TID 0000.0001)                 1.003956154931817E+11,      /* J = 20 */
(PID.TID 0000.0001)                 1.027641995901083E+11,      /* J = 21 */
(PID.TID 0000.0001)                 1.048511141590102E+11,      /* J = 22 */
(PID.TID 0000.0001)                 1.066506391121139E+11,      /* J = 23 */
(PID.TID 0000.0001)                 1.081578420766061E+11,      /* J = 24 */
(PID.TID 0000.0001)                 1.093685919139261E+11,      /* J = 25 */
(PID.TID 0000.0001)                 1.102795700429274E+11,      /* J = 26 */
(PID.TID 0000.0001)                 1.108882795358801E+11,      /* J = 27 */
(PID.TID 0000.0001)     2 @  1.111930519623746E+11,             /* J = 28: 29 */
(PID.TID 0000.0001)                 1.108882795358801E+11,      /* J = 30 */
(PID.TID 0000.0001)                 1.102795700429274E+11,      /* J = 31 */
(PID.TID 0000.0001)                 1.093685919139261E+11,      /* J = 32 */
(PID.TID 0000.0001)                 1.081578420766061E+11,      /* J = 33 */
(PID.TID 0000.0001)                 1.066506391121139E+11,      /* J = 34 */
(PID.TID 0000.0001)                 1.048511141590102E+11,      /* J = 35 */
(PID.TID 0000.0001)                 1.027641995901083E+11,      /* J = 36 */
(PID.TID 0000.0001)                 1.003956154931817E+11,      /* J = 37 */
(PID.TID 0000.0001)                 9.775185399260213E+10,      /* J = 38 */
(PID.TID 0000.0001)                 9.484016145487706E+10,      /* J = 39 */
(PID.TID 0000.0001)                 9.166851862686256E+10,      /* J = 40 */
(PID.TID 0000.0001)                 8.824561876109265E+10,      /* J = 41 */
(PID.TID 0000.0001)                 8.458084378817651E+10,      /* J = 42 */
(PID.TID 0000.0001)                 8.068423860157899E+10,      /* J = 43 */
(PID.TID 0000.0001)                 7.656648352526755E+10,      /* J = 44 */
(PID.TID 0000.0001)                 7.223886503968404E+10,      /* J = 45 */
(PID.TID 0000.0001)                 6.771324484628886E+10,      /* J = 46 */
(PID.TID 0000.0001)                 6.300202735546008E+10,      /* J = 47 */
(PID.TID 0000.0001)                 5.811812568686682E+10,      /* J = 48 */
(PID.TID 0000.0001)                 5.307492627550774E+10,      /* J = 49 */
(PID.TID 0000.0001)                 4.788625218042012E+10,      /* J = 50 */
(PID.TID 0000.0001)                 4.256632519663838E+10,      /* J = 51 */
(PID.TID 0000.0001)                 3.712972687424201E+10,      /* J = 52 */
(PID.TID 0000.0001)                 3.159135855133881E+10,      /* J = 53 */
(PID.TID 0000.0001)                 2.596640051053471E+10,      /* J = 54 */
(PID.TID 0000.0001)                 2.027027037083382E+10,      /* J = 55 */
(PID.TID 0000.0001)                 1.451858082901558E+10       /* J = 56 */
(PID.TID 0000.0001)     ;
(PID.TID 0000.0001) rAs =  /* rAs(:,1,:,1) ( m - cartesian, degrees - spherical ) */
(PID.TID 0000.0001)                 1.162682306954694E+10       /* I =  1 */
(PID.TID 0000.0001)     ;
(PID.TID 0000.0001) rAs =  /* rAs(1,:,1,:) ( m - cartesian, degrees - spherical ) */
(PID.TID 0000.0001)                 1.162682306954694E+10,      /* J =  1 */
(PID.TID 0000.0001)                 1.740038827840324E+10,      /* J =  2 */
(PID.TID 0000.0001)                 2.312626023247475E+10,      /* J =  3 */
(PID.TID 0000.0001)                 2.878874471473562E+10,      /* J =  4 */
(PID.TID 0000.0001)                 3.437232124881435E+10,      /* J =  5 */
(PID.TID 0000.0001)                 3.986168563954114E+10,      /* J =  6 */
(PID.TID 0000.0001)                 4.524179192068160E+10,      /* J =  7 */
(PID.TID 0000.0001)                 5.049789359488565E+10,      /* J =  8 */
(PID.TID 0000.0001)                 5.561558405281209E+10,      /* J =  9 */
(PID.TID 0000.0001)                 6.058083606064128E+10,      /* J = 10 */
(PID.TID 0000.0001)                 6.538004020775066E+10,      /* J = 11 */
(PID.TID 0000.0001)                 7.000004220916162E+10,      /* J = 12 */
(PID.TID 0000.0001)                 7.442817896052023E+10,      /* J = 13 */
(PID.TID 0000.0001)                 7.865231324678767E+10,      /* J = 14 */
(PID.TID 0000.0001)                 8.266086700950061E+10,      /* J = 15 */
(PID.TID 0000.0001)                 8.644285308142708E+10,      /* J = 16 */
(PID.TID 0000.0001)                 8.998790530162659E+10,      /* J = 17 */
(PID.TID 0000.0001)                 9.328630692837657E+10,      /* J = 18 */
(PID.TID 0000.0001)                 9.632901727208775E+10,      /* J = 19 */
(PID.TID 0000.0001)                 9.910769647520413E+10,      /* J = 20 */
(PID.TID 0000.0001)                 1.016147283711734E+11,      /* J = 21 */
(PID.TID 0000.0001)                 1.038432413598305E+11,      /* J = 22 */
(PID.TID 0000.0001)                 1.057871272419753E+11,      /* J = 23 */
(PID.TID 0000.0001)                 1.074410579615232E+11,      /* J = 24 */
(PID.TID 0000.0001)                 1.088005002093347E+11,      /* J = 25 */
(PID.TID 0000.0001)                 1.098617278487026E+11,      /* J = 26 */
(PID.TID 0000.0001)                 1.106218321284322E+11,      /* J = 27 */
(PID.TID 0000.0001)                 1.110787296555271E+11,      /* J = 28 */
(PID.TID 0000.0001)                 1.112311681056240E+11,      /* J = 29 */
(PID.TID 0000.0001)                 1.110787296555271E+11,      /* J = 30 */
(PID.TID 0000.0001)                 1.106218321284322E+11,      /* J = 31 */
(PID.TID 0000.0001)                 1.098617278487026E+11,      /* J = 32 */
(PID.TID 0000.0001)                 1.088005002093347E+11,      /* J = 33 */
(PID.TID 0000.0001)                 1.074410579615232E+11,      /* J = 34 */
(PID.TID 0000.0001)                 1.057871272419753E+11,      /* J = 35 */
(PID.TID 0000.0001)                 1.038432413598305E+11,      /* J = 36 */
(PID.TID 0000.0001)                 1.016147283711734E+11,      /* J = 37 */
(PID.TID 0000.0001)                 9.910769647520413E+10,      /* J = 38 */
(PID.TID 0000.0001)                 9.632901727208775E+10,      /* J = 39 */
(PID.TID 0000.0001)                 9.328630692837657E+10,      /* J = 40 */
(PID.TID 0000.0001)                 8.998790530162659E+10,      /* J = 41 */
(PID.TID 0000.0001)                 8.644285308142708E+10,      /* J = 42 */
(PID.TID 0000.0001)                 8.266086700950061E+10,      /* J = 43 */
(PID.TID 0000.0001)                 7.865231324678767E+10,      /* J = 44 */
(PID.TID 0000.0001)                 7.442817896052023E+10,      /* J = 45 */
(PID.TID 0000.0001)                 7.000004220916162E+10,      /* J = 46 */
(PID.TID 0000.0001)                 6.538004020775066E+10,      /* J = 47 */
(PID.TID 0000.0001)                 6.058083606064128E+10,      /* J = 48 */
(PID.TID 0000.0001)                 5.561558405281209E+10,      /* J = 49 */
(PID.TID 0000.0001)                 5.049789359488565E+10,      /* J = 50 */
(PID.TID 0000.0001)                 4.524179192068160E+10,      /* J = 51 */
(PID.TID 0000.0001)                 3.986168563954114E+10,      /* J = 52 */
(PID.TID 0000.0001)                 3.437232124881435E+10,      /* J = 53 */
(PID.TID 0000.0001)                 2.878874471473562E+10,      /* J = 54 */
(PID.TID 0000.0001)                 2.312626023247475E+10,      /* J = 55 */
(PID.TID 0000.0001)                 1.740038827840324E+10       /* J = 56 */
(PID.TID 0000.0001)     ;
(PID.TID 0000.0001) 
(PID.TID 0000.0001)  MDSREADFIELD: opening global file: pickup.0000036000
(PID.TID 0000.0001)  MDSREADFIELD: opening global file: pickup.0000036000
(PID.TID 0000.0001)  MDSREADFIELD: opening global file: pickup.0000036000
(PID.TID 0000.0001)  MDSREADFIELD: opening global file: pickup.0000036000
(PID.TID 0000.0001)  MDSREADFIELD: opening global file: pickup.0000036000
(PID.TID 0000.0001)  MDSREADFIELD: opening global file: pickup.0000036000
(PID.TID 0000.0001)  MDSREADFIELD: opening global file: pickup.0000036000
(PID.TID 0000.0001)  MDSREADFIELD: opening global file: pickup.0000036000
(PID.TID 0000.0001)  MDSREADFIELD: opening global file: pickup.0000036000
(PID.TID 0000.0001)  MDSREADFIELD: opening global file: pickup.0000036000
(PID.TID 0000.0001)  MDSREADFIELD: opening global file: pickup.0000036000
(PID.TID 0000.0001)  MDSREADFIELD: opening global file: pickup.0000036000
(PID.TID 0000.0001)  MDSREADFIELD: opening global file: pickup.0000036000
(PID.TID 0000.0001)  MDSREADFIELD: opening global file: pickup_cd.0000036000
(PID.TID 0000.0001)  MDSREADFIELD: opening global file: pickup_cd.0000036000
(PID.TID 0000.0001)  MDSREADFIELD: opening global file: pickup_cd.0000036000
(PID.TID 0000.0001)  MDSREADFIELD: opening global file: pickup_cd.0000036000
(PID.TID 0000.0001)  MDSREADFIELD: opening global file: pickup_cd.0000036000
(PID.TID 0000.0001)  MDSREADFIELD: opening global file: pickup_cd.0000036000
(PID.TID 0000.0001)  MDSREADFIELD: opening global file: pickup_cd.0000036000
(PID.TID 0000.0001)  MDSREADFIELD: opening global file: taux_sl.bin
(PID.TID 0000.0001)  MDSREADFIELD: opening global file: sst_sl.bin
(PID.TID 0000.0001) // =======================================================
(PID.TID 0000.0001) // Model current state
(PID.TID 0000.0001) // =======================================================
(PID.TID 0000.0001) 
(PID.TID 0000.0001) // =======================================================
(PID.TID 0000.0001) // Begin MONITOR dynamic field statistics
(PID.TID 0000.0001) // =======================================================
(PID.TID 0000.0001) %MON time_tsnumber                =                 36000
(PID.TID 0000.0001) %MON time_secondsf                =   3.1104000000000E+09
(PID.TID 0000.0001) %MON dynstat_eta_max              =   1.6201005177854E+00
(PID.TID 0000.0001) %MON dynstat_eta_min              =  -3.9377441396023E+00
(PID.TID 0000.0001) %MON dynstat_eta_mean             =   4.4711632489218E-17
(PID.TID 0000.0001) %MON dynstat_eta_sd               =   1.6563991723224E+00
(PID.TID 0000.0001) %MON dynstat_eta_del2             =   1.3977066220033E-02
(PID.TID 0000.0001) %MON dynstat_uvel_max             =   1.4272657430544E-01
(PID.TID 0000.0001) %MON dynstat_uvel_min             =  -3.8630916679110E-01
(PID.TID 0000.0001) %MON dynstat_uvel_mean            =   1.2659893360806E-02
(PID.TID 0000.0001) %MON dynstat_uvel_sd              =   3.8710511996223E-02
(PID.TID 0000.0001) %MON dynstat_uvel_del2            =   6.1842820168116E-04
(PID.TID 0000.0001) %MON dynstat_vvel_max             =   2.2999750655636E-02
(PID.TID 0000.0001) %MON dynstat_vvel_min             =  -2.2999750655604E-02
(PID.TID 0000.0001) %MON dynstat_vvel_mean            =   1.0386416238937E-15
(PID.TID 0000.0001) %MON dynstat_vvel_sd              =   1.5486266626369E-03
(PID.TID 0000.0001) %MON dynstat_vvel_del2            =   7.2795151559418E-05
(PID.TID 0000.0001) %MON dynstat_wvel_max             =   1.3691712526229E-06
(PID.TID 0000.0001) %MON dynstat_wvel_min             =  -8.1261601801594E-07
(PID.TID 0000.0001) %MON dynstat_wvel_mean            =   4.9424144363026E-24
(PID.TID 0000.0001) %MON dynstat_wvel_sd              =   2.5358259198888E-07
(PID.TID 0000.0001) %MON dynstat_wvel_del2            =   3.6741344623394E-08
(PID.TID 0000.0001) %MON dynstat_theta_max            =   2.6657021468384E+01
(PID.TID 0000.0001) %MON dynstat_theta_min            =  -9.3075890930299E-01
(PID.TID 0000.0001) %MON dynstat_theta_mean           =   2.2239378147708E+00
(PID.TID 0000.0001) %MON dynstat_theta_sd             =   3.9264791989428E+00
(PID.TID 0000.0001) %MON dynstat_theta_del2           =   4.1714222085658E-02
(PID.TID 0000.0001) %MON dynstat_salt_max             =   3.4700000000000E+01
(PID.TID 0000.0001) %MON dynstat_salt_min             =   3.4700000000000E+01
(PID.TID 0000.0001) %MON dynstat_salt_mean            =   3.4700000000000E+01
(PID.TID 0000.0001) %MON dynstat_salt_sd              =   4.9737991503207E-14
(PID.TID 0000.0001) %MON dynstat_salt_del2            =   0.0000000000000E+00
(PID.TID 0000.0001) %MON advcfl_uvel_max              =   1.0010587105295E-01
(PID.TID 0000.0001) %MON advcfl_vvel_max              =   5.9579769076500E-03
(PID.TID 0000.0001) %MON advcfl_wvel_max              =   1.9716066037770E-03
(PID.TID 0000.0001) %MON advcfl_W_hf_max              =   5.9148198113310E-03
(PID.TID 0000.0001) %MON ke_max                       =   7.4646746291426E-02
(PID.TID 0000.0001) %MON ke_mean                      =   2.4045665119895E-03
(PID.TID 0000.0001) %MON ke_volint                    =   1.8128543399903E+13
(PID.TID 0000.0001) %MON ke_volmean                   =   8.3067694548141E-04
(PID.TID 0000.0001) %MON ke_vol                       =   2.1823819113454E+16
(PID.TID 0000.0001) %MON surfExpan_theta_mean         =   8.7743901385973E-09
(PID.TID 0000.0001) %MON surfExpan_salt_mean          =  -2.4817111820948E-22
(PID.TID 0000.0001) // =======================================================
(PID.TID 0000.0001) // End MONITOR dynamic field statistics
(PID.TID 0000.0001) // =======================================================
 cg2d: Sum(rhs),rhsMax =   4.55191440096314E-15  1.48307767331534E+00
(PID.TID 0000.0001)                    cg2d_init_res =    1.79594881151790E-05
(PID.TID 0000.0001)                       cg2d_iters =    24
(PID.TID 0000.0001)                         cg2d_res =    8.99731424745539E-13
(PID.TID 0000.0001) // =======================================================
(PID.TID 0000.0001) // Begin MONITOR dynamic field statistics
(PID.TID 0000.0001) // =======================================================
(PID.TID 0000.0001) %MON time_tsnumber                =                 36001
(PID.TID 0000.0001) %MON time_secondsf                =   3.1104864000000E+09
(PID.TID 0000.0001) %MON dynstat_eta_max              =   1.6201018367451E+00
(PID.TID 0000.0001) %MON dynstat_eta_min              =  -3.9377449262481E+00
(PID.TID 0000.0001) %MON dynstat_eta_mean             =  -8.4415034957536E-17
(PID.TID 0000.0001) %MON dynstat_eta_sd               =   1.6564013269824E+00
(PID.TID 0000.0001) %MON dynstat_eta_del2             =   1.3977075793537E-02
(PID.TID 0000.0001) %MON dynstat_uvel_max             =   1.4272679500761E-01
(PID.TID 0000.0001) %MON dynstat_uvel_min             =  -3.8630886769038E-01
(PID.TID 0000.0001) %MON dynstat_uvel_mean            =   1.2660117066392E-02
(PID.TID 0000.0001) %MON dynstat_uvel_sd              =   3.8710446201736E-02
(PID.TID 0000.0001) %MON dynstat_uvel_del2            =   6.1842771919471E-04
(PID.TID 0000.0001) %MON dynstat_vvel_max             =   2.2999749263350E-02
(PID.TID 0000.0001) %MON dynstat_vvel_min             =  -2.2999749263318E-02
(PID.TID 0000.0001) %MON dynstat_vvel_mean            =   8.4509677060639E-16
(PID.TID 0000.0001) %MON dynstat_vvel_sd              =   1.5486270866645E-03
(PID.TID 0000.0001) %MON dynstat_vvel_del2            =   7.2795296465861E-05
(PID.TID 0000.0001) %MON dynstat_wvel_max             =   1.3691698738201E-06
(PID.TID 0000.0001) %MON dynstat_wvel_min             =  -8.1261603486611E-07
(PID.TID 0000.0001) %MON dynstat_wvel_mean            =   6.3937475422323E-24
(PID.TID 0000.0001) %MON dynstat_wvel_sd              =   2.5358285363536E-07
(PID.TID 0000.0001) %MON dynstat_wvel_del2            =   3.6741082610873E-08
(PID.TID 0000.0001) %MON dynstat_theta_max            =   2.6657021048099E+01
(PID.TID 0000.0001) %MON dynstat_theta_min            =  -9.3075955906215E-01
(PID.TID 0000.0001) %MON dynstat_theta_mean           =   2.2239290524752E+00
(PID.TID 0000.0001) %MON dynstat_theta_sd             =   3.9264801273832E+00
(PID.TID 0000.0001) %MON dynstat_theta_del2           =   4.1714249845538E-02
(PID.TID 0000.0001) %MON dynstat_salt_max             =   3.4700000000000E+01
(PID.TID 0000.0001) %MON dynstat_salt_min             =   3.4700000000000E+01
(PID.TID 0000.0001) %MON dynstat_salt_mean            =   3.4700000000000E+01
(PID.TID 0000.0001) %MON dynstat_salt_sd              =   4.9737991503207E-14
(PID.TID 0000.0001) %MON dynstat_salt_del2            =   0.0000000000000E+00
(PID.TID 0000.0001) %MON advcfl_uvel_max              =   1.0010579354576E-01
(PID.TID 0000.0001) %MON advcfl_vvel_max              =   5.9579765469850E-03
(PID.TID 0000.0001) %MON advcfl_wvel_max              =   1.9716046183010E-03
(PID.TID 0000.0001) %MON advcfl_W_hf_max              =   5.9148138549030E-03
(PID.TID 0000.0001) %MON ke_max                       =   7.4646630692379E-02
(PID.TID 0000.0001) %MON ke_mean                      =   2.4045636528615E-03
(PID.TID 0000.0001) %MON ke_volint                    =   1.8128549638549E+13
(PID.TID 0000.0001) %MON ke_volmean                   =   8.3067723134552E-04
(PID.TID 0000.0001) %MON ke_vol                       =   2.1823819113454E+16
(PID.TID 0000.0001) %MON surfExpan_theta_mean         =   8.7739586963388E-09
(PID.TID 0000.0001) %MON surfExpan_salt_mean          =   5.5799761797650E-22
(PID.TID 0000.0001) // =======================================================
(PID.TID 0000.0001) // End MONITOR dynamic field statistics
(PID.TID 0000.0001) // =======================================================
 cg2d: Sum(rhs),rhsMax =   5.55111512312578E-15  1.48307883752151E+00
(PID.TID 0000.0001)                    cg2d_init_res =    1.79587437261515E-05
(PID.TID 0000.0001)                       cg2d_iters =    24
(PID.TID 0000.0001)                         cg2d_res =    9.01640940870332E-13
(PID.TID 0000.0001) // =======================================================
(PID.TID 0000.0001) // Begin MONITOR dynamic field statistics
(PID.TID 0000.0001) // =======================================================
(PID.TID 0000.0001) %MON time_tsnumber                =                 36002
(PID.TID 0000.0001) %MON time_secondsf                =   3.1105728000000E+09
(PID.TID 0000.0001) %MON dynstat_eta_max              =   1.6201031556154E+00
(PID.TID 0000.0001) %MON dynstat_eta_min              =  -3.9377457127536E+00
(PID.TID 0000.0001) %MON dynstat_eta_mean             =  -2.4603952529172E-16
(PID.TID 0000.0001) %MON dynstat_eta_sd               =   1.6564034815184E+00
(PID.TID 0000.0001) %MON dynstat_eta_del2             =   1.3977085366448E-02
(PID.TID 0000.0001) %MON dynstat_uvel_max             =   1.4272701569782E-01
(PID.TID 0000.0001) %MON dynstat_uvel_min             =  -3.8630856859517E-01
(PID.TID 0000.0001) %MON dynstat_uvel_mean            =   1.2660340767532E-02
(PID.TID 0000.0001) %MON dynstat_uvel_sd              =   3.8710380408472E-02
(PID.TID 0000.0001) %MON dynstat_uvel_del2            =   6.1842723654982E-04
(PID.TID 0000.0001) %MON dynstat_vvel_max             =   2.2999747868515E-02
(PID.TID 0000.0001) %MON dynstat_vvel_min             =  -2.2999747868483E-02
(PID.TID 0000.0001) %MON dynstat_vvel_mean            =   1.4023332787024E-15
(PID.TID 0000.0001) %MON dynstat_vvel_sd              =   1.5486275106148E-03
(PID.TID 0000.0001) %MON dynstat_vvel_del2            =   7.2795441266073E-05
(PID.TID 0000.0001) %MON dynstat_wvel_max             =   1.3691684952201E-06
(PID.TID 0000.0001) %MON dynstat_wvel_min             =  -8.1261605167855E-07
(PID.TID 0000.0001) %MON dynstat_wvel_mean            =  -5.6902320102260E-26
(PID.TID 0000.0001) %MON dynstat_wvel_sd              =   2.5358311472729E-07
(PID.TID 0000.0001) %MON dynstat_wvel_del2            =   3.6740820326366E-08
(PID.TID 0000.0001) %MON dynstat_theta_max            =   2.6657020627827E+01
(PID.TID 0000.0001) %MON dynstat_theta_min            =  -9.3076020875770E-01
(PID.TID 0000.0001) %MON dynstat_theta_mean           =   2.2239202903328E+00
(PID.TID 0000.0001) %MON dynstat_theta_sd             =   3.9264810557865E+00
(PID.TID 0000.0001) %MON dynstat_theta_del2           =   4.1714277590215E-02
(PID.TID 0000.0001) %MON dynstat_salt_max             =   3.4700000000000E+01
(PID.TID 0000.0001) %MON dynstat_salt_min             =   3.4700000000000E+01
(PID.TID 0000.0001) %MON dynstat_salt_mean            =   3.4700000000000E+01
(PID.TID 0000.0001) %MON dynstat_salt_sd              =   4.9737991503207E-14
(PID.TID 0000.0001) %MON dynstat_salt_del2            =   0.0000000000000E+00
(PID.TID 0000.0001) %MON advcfl_uvel_max              =   1.0010571604000E-01
(PID.TID 0000.0001) %MON advcfl_vvel_max              =   5.9579761856595E-03
(PID.TID 0000.0001) %MON advcfl_wvel_max              =   1.9716026331169E-03
(PID.TID 0000.0001) %MON advcfl_W_hf_max              =   5.9148078993507E-03
(PID.TID 0000.0001) %MON ke_max                       =   7.4646515095558E-02
(PID.TID 0000.0001) %MON ke_mean                      =   2.4045607937793E-03
(PID.TID 0000.0001) %MON ke_volint                    =   1.8128555878186E+13
(PID.TID 0000.0001) %MON ke_volmean                   =   8.3067751725500E-04
(PID.TID 0000.0001) %MON ke_vol                       =   2.1823819113454E+16
(PID.TID 0000.0001) %MON surfExpan_theta_mean         =   8.7735272239250E-09
(PID.TID 0000.0001) %MON surfExpan_salt_mean          =  -1.1907835834664E-23
(PID.TID 0000.0001) // =======================================================
(PID.TID 0000.0001) // End MONITOR dynamic field statistics
(PID.TID 0000.0001) // =======================================================
 cg2d: Sum(rhs),rhsMax =   1.22124532708767E-15  1.48308000164751E+00
(PID.TID 0000.0001)                    cg2d_init_res =    1.79579992547647E-05
(PID.TID 0000.0001)                       cg2d_iters =    24
(PID.TID 0000.0001)                         cg2d_res =    9.03367323329239E-13
(PID.TID 0000.0001) // =======================================================
(PID.TID 0000.0001) // Begin MONITOR dynamic field statistics
(PID.TID 0000.0001) // =======================================================
(PID.TID 0000.0001) %MON time_tsnumber                =                 36003
(PID.TID 0000.0001) %MON time_secondsf                =   3.1106592000000E+09
(PID.TID 0000.0001) %MON dynstat_eta_max              =   1.6201044743960E+00
(PID.TID 0000.0001) %MON dynstat_eta_min              =  -3.9377464991155E+00
(PID.TID 0000.0001) %MON dynstat_eta_mean             =  -1.2209719395780E-16
(PID.TID 0000.0001) %MON dynstat_eta_sd               =   1.6564056359302E+00
(PID.TID 0000.0001) %MON dynstat_eta_del2             =   1.3977094938736E-02
(PID.TID 0000.0001) %MON dynstat_uvel_max             =   1.4272723637627E-01
(PID.TID 0000.0001) %MON dynstat_uvel_min             =  -3.8630826950547E-01
(PID.TID 0000.0001) %MON dynstat_uvel_mean            =   1.2660564464225E-02
(PID.TID 0000.0001) %MON dynstat_uvel_sd              =   3.8710314616442E-02
(PID.TID 0000.0001) %MON dynstat_uvel_del2            =   6.1842675374663E-04
(PID.TID 0000.0001) %MON dynstat_vvel_max             =   2.2999746471059E-02
(PID.TID 0000.0001) %MON dynstat_vvel_min             =  -2.2999746471026E-02
(PID.TID 0000.0001) %MON dynstat_vvel_mean            =   1.8232754212036E-15
(PID.TID 0000.0001) %MON dynstat_vvel_sd              =   1.5486279344882E-03
(PID.TID 0000.0001) %MON dynstat_vvel_del2            =   7.2795585961217E-05
(PID.TID 0000.0001) %MON dynstat_wvel_max             =   1.3691671168249E-06
(PID.TID 0000.0001) %MON dynstat_wvel_min             =  -8.1261606845284E-07
(PID.TID 0000.0001) %MON dynstat_wvel_mean            =   6.6021212915821E-24
(PID.TID 0000.0001) %MON dynstat_wvel_sd              =   2.5358337526395E-07
(PID.TID 0000.0001) %MON dynstat_wvel_del2            =   3.6740557777884E-08
(PID.TID 0000.0001) %MON dynstat_theta_max            =   2.6657020207569E+01
(PID.TID 0000.0001) %MON dynstat_theta_min            =  -9.3076085837928E-01
(PID.TID 0000.0001) %MON dynstat_theta_mean           =   2.2239115283436E+00
(PID.TID 0000.0001) %MON dynstat_theta_sd             =   3.9264819841527E+00
(PID.TID 0000.0001) %MON dynstat_theta_del2           =   4.1714305319705E-02
(PID.TID 0000.0001) %MON dynstat_salt_max             =   3.4700000000000E+01
(PID.TID 0000.0001) %MON dynstat_salt_min             =   3.4700000000000E+01
(PID.TID 0000.0001) %MON dynstat_salt_mean            =   3.4700000000000E+01
(PID.TID 0000.0001) %MON dynstat_salt_sd              =   4.9737991503207E-14
(PID.TID 0000.0001) %MON dynstat_salt_del2            =   0.0000000000000E+00
(PID.TID 0000.0001) %MON advcfl_uvel_max              =   1.0010563853566E-01
(PID.TID 0000.0001) %MON advcfl_vvel_max              =   5.9579758236550E-03
(PID.TID 0000.0001) %MON advcfl_wvel_max              =   1.9716006482278E-03
(PID.TID 0000.0001) %MON advcfl_W_hf_max              =   5.9148019446834E-03
(PID.TID 0000.0001) %MON ke_max                       =   7.4646399500962E-02
(PID.TID 0000.0001) %MON ke_mean                      =   2.4045579347442E-03
(PID.TID 0000.0001) %MON ke_volint                    =   1.8128562118820E+13
(PID.TID 0000.0001) %MON ke_volmean                   =   8.3067780321018E-04
(PID.TID 0000.0001) %MON ke_vol                       =   2.1823819113454E+16
(PID.TID 0000.0001) %MON surfExpan_theta_mean         =   8.7730957125844E-09
(PID.TID 0000.0001) %MON surfExpan_salt_mean          =  -9.2978398878141E-23
(PID.TID 0000.0001) // =======================================================
(PID.TID 0000.0001) // End MONITOR dynamic field statistics
(PID.TID 0000.0001) // =======================================================
 cg2d: Sum(rhs),rhsMax =   1.44328993201270E-15  1.48308116569307E+00
(PID.TID 0000.0001)                    cg2d_init_res =    1.79572546789641E-05
(PID.TID 0000.0001)                       cg2d_iters =    24
(PID.TID 0000.0001)                         cg2d_res =    9.04920308278984E-13
(PID.TID 0000.0001) // =======================================================
(PID.TID 0000.0001) // Begin MONITOR dynamic field statistics
(PID.TID 0000.0001) // =======================================================
(PID.TID 0000.0001) %MON time_tsnumber                =                 36004
(PID.TID 0000.0001) %MON time_secondsf                =   3.1107456000000E+09
(PID.TID 0000.0001) %MON dynstat_eta_max              =   1.6201057930868E+00
(PID.TID 0000.0001) %MON dynstat_eta_min              =  -3.9377472853346E+00
(PID.TID 0000.0001) %MON dynstat_eta_mean             =  -7.5869912909626E-17
(PID.TID 0000.0001) %MON dynstat_eta_sd               =   1.6564077902178E+00
(PID.TID 0000.0001) %MON dynstat_eta_del2             =   1.3977104510465E-02
(PID.TID 0000.0001) %MON dynstat_uvel_max             =   1.4272745704315E-01
(PID.TID 0000.0001) %MON dynstat_uvel_min             =  -3.8630797042127E-01
(PID.TID 0000.0001) %MON dynstat_uvel_mean            =   1.2660788156472E-02
(PID.TID 0000.0001) %MON dynstat_uvel_sd              =   3.8710248825654E-02
(PID.TID 0000.0001) %MON dynstat_uvel_del2            =   6.1842627078506E-04
(PID.TID 0000.0001) %MON dynstat_vvel_max             =   2.2999745070919E-02
(PID.TID 0000.0001) %MON dynstat_vvel_min             =  -2.2999745070885E-02
(PID.TID 0000.0001) %MON dynstat_vvel_mean            =   2.0176255327641E-15
(PID.TID 0000.0001) %MON dynstat_vvel_sd              =   1.5486283582852E-03
(PID.TID 0000.0001) %MON dynstat_vvel_del2            =   7.2795730551116E-05
(PID.TID 0000.0001) %MON dynstat_wvel_max             =   1.3691657386353E-06
(PID.TID 0000.0001) %MON dynstat_wvel_min             =  -8.1261608519297E-07
(PID.TID 0000.0001) %MON dynstat_wvel_mean            =  -6.1052145763428E-24
(PID.TID 0000.0001) %MON dynstat_wvel_sd              =   2.5358363522898E-07
(PID.TID 0000.0001) %MON dynstat_wvel_del2            =   3.6740294941965E-08
(PID.TID 0000.0001) %MON dynstat_theta_max            =   2.6657019787326E+01
(PID.TID 0000.0001) %MON dynstat_theta_min            =  -9.3076150793737E-01
(PID.TID 0000.0001) %MON dynstat_theta_mean           =   2.2239027665075E+00
(PID.TID 0000.0001) %MON dynstat_theta_sd             =   3.9264829124819E+00
(PID.TID 0000.0001) %MON dynstat_theta_del2           =   4.1714333034018E-02
(PID.TID 0000.0001) %MON dynstat_salt_max             =   3.4700000000000E+01
(PID.TID 0000.0001) %MON dynstat_salt_min             =   3.4700000000000E+01
(PID.TID 0000.0001) %MON dynstat_salt_mean            =   3.4700000000000E+01
(PID.TID 0000.0001) %MON dynstat_salt_sd              =   4.9737991503207E-14
(PID.TID 0000.0001) %MON dynstat_salt_del2            =   0.0000000000000E+00
(PID.TID 0000.0001) %MON advcfl_uvel_max              =   1.0010556103275E-01
(PID.TID 0000.0001) %MON advcfl_vvel_max              =   5.9579754609553E-03
(PID.TID 0000.0001) %MON advcfl_wvel_max              =   1.9715986636348E-03
(PID.TID 0000.0001) %MON advcfl_W_hf_max              =   5.9147959909045E-03
(PID.TID 0000.0001) %MON ke_max                       =   7.4646283908590E-02
(PID.TID 0000.0001) %MON ke_mean                      =   2.4045550757578E-03
(PID.TID 0000.0001) %MON ke_volint                    =   1.8128568360459E+13
(PID.TID 0000.0001) %MON ke_volmean                   =   8.3067808921141E-04
(PID.TID 0000.0001) %MON ke_vol                       =   2.1823819113454E+16
(PID.TID 0000.0001) %MON surfExpan_theta_mean         =   8.7726641559934E-09
(PID.TID 0000.0001) %MON surfExpan_salt_mean          =  -1.0191464581068E-23
(PID.TID 0000.0001) // =======================================================
(PID.TID 0000.0001) // End MONITOR dynamic field statistics
(PID.TID 0000.0001) // =======================================================
 cg2d: Sum(rhs),rhsMax =   5.10702591327572E-15  1.48308232965795E+00
(PID.TID 0000.0001)                    cg2d_init_res =    1.79565099783763E-05
(PID.TID 0000.0001)                       cg2d_iters =    24
(PID.TID 0000.0001)                         cg2d_res =    9.06310858733800E-13
(PID.TID 0000.0001) // =======================================================
(PID.TID 0000.0001) // Begin MONITOR dynamic field statistics
(PID.TID 0000.0001) // =======================================================
(PID.TID 0000.0001) %MON time_tsnumber                =                 36005
(PID.TID 0000.0001) %MON time_secondsf                =   3.1108320000000E+09
(PID.TID 0000.0001) %MON dynstat_eta_max              =   1.6201071116877E+00
(PID.TID 0000.0001) %MON dynstat_eta_min              =  -3.9377480714131E+00
(PID.TID 0000.0001) %MON dynstat_eta_mean             =  -2.1181018186167E-16
(PID.TID 0000.0001) %MON dynstat_eta_sd               =   1.6564099443812E+00
(PID.TID 0000.0001) %MON dynstat_eta_del2             =   1.3977114081656E-02
(PID.TID 0000.0001) %MON dynstat_uvel_max             =   1.4272767769865E-01
(PID.TID 0000.0001) %MON dynstat_uvel_min             =  -3.8630767134257E-01
(PID.TID 0000.0001) %MON dynstat_uvel_mean            =   1.2661011844273E-02
(PID.TID 0000.0001) %MON dynstat_uvel_sd              =   3.8710183036118E-02
(PID.TID 0000.0001) %MON dynstat_uvel_del2            =   6.1842578766507E-04
(PID.TID 0000.0001) %MON dynstat_vvel_max             =   2.2999743668041E-02
(PID.TID 0000.0001) %MON dynstat_vvel_min             =  -2.2999743668006E-02
(PID.TID 0000.0001) %MON dynstat_vvel_mean            =   2.2615495681312E-15
(PID.TID 0000.0001) %MON dynstat_vvel_sd              =   1.5486287820067E-03
(PID.TID 0000.0001) %MON dynstat_vvel_del2            =   7.2795875035576E-05
(PID.TID 0000.0001) %MON dynstat_wvel_max             =   1.3691643606504E-06
(PID.TID 0000.0001) %MON dynstat_wvel_min             =  -8.1261610189811E-07
(PID.TID 0000.0001) %MON dynstat_wvel_mean            =   6.8601365624345E-24
(PID.TID 0000.0001) %MON dynstat_wvel_sd              =   2.5358389461483E-07
(PID.TID 0000.0001) %MON dynstat_wvel_del2            =   3.6740031819396E-08
(PID.TID 0000.0001) %MON dynstat_theta_max            =   2.6657019367100E+01
(PID.TID 0000.0001) %MON dynstat_theta_min            =  -9.3076215743460E-01
(PID.TID 0000.0001) %MON dynstat_theta_mean           =   2.2238940048245E+00
(PID.TID 0000.0001) %MON dynstat_theta_sd             =   3.9264838407740E+00
(PID.TID 0000.0001) %MON dynstat_theta_del2           =   4.1714360733168E-02
(PID.TID 0000.0001) %MON dynstat_salt_max             =   3.4700000000000E+01
(PID.TID 0000.0001) %MON dynstat_salt_min             =   3.4700000000000E+01
(PID.TID 0000.0001) %MON dynstat_salt_mean            =   3.4700000000000E+01
(PID.TID 0000.0001) %MON dynstat_salt_sd              =   4.9737991503207E-14
(PID.TID 0000.0001) %MON dynstat_salt_del2            =   0.0000000000000E+00
(PID.TID 0000.0001) %MON advcfl_uvel_max              =   1.0010548353127E-01
(PID.TID 0000.0001) %MON advcfl_vvel_max              =   5.9579750975463E-03
(PID.TID 0000.0001) %MON advcfl_wvel_max              =   1.9715966793366E-03
(PID.TID 0000.0001) %MON advcfl_W_hf_max              =   5.9147900380099E-03
(PID.TID 0000.0001) %MON ke_max                       =   7.4646168318439E-02
(PID.TID 0000.0001) %MON ke_mean                      =   2.4045522168213E-03
(PID.TID 0000.0001) %MON ke_volint                    =   1.8128574603111E+13
(PID.TID 0000.0001) %MON ke_volmean                   =   8.3067837525902E-04
(PID.TID 0000.0001) %MON ke_vol                       =   2.1823819113454E+16
(PID.TID 0000.0001) %MON surfExpan_theta_mean         =   8.7722325489014E-09
(PID.TID 0000.0001) %MON surfExpan_salt_mean          =  -1.5699478663493E-22
(PID.TID 0000.0001) // =======================================================
(PID.TID 0000.0001) // End MONITOR dynamic field statistics
(PID.TID 0000.0001) // =======================================================
 cg2d: Sum(rhs),rhsMax =   3.55271367880050E-15  1.48308349354194E+00
(PID.TID 0000.0001)                    cg2d_init_res =    1.79557651317980E-05
(PID.TID 0000.0001)                       cg2d_iters =    24
(PID.TID 0000.0001)                         cg2d_res =    9.07550634407511E-13
(PID.TID 0000.0001) // =======================================================
(PID.TID 0000.0001) // Begin MONITOR dynamic field statistics
(PID.TID 0000.0001) // =======================================================
(PID.TID 0000.0001) %MON time_tsnumber                =                 36006
(PID.TID 0000.0001) %MON time_secondsf                =   3.1109184000000E+09
(PID.TID 0000.0001) %MON dynstat_eta_max              =   1.6201084301985E+00
(PID.TID 0000.0001) %MON dynstat_eta_min              =  -3.9377488573515E+00
(PID.TID 0000.0001) %MON dynstat_eta_mean             =  -5.7702581232178E-17
(PID.TID 0000.0001) %MON dynstat_eta_sd               =   1.6564120984205E+00
(PID.TID 0000.0001) %MON dynstat_eta_del2             =   1.3977123652269E-02
(PID.TID 0000.0001) %MON dynstat_uvel_max             =   1.4272789834299E-01
(PID.TID 0000.0001) %MON dynstat_uvel_min             =  -3.8630737226936E-01
(PID.TID 0000.0001) %MON dynstat_uvel_mean            =   1.2661235527627E-02
(PID.TID 0000.0001) %MON dynstat_uvel_sd              =   3.8710117247842E-02
(PID.TID 0000.0001) %MON dynstat_uvel_del2            =   6.1842530438682E-04
(PID.TID 0000.0001) %MON dynstat_vvel_max             =   2.2999742262380E-02
(PID.TID 0000.0001) %MON dynstat_vvel_min             =  -2.2999742262345E-02
(PID.TID 0000.0001) %MON dynstat_vvel_mean            =   2.9124721695103E-15
(PID.TID 0000.0001) %MON dynstat_vvel_sd              =   1.5486292056537E-03
(PID.TID 0000.0001) %MON dynstat_vvel_del2            =   7.2796019414830E-05
(PID.TID 0000.0001) %MON dynstat_wvel_max             =   1.3691629828693E-06
(PID.TID 0000.0001) %MON dynstat_wvel_min             =  -8.1261611856443E-07
(PID.TID 0000.0001) %MON dynstat_wvel_mean            =  -1.4603119211826E-23
(PID.TID 0000.0001) %MON dynstat_wvel_sd              =   2.5358415341937E-07
(PID.TID 0000.0001) %MON dynstat_wvel_del2            =   3.6739768420492E-08
(PID.TID 0000.0001) %MON dynstat_theta_max            =   2.6657018946892E+01
(PID.TID 0000.0001) %MON dynstat_theta_min            =  -9.3076280686977E-01
(PID.TID 0000.0001) %MON dynstat_theta_mean           =   2.2238852432947E+00
(PID.TID 0000.0001) %MON dynstat_theta_sd             =   3.9264847690291E+00
(PID.TID 0000.0001) %MON dynstat_theta_del2           =   4.1714388417167E-02
(PID.TID 0000.0001) %MON dynstat_salt_max             =   3.4700000000000E+01
(PID.TID 0000.0001) %MON dynstat_salt_min             =   3.4700000000000E+01
(PID.TID 0000.0001) %MON dynstat_salt_mean            =   3.4700000000000E+01
(PID.TID 0000.0001) %MON dynstat_salt_sd              =   4.9737991503207E-14
(PID.TID 0000.0001) %MON dynstat_salt_del2            =   0.0000000000000E+00
(PID.TID 0000.0001) %MON advcfl_uvel_max              =   1.0010540603121E-01
(PID.TID 0000.0001) %MON advcfl_vvel_max              =   5.9579747334167E-03
(PID.TID 0000.0001) %MON advcfl_wvel_max              =   1.9715946953317E-03
(PID.TID 0000.0001) %MON advcfl_W_hf_max              =   5.9147840859952E-03
(PID.TID 0000.0001) %MON ke_max                       =   7.4646052730507E-02
(PID.TID 0000.0001) %MON ke_mean                      =   2.4045493579362E-03
(PID.TID 0000.0001) %MON ke_volint                    =   1.8128580846782E+13
(PID.TID 0000.0001) %MON ke_volmean                   =   8.3067866135339E-04
(PID.TID 0000.0001) %MON ke_vol                       =   2.1823819113454E+16
(PID.TID 0000.0001) %MON surfExpan_theta_mean         =   8.7718008867092E-09
(PID.TID 0000.0001) %MON surfExpan_salt_mean          =   4.2594946535496E-22
(PID.TID 0000.0001) // =======================================================
(PID.TID 0000.0001) // End MONITOR dynamic field statistics
(PID.TID 0000.0001) // =======================================================
 cg2d: Sum(rhs),rhsMax =   6.66133814775094E-15  1.48308465734488E+00
(PID.TID 0000.0001)                    cg2d_init_res =    1.79550201121631E-05
(PID.TID 0000.0001)                       cg2d_iters =    24
(PID.TID 0000.0001)                         cg2d_res =    9.08655553986265E-13
(PID.TID 0000.0001) // =======================================================
(PID.TID 0000.0001) // Begin MONITOR dynamic field statistics
(PID.TID 0000.0001) // =======================================================
(PID.TID 0000.0001) %MON time_tsnumber                =                 36007
(PID.TID 0000.0001) %MON time_secondsf                =   3.1110048000000E+09
(PID.TID 0000.0001) %MON dynstat_eta_max              =   1.6201097486191E+00
(PID.TID 0000.0001) %MON dynstat_eta_min              =  -3.9377496431481E+00
(PID.TID 0000.0001) %MON dynstat_eta_mean             =  -1.7025368883889E-16
(PID.TID 0000.0001) %MON dynstat_eta_sd               =   1.6564142523356E+00
(PID.TID 0000.0001) %MON dynstat_eta_del2             =   1.3977133222310E-02
(PID.TID 0000.0001) %MON dynstat_uvel_max             =   1.4272811897637E-01
(PID.TID 0000.0001) %MON dynstat_uvel_min             =  -3.8630707320164E-01
(PID.TID 0000.0001) %MON dynstat_uvel_mean            =   1.2661459206534E-02
(PID.TID 0000.0001) %MON dynstat_uvel_sd              =   3.8710051460835E-02
(PID.TID 0000.0001) %MON dynstat_uvel_del2            =   6.1842482095041E-04
(PID.TID 0000.0001) %MON dynstat_vvel_max             =   2.2999740853904E-02
(PID.TID 0000.0001) %MON dynstat_vvel_min             =  -2.2999740853869E-02
(PID.TID 0000.0001) %MON dynstat_vvel_mean            =   3.1341885931288E-15
(PID.TID 0000.0001) %MON dynstat_vvel_sd              =   1.5486296292273E-03
(PID.TID 0000.0001) %MON dynstat_vvel_del2            =   7.2796163688617E-05
(PID.TID 0000.0001) %MON dynstat_wvel_max             =   1.3691616052896E-06
(PID.TID 0000.0001) %MON dynstat_wvel_min             =  -8.1261613519408E-07
(PID.TID 0000.0001) %MON dynstat_wvel_mean            =   1.7953162322017E-25
(PID.TID 0000.0001) %MON dynstat_wvel_sd              =   2.5358441163124E-07
(PID.TID 0000.0001) %MON dynstat_wvel_del2            =   3.6739504734627E-08
(PID.TID 0000.0001) %MON dynstat_theta_max            =   2.6657018526704E+01
(PID.TID 0000.0001) %MON dynstat_theta_min            =  -9.3076345623662E-01
(PID.TID 0000.0001) %MON dynstat_theta_mean           =   2.2238764819179E+00
(PID.TID 0000.0001) %MON dynstat_theta_sd             =   3.9264856972472E+00
(PID.TID 0000.0001) %MON dynstat_theta_del2           =   4.1714416086027E-02
(PID.TID 0000.0001) %MON dynstat_salt_max             =   3.4700000000000E+01
(PID.TID 0000.0001) %MON dynstat_salt_min             =   3.4700000000000E+01
(PID.TID 0000.0001) %MON dynstat_salt_mean            =   3.4700000000000E+01
(PID.TID 0000.0001) %MON dynstat_salt_sd              =   4.9737991503207E-14
(PID.TID 0000.0001) %MON dynstat_salt_del2            =   0.0000000000000E+00
(PID.TID 0000.0001) %MON advcfl_uvel_max              =   1.0010532853257E-01
(PID.TID 0000.0001) %MON advcfl_vvel_max              =   5.9579743685576E-03
(PID.TID 0000.0001) %MON advcfl_wvel_max              =   1.9715927116170E-03
(PID.TID 0000.0001) %MON advcfl_W_hf_max              =   5.9147781348509E-03
(PID.TID 0000.0001) %MON ke_max                       =   7.4645937144793E-02
(PID.TID 0000.0001) %MON ke_mean                      =   2.4045464991039E-03
(PID.TID 0000.0001) %MON ke_volint                    =   1.8128587091482E+13
(PID.TID 0000.0001) %MON ke_volmean                   =   8.3067894749488E-04
(PID.TID 0000.0001) %MON ke_vol                       =   2.1823819113454E+16
(PID.TID 0000.0001) %MON surfExpan_theta_mean         =   8.7713691670522E-09
(PID.TID 0000.0001) %MON surfExpan_salt_mean          =   9.0475886398477E-23
(PID.TID 0000.0001) // =======================================================
(PID.TID 0000.0001) // End MONITOR dynamic field statistics
(PID.TID 0000.0001) // =======================================================
 cg2d: Sum(rhs),rhsMax =   4.66293670342566E-15  1.48308582106661E+00
(PID.TID 0000.0001)                    cg2d_init_res =    1.79542749113217E-05
(PID.TID 0000.0001)                       cg2d_iters =    24
(PID.TID 0000.0001)                         cg2d_res =    9.09646082480815E-13
(PID.TID 0000.0001) // =======================================================
(PID.TID 0000.0001) // Begin MONITOR dynamic field statistics
(PID.TID 0000.0001) // =======================================================
(PID.TID 0000.0001) %MON time_tsnumber                =                 36008
(PID.TID 0000.0001) %MON time_secondsf                =   3.1110912000000E+09
(PID.TID 0000.0001) %MON dynstat_eta_max              =   1.6201110669494E+00
(PID.TID 0000.0001) %MON dynstat_eta_min              =  -3.9377504288023E+00
(PID.TID 0000.0001) %MON dynstat_eta_mean             =  -2.1483125346457E-16
(PID.TID 0000.0001) %MON dynstat_eta_sd               =   1.6564164061264E+00
(PID.TID 0000.0001) %MON dynstat_eta_del2             =   1.3977142791755E-02
(PID.TID 0000.0001) %MON dynstat_uvel_max             =   1.4272833959900E-01
(PID.TID 0000.0001) %MON dynstat_uvel_min             =  -3.8630677413941E-01
(PID.TID 0000.0001) %MON dynstat_uvel_mean            =   1.2661682880994E-02
(PID.TID 0000.0001) %MON dynstat_uvel_sd              =   3.8709985675109E-02
(PID.TID 0000.0001) %MON dynstat_uvel_del2            =   6.1842433735603E-04
(PID.TID 0000.0001) %MON dynstat_vvel_max             =   2.2999739442589E-02
(PID.TID 0000.0001) %MON dynstat_vvel_min             =  -2.2999739442554E-02
(PID.TID 0000.0001) %MON dynstat_vvel_mean            =   3.1150168044639E-15
(PID.TID 0000.0001) %MON dynstat_vvel_sd              =   1.5486300527290E-03
(PID.TID 0000.0001) %MON dynstat_vvel_del2            =   7.2796307857022E-05
(PID.TID 0000.0001) %MON dynstat_wvel_max             =   1.3691602279078E-06
(PID.TID 0000.0001) %MON dynstat_wvel_min             =  -8.1261615178155E-07
(PID.TID 0000.0001) %MON dynstat_wvel_mean            =   3.2098538449204E-24
(PID.TID 0000.0001) %MON dynstat_wvel_sd              =   2.5358466924587E-07
(PID.TID 0000.0001) %MON dynstat_wvel_del2            =   3.6739240768709E-08
(PID.TID 0000.0001) %MON dynstat_theta_max            =   2.6657018106537E+01
(PID.TID 0000.0001) %MON dynstat_theta_min            =  -9.3076410553683E-01
(PID.TID 0000.0001) %MON dynstat_theta_mean           =   2.2238677206943E+00
(PID.TID 0000.0001) %MON dynstat_theta_sd             =   3.9264866254283E+00
(PID.TID 0000.0001) %MON dynstat_theta_del2           =   4.1714443739760E-02
(PID.TID 0000.0001) %MON dynstat_salt_max             =   3.4700000000000E+01
(PID.TID 0000.0001) %MON dynstat_salt_min             =   3.4700000000000E+01
(PID.TID 0000.0001) %MON dynstat_salt_mean            =   3.4700000000000E+01
(PID.TID 0000.0001) %MON dynstat_salt_sd              =   4.9737991503207E-14
(PID.TID 0000.0001) %MON dynstat_salt_del2            =   0.0000000000000E+00
(PID.TID 0000.0001) %MON advcfl_uvel_max              =   1.0010525103535E-01
(PID.TID 0000.0001) %MON advcfl_vvel_max              =   5.9579740029631E-03
(PID.TID 0000.0001) %MON advcfl_wvel_max              =   1.9715907281873E-03
(PID.TID 0000.0001) %MON advcfl_W_hf_max              =   5.9147721845618E-03
(PID.TID 0000.0001) %MON ke_max                       =   7.4645821561294E-02
(PID.TID 0000.0001) %MON ke_mean                      =   2.4045436403260E-03
(PID.TID 0000.0001) %MON ke_volint                    =   1.8128593337219E+13
(PID.TID 0000.0001) %MON ke_volmean                   =   8.3067923368384E-04
(PID.TID 0000.0001) %MON ke_vol                       =   2.1823819113454E+16
(PID.TID 0000.0001) %MON surfExpan_theta_mean         =   8.7709373884730E-09
(PID.TID 0000.0001) %MON surfExpan_salt_mean          =   1.9330706264048E-22
(PID.TID 0000.0001) // =======================================================
(PID.TID 0000.0001) // End MONITOR dynamic field statistics
(PID.TID 0000.0001) // =======================================================
 cg2d: Sum(rhs),rhsMax =   7.21644966006352E-15  1.48308698470702E+00
(PID.TID 0000.0001)                    cg2d_init_res =    1.79535295335536E-05
(PID.TID 0000.0001)                       cg2d_iters =    24
(PID.TID 0000.0001)                         cg2d_res =    9.10530044652748E-13
(PID.TID 0000.0001) // =======================================================
(PID.TID 0000.0001) // Begin MONITOR dynamic field statistics
(PID.TID 0000.0001) // =======================================================
(PID.TID 0000.0001) %MON time_tsnumber                =                 36009
(PID.TID 0000.0001) %MON time_secondsf                =   3.1111776000000E+09
(PID.TID 0000.0001) %MON dynstat_eta_max              =   1.6201123851893E+00
(PID.TID 0000.0001) %MON dynstat_eta_min              =  -3.9377512143141E+00
(PID.TID 0000.0001) %MON dynstat_eta_mean             =  -3.0588719234047E-16
(PID.TID 0000.0001) %MON dynstat_eta_sd               =   1.6564185597930E+00
(PID.TID 0000.0001) %MON dynstat_eta_del2             =   1.3977152360585E-02
(PID.TID 0000.0001) %MON dynstat_uvel_max             =   1.4272856021107E-01
(PID.TID 0000.0001) %MON dynstat_uvel_min             =  -3.8630647508265E-01
(PID.TID 0000.0001) %MON dynstat_uvel_mean            =   1.2661906551010E-02
(PID.TID 0000.0001) %MON dynstat_uvel_sd              =   3.8709919890670E-02
(PID.TID 0000.0001) %MON dynstat_uvel_del2            =   6.1842385360384E-04
(PID.TID 0000.0001) %MON dynstat_vvel_max             =   2.2999738028422E-02
(PID.TID 0000.0001) %MON dynstat_vvel_min             =  -2.2999738028388E-02
(PID.TID 0000.0001) %MON dynstat_vvel_mean            =   3.1215151225604E-15
(PID.TID 0000.0001) %MON dynstat_vvel_sd              =   1.5486304761604E-03
(PID.TID 0000.0001) %MON dynstat_vvel_del2            =   7.2796451920112E-05
(PID.TID 0000.0001) %MON dynstat_wvel_max             =   1.3691588507209E-06
(PID.TID 0000.0001) %MON dynstat_wvel_min             =  -8.1261616833126E-07
(PID.TID 0000.0001) %MON dynstat_wvel_mean            =   1.1325505360283E-24
(PID.TID 0000.0001) %MON dynstat_wvel_sd              =   2.5358492625768E-07
(PID.TID 0000.0001) %MON dynstat_wvel_del2            =   3.6738976525558E-08
(PID.TID 0000.0001) %MON dynstat_theta_max            =   2.6657017686393E+01
(PID.TID 0000.0001) %MON dynstat_theta_min            =  -9.3076475477135E-01
(PID.TID 0000.0001) %MON dynstat_theta_mean           =   2.2238589596237E+00
(PID.TID 0000.0001) %MON dynstat_theta_sd             =   3.9264875535723E+00
(PID.TID 0000.0001) %MON dynstat_theta_del2           =   4.1714471378378E-02
(PID.TID 0000.0001) %MON dynstat_salt_max             =   3.4700000000000E+01
(PID.TID 0000.0001) %MON dynstat_salt_min             =   3.4700000000000E+01
(PID.TID 0000.0001) %MON dynstat_salt_mean            =   3.4700000000000E+01
(PID.TID 0000.0001) %MON dynstat_salt_sd              =   4.9737991503207E-14
(PID.TID 0000.0001) %MON dynstat_salt_del2            =   0.0000000000000E+00
(PID.TID 0000.0001) %MON advcfl_uvel_max              =   1.0010517353955E-01
(PID.TID 0000.0001) %MON advcfl_vvel_max              =   5.9579736366298E-03
(PID.TID 0000.0001) %MON advcfl_wvel_max              =   1.9715887450381E-03
(PID.TID 0000.0001) %MON advcfl_W_hf_max              =   5.9147662351143E-03
(PID.TID 0000.0001) %MON ke_max                       =   7.4645705980009E-02
(PID.TID 0000.0001) %MON ke_mean                      =   2.4045407816038E-03
(PID.TID 0000.0001) %MON ke_volint                    =   1.8128599583999E+13
(PID.TID 0000.0001) %MON ke_volmean                   =   8.3067951992063E-04
(PID.TID 0000.0001) %MON ke_vol                       =   2.1823819113454E+16
(PID.TID 0000.0001) %MON surfExpan_theta_mean         =   8.7705055505424E-09
(PID.TID 0000.0001) %MON surfExpan_salt_mean          =  -7.6635055065293E-23
(PID.TID 0000.0001) // =======================================================
(PID.TID 0000.0001) // End MONITOR dynamic field statistics
(PID.TID 0000.0001) // =======================================================
 cg2d: Sum(rhs),rhsMax =   5.44009282066327E-15  1.48308814826605E+00
(PID.TID 0000.0001)                    cg2d_init_res =    1.79527839941173E-05
(PID.TID 0000.0001)                       cg2d_iters =    24
(PID.TID 0000.0001)                         cg2d_res =    9.11327174545308E-13
(PID.TID 0000.0001) // =======================================================
(PID.TID 0000.0001) // Begin MONITOR dynamic field statistics
(PID.TID 0000.0001) // =======================================================
(PID.TID 0000.0001) %MON time_tsnumber                =                 36010
(PID.TID 0000.0001) %MON time_secondsf                =   3.1112640000000E+09
(PID.TID 0000.0001) %MON dynstat_eta_max              =   1.6201137033387E+00
(PID.TID 0000.0001) %MON dynstat_eta_min              =  -3.9377519996834E+00
(PID.TID 0000.0001) %MON dynstat_eta_mean             =  -1.6817450078575E-16
(PID.TID 0000.0001) %MON dynstat_eta_sd               =   1.6564207133353E+00
(PID.TID 0000.0001) %MON dynstat_eta_del2             =   1.3977161928787E-02
(PID.TID 0000.0001) %MON dynstat_uvel_max             =   1.4272878081277E-01
(PID.TID 0000.0001) %MON dynstat_uvel_min             =  -3.8630617603137E-01
(PID.TID 0000.0001) %MON dynstat_uvel_mean            =   1.2662130216581E-02
(PID.TID 0000.0001) %MON dynstat_uvel_sd              =   3.8709854107528E-02
(PID.TID 0000.0001) %MON dynstat_uvel_del2            =   6.1842336969399E-04
(PID.TID 0000.0001) %MON dynstat_vvel_max             =   2.2999736611403E-02
(PID.TID 0000.0001) %MON dynstat_vvel_min             =  -2.2999736611369E-02
(PID.TID 0000.0001) %MON dynstat_vvel_mean            =   3.2284268502878E-15
(PID.TID 0000.0001) %MON dynstat_vvel_sd              =   1.5486308995232E-03
(PID.TID 0000.0001) %MON dynstat_vvel_del2            =   7.2796595878017E-05
(PID.TID 0000.0001) %MON dynstat_wvel_max             =   1.3691574737239E-06
(PID.TID 0000.0001) %MON dynstat_wvel_min             =  -8.1261618484635E-07
(PID.TID 0000.0001) %MON dynstat_wvel_mean            =   5.1805909712889E-24
(PID.TID 0000.0001) %MON dynstat_wvel_sd              =   2.5358518266269E-07
(PID.TID 0000.0001) %MON dynstat_wvel_del2            =   3.6738712010544E-08
(PID.TID 0000.0001) %MON dynstat_theta_max            =   2.6657017266272E+01
(PID.TID 0000.0001) %MON dynstat_theta_min            =  -9.3076540393889E-01
(PID.TID 0000.0001) %MON dynstat_theta_mean           =   2.2238501987064E+00
(PID.TID 0000.0001) %MON dynstat_theta_sd             =   3.9264884816793E+00
(PID.TID 0000.0001) %MON dynstat_theta_del2           =   4.1714499001892E-02
(PID.TID 0000.0001) %MON dynstat_salt_max             =   3.4700000000000E+01
(PID.TID 0000.0001) %MON dynstat_salt_min             =   3.4700000000000E+01
(PID.TID 0000.0001) %MON dynstat_salt_mean            =   3.4700000000000E+01
(PID.TID 0000.0001) %MON dynstat_salt_sd              =   4.9737991503207E-14
(PID.TID 0000.0001) %MON dynstat_salt_del2            =   0.0000000000000E+00
(PID.TID 0000.0001) %MON advcfl_uvel_max              =   1.0010509604517E-01
(PID.TID 0000.0001) %MON advcfl_vvel_max              =   5.9579732695576E-03
(PID.TID 0000.0001) %MON advcfl_wvel_max              =   1.9715867621624E-03
(PID.TID 0000.0001) %MON advcfl_W_hf_max              =   5.9147602864871E-03
(PID.TID 0000.0001) %MON ke_max                       =   7.4645590400935E-02
(PID.TID 0000.0001) %MON ke_mean                      =   2.4045379229387E-03
(PID.TID 0000.0001) %MON ke_volint                    =   1.8128605831830E+13
(PID.TID 0000.0001) %MON ke_volmean                   =   8.3067980620560E-04
(PID.TID 0000.0001) %MON ke_vol                       =   2.1823819113454E+16
(PID.TID 0000.0001) %MON surfExpan_theta_mean         =   8.7700736533748E-09
(PID.TID 0000.0001) %MON surfExpan_salt_mean          =  -3.9019105909685E-22
(PID.TID 0000.0001) // =======================================================
(PID.TID 0000.0001) // End MONITOR dynamic field statistics
(PID.TID 0000.0001) // =======================================================
 cg2d: Sum(rhs),rhsMax =   2.55351295663786E-15  1.48308931174366E+00
(PID.TID 0000.0001)                    cg2d_init_res =    1.79520383034151E-05
(PID.TID 0000.0001)                       cg2d_iters =    24
(PID.TID 0000.0001)                         cg2d_res =    9.12049444287899E-13
(PID.TID 0000.0001) // =======================================================
(PID.TID 0000.0001) // Begin MONITOR dynamic field statistics
(PID.TID 0000.0001) // =======================================================
(PID.TID 0000.0001) %MON time_tsnumber                =                 36011
(PID.TID 0000.0001) %MON time_secondsf                =   3.1113504000000E+09
(PID.TID 0000.0001) %MON dynstat_eta_max              =   1.6201150213976E+00
(PID.TID 0000.0001) %MON dynstat_eta_min              =  -3.9377527849101E+00
(PID.TID 0000.0001) %MON dynstat_eta_mean             =  -4.2081402793577E-17
(PID.TID 0000.0001) %MON dynstat_eta_sd               =   1.6564228667534E+00
(PID.TID 0000.0001) %MON dynstat_eta_del2             =   1.3977171496383E-02
(PID.TID 0000.0001) %MON dynstat_uvel_max             =   1.4272900140427E-01
(PID.TID 0000.0001) %MON dynstat_uvel_min             =  -3.8630587698556E-01
(PID.TID 0000.0001) %MON dynstat_uvel_mean            =   1.2662353877708E-02
(PID.TID 0000.0001) %MON dynstat_uvel_sd              =   3.8709788325691E-02
(PID.TID 0000.0001) %MON dynstat_uvel_del2            =   6.1842288562651E-04
(PID.TID 0000.0001) %MON dynstat_vvel_max             =   2.2999735191541E-02
(PID.TID 0000.0001) %MON dynstat_vvel_min             =  -2.2999735191509E-02
(PID.TID 0000.0001) %MON dynstat_vvel_mean            =   3.0738308598823E-15
(PID.TID 0000.0001) %MON dynstat_vvel_sd              =   1.5486313228196E-03
(PID.TID 0000.0001) %MON dynstat_vvel_del2            =   7.2796739730236E-05
(PID.TID 0000.0001) %MON dynstat_wvel_max             =   1.3691560969121E-06
(PID.TID 0000.0001) %MON dynstat_wvel_min             =  -8.1261620132723E-07
(PID.TID 0000.0001) %MON dynstat_wvel_mean            =  -9.8346958508896E-24
(PID.TID 0000.0001) %MON dynstat_wvel_sd              =   2.5358543845104E-07
(PID.TID 0000.0001) %MON dynstat_wvel_del2            =   3.6738447214719E-08
(PID.TID 0000.0001) %MON dynstat_theta_max            =   2.6657016846175E+01
(PID.TID 0000.0001) %MON dynstat_theta_min            =  -9.3076605303960E-01
(PID.TID 0000.0001) %MON dynstat_theta_mean           =   2.2238414379421E+00
(PID.TID 0000.0001) %MON dynstat_theta_sd             =   3.9264894097494E+00
(PID.TID 0000.0001) %MON dynstat_theta_del2           =   4.1714526610315E-02
(PID.TID 0000.0001) %MON dynstat_salt_max             =   3.4700000000000E+01
(PID.TID 0000.0001) %MON dynstat_salt_min             =   3.4700000000000E+01
(PID.TID 0000.0001) %MON dynstat_salt_mean            =   3.4700000000000E+01
(PID.TID 0000.0001) %MON dynstat_salt_sd              =   4.9737991503207E-14
(PID.TID 0000.0001) %MON dynstat_salt_del2            =   0.0000000000000E+00
(PID.TID 0000.0001) %MON advcfl_uvel_max              =   1.0010501855221E-01
(PID.TID 0000.0001) %MON advcfl_vvel_max              =   5.9579729017492E-03
(PID.TID 0000.0001) %MON advcfl_wvel_max              =   1.9715847795534E-03
(PID.TID 0000.0001) %MON advcfl_W_hf_max              =   5.9147543386602E-03
(PID.TID 0000.0001) %MON ke_max                       =   7.4645474824071E-02
(PID.TID 0000.0001) %MON ke_mean                      =   2.4045350643321E-03
(PID.TID 0000.0001) %MON ke_volint                    =   1.8128612080720E+13
(PID.TID 0000.0001) %MON ke_volmean                   =   8.3068009253907E-04
(PID.TID 0000.0001) %MON ke_vol                       =   2.1823819113454E+16
(PID.TID 0000.0001) %MON surfExpan_theta_mean         =   8.7696416984256E-09
(PID.TID 0000.0001) %MON surfExpan_salt_mean          =   2.9614382056686E-22
(PID.TID 0000.0001) // =======================================================
(PID.TID 0000.0001) // End MONITOR dynamic field statistics
(PID.TID 0000.0001) // =======================================================
 cg2d: Sum(rhs),rhsMax =   6.55031584528842E-15  1.48309047513983E+00
(PID.TID 0000.0001)                    cg2d_init_res =    1.79512924753862E-05
(PID.TID 0000.0001)                       cg2d_iters =    24
(PID.TID 0000.0001)                         cg2d_res =    9.12708882479404E-13
(PID.TID 0000.0001) // =======================================================
(PID.TID 0000.0001) // Begin MONITOR dynamic field statistics
(PID.TID 0000.0001) // =======================================================
(PID.TID 0000.0001) %MON time_tsnumber                =                 36012
(PID.TID 0000.0001) %MON time_secondsf                =   3.1114368000000E+09
(PID.TID 0000.0001) %MON dynstat_eta_max              =   1.6201163393660E+00
(PID.TID 0000.0001) %MON dynstat_eta_min              =  -3.9377535699952E+00
(PID.TID 0000.0001) %MON dynstat_eta_mean             =  -2.4003487564098E-16
(PID.TID 0000.0001) %MON dynstat_eta_sd               =   1.6564250200472E+00
(PID.TID 0000.0001) %MON dynstat_eta_del2             =   1.3977181063355E-02
(PID.TID 0000.0001) %MON dynstat_uvel_max             =   1.4272922198575E-01
(PID.TID 0000.0001) %MON dynstat_uvel_min             =  -3.8630557794521E-01
(PID.TID 0000.0001) %MON dynstat_uvel_mean            =   1.2662577534392E-02
(PID.TID 0000.0001) %MON dynstat_uvel_sd              =   3.8709722545166E-02
(PID.TID 0000.0001) %MON dynstat_uvel_del2            =   6.1842240140150E-04
(PID.TID 0000.0001) %MON dynstat_vvel_max             =   2.2999733768861E-02
(PID.TID 0000.0001) %MON dynstat_vvel_min             =  -2.2999733768830E-02
(PID.TID 0000.0001) %MON dynstat_vvel_mean            =   3.1938261544852E-15
(PID.TID 0000.0001) %MON dynstat_vvel_sd              =   1.5486317460519E-03
(PID.TID 0000.0001) %MON dynstat_vvel_del2            =   7.2796883476621E-05
(PID.TID 0000.0001) %MON dynstat_wvel_max             =   1.3691547202804E-06
(PID.TID 0000.0001) %MON dynstat_wvel_min             =  -8.1261621778414E-07
(PID.TID 0000.0001) %MON dynstat_wvel_mean            =   8.6171157780301E-25
(PID.TID 0000.0001) %MON dynstat_wvel_sd              =   2.5358569362203E-07
(PID.TID 0000.0001) %MON dynstat_wvel_del2            =   3.6738182148853E-08
(PID.TID 0000.0001) %MON dynstat_theta_max            =   2.6657016426105E+01
(PID.TID 0000.0001) %MON dynstat_theta_min            =  -9.3076670207693E-01
(PID.TID 0000.0001) %MON dynstat_theta_mean           =   2.2238326773309E+00
(PID.TID 0000.0001) %MON dynstat_theta_sd             =   3.9264903377825E+00
(PID.TID 0000.0001) %MON dynstat_theta_del2           =   4.1714554203657E-02
(PID.TID 0000.0001) %MON dynstat_salt_max             =   3.4700000000000E+01
(PID.TID 0000.0001) %MON dynstat_salt_min             =   3.4700000000000E+01
(PID.TID 0000.0001) %MON dynstat_salt_mean            =   3.4700000000000E+01
(PID.TID 0000.0001) %MON dynstat_salt_sd              =   4.9737991503207E-14
(PID.TID 0000.0001) %MON dynstat_salt_del2            =   0.0000000000000E+00
(PID.TID 0000.0001) %MON advcfl_uvel_max              =   1.0010494106066E-01
(PID.TID 0000.0001) %MON advcfl_vvel_max              =   5.9579725332104E-03
(PID.TID 0000.0001) %MON advcfl_wvel_max              =   1.9715827972037E-03
(PID.TID 0000.0001) %MON advcfl_W_hf_max              =   5.9147483916112E-03
(PID.TID 0000.0001) %MON ke_max                       =   7.4645359249415E-02
(PID.TID 0000.0001) %MON ke_mean                      =   2.4045322057853E-03
(PID.TID 0000.0001) %MON ke_volint                    =   1.8128618330675E+13
(PID.TID 0000.0001) %MON ke_volmean                   =   8.3068037892135E-04
(PID.TID 0000.0001) %MON ke_vol                       =   2.1823819113454E+16
(PID.TID 0000.0001) %MON surfExpan_theta_mean         =   8.7692096868618E-09
(PID.TID 0000.0001) %MON surfExpan_salt_mean          =   1.9561649116616E-22
(PID.TID 0000.0001) // =======================================================
(PID.TID 0000.0001) // End MONITOR dynamic field statistics
(PID.TID 0000.0001) // =======================================================
 cg2d: Sum(rhs),rhsMax =   7.66053886991358E-15  1.48309163845458E+00
(PID.TID 0000.0001)                    cg2d_init_res =    1.79505465119663E-05
(PID.TID 0000.0001)                       cg2d_iters =    24
(PID.TID 0000.0001)                         cg2d_res =    9.13316350017918E-13
(PID.TID 0000.0001) // =======================================================
(PID.TID 0000.0001) // Begin MONITOR dynamic field statistics
(PID.TID 0000.0001) // =======================================================
(PID.TID 0000.0001) %MON time_tsnumber                =                 36013
(PID.TID 0000.0001) %MON time_secondsf                =   3.1115232000000E+09
(PID.TID 0000.0001) %MON dynstat_eta_max              =   1.6201176572438E+00
(PID.TID 0000.0001) %MON dynstat_eta_min              =  -3.9377543549371E+00
(PID.TID 0000.0001) %MON dynstat_eta_mean             =  -1.1384406717200E-16
(PID.TID 0000.0001) %MON dynstat_eta_sd               =   1.6564271732167E+00
(PID.TID 0000.0001) %MON dynstat_eta_del2             =   1.3977190629696E-02
(PID.TID 0000.0001) %MON dynstat_uvel_max             =   1.4272944255734E-01
(PID.TID 0000.0001) %MON dynstat_uvel_min             =  -3.8630527891032E-01
(PID.TID 0000.0001) %MON dynstat_uvel_mean            =   1.2662801186635E-02
(PID.TID 0000.0001) %MON dynstat_uvel_sd              =   3.8709656765961E-02
(PID.TID 0000.0001) %MON dynstat_uvel_del2            =   6.1842191701905E-04
(PID.TID 0000.0001) %MON dynstat_vvel_max             =   2.2999732343394E-02
(PID.TID 0000.0001) %MON dynstat_vvel_min             =  -2.2999732343364E-02
(PID.TID 0000.0001) %MON dynstat_vvel_mean            =   2.8488464089051E-15
(PID.TID 0000.0001) %MON dynstat_vvel_sd              =   1.5486321692224E-03
(PID.TID 0000.0001) %MON dynstat_vvel_del2            =   7.2797027116791E-05
(PID.TID 0000.0001) %MON dynstat_wvel_max             =   1.3691533438225E-06
(PID.TID 0000.0001) %MON dynstat_wvel_min             =  -8.1261623420717E-07
(PID.TID 0000.0001) %MON dynstat_wvel_mean            =   7.9938711671574E-24
(PID.TID 0000.0001) %MON dynstat_wvel_sd              =   2.5358594817113E-07
(PID.TID 0000.0001) %MON dynstat_wvel_del2            =   3.6737916811318E-08
(PID.TID 0000.0001) %MON dynstat_theta_max            =   2.6657016006062E+01
(PID.TID 0000.0001) %MON dynstat_theta_min            =  -9.3076735104319E-01
(PID.TID 0000.0001) %MON dynstat_theta_mean           =   2.2238239168728E+00
(PID.TID 0000.0001) %MON dynstat_theta_sd             =   3.9264912657786E+00
(PID.TID 0000.0001) %MON dynstat_theta_del2           =   4.1714581781929E-02
(PID.TID 0000.0001) %MON dynstat_salt_max             =   3.4700000000000E+01
(PID.TID 0000.0001) %MON dynstat_salt_min             =   3.4700000000000E+01
(PID.TID 0000.0001) %MON dynstat_salt_mean            =   3.4700000000000E+01
(PID.TID 0000.0001) %MON dynstat_salt_sd              =   4.9737991503207E-14
(PID.TID 0000.0001) %MON dynstat_salt_del2            =   0.0000000000000E+00
(PID.TID 0000.0001) %MON advcfl_uvel_max              =   1.0010486357053E-01
(PID.TID 0000.0001) %MON advcfl_vvel_max              =   5.9579721639501E-03
(PID.TID 0000.0001) %MON advcfl_wvel_max              =   1.9715808151045E-03
(PID.TID 0000.0001) %MON advcfl_W_hf_max              =   5.9147424453134E-03
(PID.TID 0000.0001) %MON ke_max                       =   7.4645243676964E-02
(PID.TID 0000.0001) %MON ke_mean                      =   2.4045293472995E-03
(PID.TID 0000.0001) %MON ke_volint                    =   1.8128624581701E+13
(PID.TID 0000.0001) %MON ke_volmean                   =   8.3068066535273E-04
(PID.TID 0000.0001) %MON ke_vol                       =   2.1823819113454E+16
(PID.TID 0000.0001) %MON surfExpan_theta_mean         =   8.7687776205129E-09
(PID.TID 0000.0001) %MON surfExpan_salt_mean          =   2.2360240192484E-22
(PID.TID 0000.0001) // =======================================================
(PID.TID 0000.0001) // End MONITOR dynamic field statistics
(PID.TID 0000.0001) // =======================================================
 cg2d: Sum(rhs),rhsMax =   4.32986979603811E-15  1.48309280168797E+00
(PID.TID 0000.0001)                    cg2d_init_res =    1.79498004068057E-05
(PID.TID 0000.0001)                       cg2d_iters =    24
(PID.TID 0000.0001)                         cg2d_res =    9.13880194463124E-13
(PID.TID 0000.0001) // =======================================================
(PID.TID 0000.0001) // Begin MONITOR dynamic field statistics
(PID.TID 0000.0001) // =======================================================
(PID.TID 0000.0001) %MON time_tsnumber                =                 36014
(PID.TID 0000.0001) %MON time_secondsf                =   3.1116096000000E+09
(PID.TID 0000.0001) %MON dynstat_eta_max              =   1.6201189750311E+00
(PID.TID 0000.0001) %MON dynstat_eta_min              =  -3.9377551397373E+00
(PID.TID 0000.0001) %MON dynstat_eta_mean             =  -5.8456997006651E-17
(PID.TID 0000.0001) %MON dynstat_eta_sd               =   1.6564293262619E+00
(PID.TID 0000.0001) %MON dynstat_eta_del2             =   1.3977200195429E-02
(PID.TID 0000.0001) %MON dynstat_uvel_max             =   1.4272966311918E-01
(PID.TID 0000.0001) %MON dynstat_uvel_min             =  -3.8630497988090E-01
(PID.TID 0000.0001) %MON dynstat_uvel_mean            =   1.2663024834438E-02
(PID.TID 0000.0001) %MON dynstat_uvel_sd              =   3.8709590988082E-02
(PID.TID 0000.0001) %MON dynstat_uvel_del2            =   6.1842143247917E-04
(PID.TID 0000.0001) %MON dynstat_vvel_max             =   2.2999730915188E-02
(PID.TID 0000.0001) %MON dynstat_vvel_min             =  -2.2999730915159E-02
(PID.TID 0000.0001) %MON dynstat_vvel_mean            =   2.4038062735755E-15
(PID.TID 0000.0001) %MON dynstat_vvel_sd              =   1.5486325923338E-03
(PID.TID 0000.0001) %MON dynstat_vvel_del2            =   7.2797170649864E-05
(PID.TID 0000.0001) %MON dynstat_wvel_max             =   1.3691519675329E-06
(PID.TID 0000.0001) %MON dynstat_wvel_min             =  -8.1261625060245E-07
(PID.TID 0000.0001) %MON dynstat_wvel_mean            =   2.0754936944719E-24
(PID.TID 0000.0001) %MON dynstat_wvel_sd              =   2.5358620208948E-07
(PID.TID 0000.0001) %MON dynstat_wvel_del2            =   3.6737651191966E-08
(PID.TID 0000.0001) %MON dynstat_theta_max            =   2.6657015586048E+01
(PID.TID 0000.0001) %MON dynstat_theta_min            =  -9.3076799994748E-01
(PID.TID 0000.0001) %MON dynstat_theta_mean           =   2.2238151565678E+00
(PID.TID 0000.0001) %MON dynstat_theta_sd             =   3.9264921937377E+00
(PID.TID 0000.0001) %MON dynstat_theta_del2           =   4.1714609345142E-02
(PID.TID 0000.0001) %MON dynstat_salt_max             =   3.4700000000000E+01
(PID.TID 0000.0001) %MON dynstat_salt_min             =   3.4700000000000E+01
(PID.TID 0000.0001) %MON dynstat_salt_mean            =   3.4700000000000E+01
(PID.TID 0000.0001) %MON dynstat_salt_sd              =   4.9737991503207E-14
(PID.TID 0000.0001) %MON dynstat_salt_del2            =   0.0000000000000E+00
(PID.TID 0000.0001) %MON advcfl_uvel_max              =   1.0010478608182E-01
(PID.TID 0000.0001) %MON advcfl_vvel_max              =   5.9579717939799E-03
(PID.TID 0000.0001) %MON advcfl_wvel_max              =   1.9715788332474E-03
(PID.TID 0000.0001) %MON advcfl_W_hf_max              =   5.9147364997423E-03
(PID.TID 0000.0001) %MON ke_max                       =   7.4645128106718E-02
(PID.TID 0000.0001) %MON ke_mean                      =   2.4045264888757E-03
(PID.TID 0000.0001) %MON ke_volint                    =   1.8128630833805E+13
(PID.TID 0000.0001) %MON ke_volmean                   =   8.3068095183345E-04
(PID.TID 0000.0001) %MON ke_vol                       =   2.1823819113454E+16
(PID.TID 0000.0001) %MON surfExpan_theta_mean         =   8.7683455028055E-09
(PID.TID 0000.0001) %MON surfExpan_salt_mean          =  -3.1494888228580E-22
(PID.TID 0000.0001) // =======================================================
(PID.TID 0000.0001) // End MONITOR dynamic field statistics
(PID.TID 0000.0001) // =======================================================
 cg2d: Sum(rhs),rhsMax =   2.10942374678780E-15  1.48309396484008E+00
(PID.TID 0000.0001)                    cg2d_init_res =    1.79490541581888E-05
(PID.TID 0000.0001)                       cg2d_iters =    24
(PID.TID 0000.0001)                         cg2d_res =    9.14416076299284E-13
(PID.TID 0000.0001) // =======================================================
(PID.TID 0000.0001) // Begin MONITOR dynamic field statistics
(PID.TID 0000.0001) // =======================================================
(PID.TID 0000.0001) %MON time_tsnumber                =                 36015
(PID.TID 0000.0001) %MON time_secondsf                =   3.1116960000000E+09
(PID.TID 0000.0001) %MON dynstat_eta_max              =   1.6201202927278E+00
(PID.TID 0000.0001) %MON dynstat_eta_min              =  -3.9377559243977E+00
(PID.TID 0000.0001) %MON dynstat_eta_mean             =  -2.5586056437989E-16
(PID.TID 0000.0001) %MON dynstat_eta_sd               =   1.6564314791828E+00
(PID.TID 0000.0001) %MON dynstat_eta_del2             =   1.3977209760539E-02
(PID.TID 0000.0001) %MON dynstat_uvel_max             =   1.4272988367136E-01
(PID.TID 0000.0001) %MON dynstat_uvel_min             =  -3.8630468085692E-01
(PID.TID 0000.0001) %MON dynstat_uvel_mean            =   1.2663248477802E-02
(PID.TID 0000.0001) %MON dynstat_uvel_sd              =   3.8709525211533E-02
(PID.TID 0000.0001) %MON dynstat_uvel_del2            =   6.1842094778197E-04
(PID.TID 0000.0001) %MON dynstat_vvel_max             =   2.2999729484299E-02
(PID.TID 0000.0001) %MON dynstat_vvel_min             =  -2.2999729484270E-02
(PID.TID 0000.0001) %MON dynstat_vvel_mean            =   2.4388633719677E-15
(PID.TID 0000.0001) %MON dynstat_vvel_sd              =   1.5486330153890E-03
(PID.TID 0000.0001) %MON dynstat_vvel_del2            =   7.2797314075217E-05
(PID.TID 0000.0001) %MON dynstat_wvel_max             =   1.3691505914052E-06
(PID.TID 0000.0001) %MON dynstat_wvel_min             =  -8.1261626697221E-07
(PID.TID 0000.0001) %MON dynstat_wvel_mean            =   1.0280173771125E-24
(PID.TID 0000.0001) %MON dynstat_wvel_sd              =   2.5358645537452E-07
(PID.TID 0000.0001) %MON dynstat_wvel_del2            =   3.6737385294372E-08
(PID.TID 0000.0001) %MON dynstat_theta_max            =   2.6657015166063E+01
(PID.TID 0000.0001) %MON dynstat_theta_min            =  -9.3076864879207E-01
(PID.TID 0000.0001) %MON dynstat_theta_mean           =   2.2238063964159E+00
(PID.TID 0000.0001) %MON dynstat_theta_sd             =   3.9264931216600E+00
(PID.TID 0000.0001) %MON dynstat_theta_del2           =   4.1714636893306E-02
(PID.TID 0000.0001) %MON dynstat_salt_max             =   3.4700000000000E+01
(PID.TID 0000.0001) %MON dynstat_salt_min             =   3.4700000000000E+01
(PID.TID 0000.0001) %MON dynstat_salt_mean            =   3.4700000000000E+01
(PID.TID 0000.0001) %MON dynstat_salt_sd              =   4.9737991503207E-14
(PID.TID 0000.0001) %MON dynstat_salt_del2            =   0.0000000000000E+00
(PID.TID 0000.0001) %MON advcfl_uvel_max              =   1.0010470859452E-01
(PID.TID 0000.0001) %MON advcfl_vvel_max              =   5.9579714233149E-03
(PID.TID 0000.0001) %MON advcfl_wvel_max              =   1.9715768516234E-03
(PID.TID 0000.0001) %MON advcfl_W_hf_max              =   5.9147305548703E-03
(PID.TID 0000.0001) %MON ke_max                       =   7.4645012538673E-02
(PID.TID 0000.0001) %MON ke_mean                      =   2.4045236305150E-03
(PID.TID 0000.0001) %MON ke_volint                    =   1.8128637086990E+13
(PID.TID 0000.0001) %MON ke_volmean                   =   8.3068123836376E-04
(PID.TID 0000.0001) %MON ke_vol                       =   2.1823819113454E+16
(PID.TID 0000.0001) %MON surfExpan_theta_mean         =   8.7679133379382E-09
(PID.TID 0000.0001) %MON surfExpan_salt_mean          =   3.8369946757550E-23
(PID.TID 0000.0001) // =======================================================
(PID.TID 0000.0001) // End MONITOR dynamic field statistics
(PID.TID 0000.0001) // =======================================================
 cg2d: Sum(rhs),rhsMax =   3.77475828372553E-15  1.48309512791100E+00
(PID.TID 0000.0001)                    cg2d_init_res =    1.79483077723489E-05
(PID.TID 0000.0001)                       cg2d_iters =    24
(PID.TID 0000.0001)                         cg2d_res =    9.14919183860981E-13
(PID.TID 0000.0001) // =======================================================
(PID.TID 0000.0001) // Begin MONITOR dynamic field statistics
(PID.TID 0000.0001) // =======================================================
(PID.TID 0000.0001) %MON time_tsnumber                =                 36016
(PID.TID 0000.0001) %MON time_secondsf                =   3.1117824000000E+09
(PID.TID 0000.0001) %MON dynstat_eta_max              =   1.6201216103340E+00
(PID.TID 0000.0001) %MON dynstat_eta_min              =  -3.9377567089150E+00
(PID.TID 0000.0001) %MON dynstat_eta_mean             =  -2.8559977054982E-16
(PID.TID 0000.0001) %MON dynstat_eta_sd               =   1.6564336319794E+00
(PID.TID 0000.0001) %MON dynstat_eta_del2             =   1.3977219324987E-02
(PID.TID 0000.0001) %MON dynstat_uvel_max             =   1.4273010421398E-01
(PID.TID 0000.0001) %MON dynstat_uvel_min             =  -3.8630438183840E-01
(PID.TID 0000.0001) %MON dynstat_uvel_mean            =   1.2663472116730E-02
(PID.TID 0000.0001) %MON dynstat_uvel_sd              =   3.8709459436320E-02
(PID.TID 0000.0001) %MON dynstat_uvel_del2            =   6.1842046292765E-04
(PID.TID 0000.0001) %MON dynstat_vvel_max             =   2.2999728050796E-02
(PID.TID 0000.0001) %MON dynstat_vvel_min             =  -2.2999728050768E-02
(PID.TID 0000.0001) %MON dynstat_vvel_mean            =   1.9312171012114E-15
(PID.TID 0000.0001) %MON dynstat_vvel_sd              =   1.5486334383910E-03
(PID.TID 0000.0001) %MON dynstat_vvel_del2            =   7.2797457392694E-05
(PID.TID 0000.0001) %MON dynstat_wvel_max             =   1.3691492154325E-06
(PID.TID 0000.0001) %MON dynstat_wvel_min             =  -8.1261628332124E-07
(PID.TID 0000.0001) %MON dynstat_wvel_mean            =  -3.7393112788048E-24
(PID.TID 0000.0001) %MON dynstat_wvel_sd              =   2.5358670802765E-07
(PID.TID 0000.0001) %MON dynstat_wvel_del2            =   3.6737119128014E-08
(PID.TID 0000.0001) %MON dynstat_theta_max            =   2.6657014746108E+01
(PID.TID 0000.0001) %MON dynstat_theta_min            =  -9.3076929756233E-01
(PID.TID 0000.0001) %MON dynstat_theta_mean           =   2.2237976364170E+00
(PID.TID 0000.0001) %MON dynstat_theta_sd             =   3.9264940495453E+00
(PID.TID 0000.0001) %MON dynstat_theta_del2           =   4.1714664426431E-02
(PID.TID 0000.0001) %MON dynstat_salt_max             =   3.4700000000000E+01
(PID.TID 0000.0001) %MON dynstat_salt_min             =   3.4700000000000E+01
(PID.TID 0000.0001) %MON dynstat_salt_mean            =   3.4700000000000E+01
(PID.TID 0000.0001) %MON dynstat_salt_sd              =   4.9737991503207E-14
(PID.TID 0000.0001) %MON dynstat_salt_del2            =   0.0000000000000E+00
(PID.TID 0000.0001) %MON advcfl_uvel_max              =   1.0010463110862E-01
(PID.TID 0000.0001) %MON advcfl_vvel_max              =   5.9579710519729E-03
(PID.TID 0000.0001) %MON advcfl_wvel_max              =   1.9715748702228E-03
(PID.TID 0000.0001) %MON advcfl_W_hf_max              =   5.9147246106685E-03
(PID.TID 0000.0001) %MON ke_max                       =   7.4644896972829E-02
(PID.TID 0000.0001) %MON ke_mean                      =   2.4045207722181E-03
(PID.TID 0000.0001) %MON ke_volint                    =   1.8128643341262E+13
(PID.TID 0000.0001) %MON ke_volmean                   =   8.3068152494384E-04
(PID.TID 0000.0001) %MON ke_vol                       =   2.1823819113454E+16
(PID.TID 0000.0001) %MON surfExpan_theta_mean         =   8.7674811306313E-09
(PID.TID 0000.0001) %MON surfExpan_salt_mean          =   3.6820837554311E-23
(PID.TID 0000.0001) // =======================================================
(PID.TID 0000.0001) // End MONITOR dynamic field statistics
(PID.TID 0000.0001) // =======================================================
 cg2d: Sum(rhs),rhsMax =   6.32827124036339E-15  1.48309629090088E+00
(PID.TID 0000.0001)                    cg2d_init_res =    1.79475612526889E-05
(PID.TID 0000.0001)                       cg2d_iters =    24
(PID.TID 0000.0001)                         cg2d_res =    9.15390821491027E-13
(PID.TID 0000.0001) // =======================================================
(PID.TID 0000.0001) // Begin MONITOR dynamic field statistics
(PID.TID 0000.0001) // =======================================================
(PID.TID 0000.0001) %MON time_tsnumber                =                 36017
(PID.TID 0000.0001) %MON time_secondsf                =   3.1118688000000E+09
(PID.TID 0000.0001) %MON dynstat_eta_max              =   1.6201229278497E+00
(PID.TID 0000.0001) %MON dynstat_eta_min              =  -3.9377574932914E+00
(PID.TID 0000.0001) %MON dynstat_eta_mean             =  -2.6643261073753E-16
(PID.TID 0000.0001) %MON dynstat_eta_sd               =   1.6564357846517E+00
(PID.TID 0000.0001) %MON dynstat_eta_del2             =   1.3977228888800E-02
(PID.TID 0000.0001) %MON dynstat_uvel_max             =   1.4273032474709E-01
(PID.TID 0000.0001) %MON dynstat_uvel_min             =  -3.8630408282532E-01
(PID.TID 0000.0001) %MON dynstat_uvel_mean            =   1.2663695751222E-02
(PID.TID 0000.0001) %MON dynstat_uvel_sd              =   3.8709393662446E-02
(PID.TID 0000.0001) %MON dynstat_uvel_del2            =   6.1841997791624E-04
(PID.TID 0000.0001) %MON dynstat_vvel_max             =   2.2999726614760E-02
(PID.TID 0000.0001) %MON dynstat_vvel_min             =  -2.2999726614731E-02
(PID.TID 0000.0001) %MON dynstat_vvel_mean            =   1.7156321187688E-15
(PID.TID 0000.0001) %MON dynstat_vvel_sd              =   1.5486338613429E-03
(PID.TID 0000.0001) %MON dynstat_vvel_del2            =   7.2797600601362E-05
(PID.TID 0000.0001) %MON dynstat_wvel_max             =   1.3691478396062E-06
(PID.TID 0000.0001) %MON dynstat_wvel_min             =  -8.1261629965636E-07
(PID.TID 0000.0001) %MON dynstat_wvel_mean            =  -2.8905574338872E-24
(PID.TID 0000.0001) %MON dynstat_wvel_sd              =   2.5358696003820E-07
(PID.TID 0000.0001) %MON dynstat_wvel_del2            =   3.6736852674733E-08
(PID.TID 0000.0001) %MON dynstat_theta_max            =   2.6657014326185E+01
(PID.TID 0000.0001) %MON dynstat_theta_min            =  -9.3076994627467E-01
(PID.TID 0000.0001) %MON dynstat_theta_mean           =   2.2237888765712E+00
(PID.TID 0000.0001) %MON dynstat_theta_sd             =   3.9264949773936E+00
(PID.TID 0000.0001) %MON dynstat_theta_del2           =   4.1714691944527E-02
(PID.TID 0000.0001) %MON dynstat_salt_max             =   3.4700000000000E+01
(PID.TID 0000.0001) %MON dynstat_salt_min             =   3.4700000000000E+01
(PID.TID 0000.0001) %MON dynstat_salt_mean            =   3.4700000000000E+01
(PID.TID 0000.0001) %MON dynstat_salt_sd              =   4.9737991503207E-14
(PID.TID 0000.0001) %MON dynstat_salt_del2            =   0.0000000000000E+00
(PID.TID 0000.0001) %MON advcfl_uvel_max              =   1.0010455362415E-01
(PID.TID 0000.0001) %MON advcfl_vvel_max              =   5.9579706799745E-03
(PID.TID 0000.0001) %MON advcfl_wvel_max              =   1.9715728890329E-03
(PID.TID 0000.0001) %MON advcfl_W_hf_max              =   5.9147186670986E-03
(PID.TID 0000.0001) %MON ke_max                       =   7.4644781409184E-02
(PID.TID 0000.0001) %MON ke_mean                      =   2.4045179139859E-03
(PID.TID 0000.0001) %MON ke_volint                    =   1.8128649596624E+13
(PID.TID 0000.0001) %MON ke_volmean                   =   8.3068181157384E-04
(PID.TID 0000.0001) %MON ke_vol                       =   2.1823819113454E+16
(PID.TID 0000.0001) %MON surfExpan_theta_mean         =   8.7670488881220E-09
(PID.TID 0000.0001) %MON surfExpan_salt_mean          =   7.4338248156486E-23
(PID.TID 0000.0001) // =======================================================
(PID.TID 0000.0001) // End MONITOR dynamic field statistics
(PID.TID 0000.0001) // =======================================================
 cg2d: Sum(rhs),rhsMax =   2.99760216648792E-15  1.48309745380988E+00
(PID.TID 0000.0001)                    cg2d_init_res =    1.79468146291176E-05
(PID.TID 0000.0001)                       cg2d_iters =    24
(PID.TID 0000.0001)                         cg2d_res =    9.15834413800712E-13
(PID.TID 0000.0001) // =======================================================
(PID.TID 0000.0001) // Begin MONITOR dynamic field statistics
(PID.TID 0000.0001) // =======================================================
(PID.TID 0000.0001) %MON time_tsnumber                =                 36018
(PID.TID 0000.0001) %MON time_secondsf                =   3.1119552000000E+09
(PID.TID 0000.0001) %MON dynstat_eta_max              =   1.6201242452750E+00
(PID.TID 0000.0001) %MON dynstat_eta_min              =  -3.9377582775261E+00
(PID.TID 0000.0001) %MON dynstat_eta_mean             =  -1.7243285970552E-16
(PID.TID 0000.0001) %MON dynstat_eta_sd               =   1.6564379371996E+00
(PID.TID 0000.0001) %MON dynstat_eta_del2             =   1.3977238451918E-02
(PID.TID 0000.0001) %MON dynstat_uvel_max             =   1.4273054527072E-01
(PID.TID 0000.0001) %MON dynstat_uvel_min             =  -3.8630378381768E-01
(PID.TID 0000.0001) %MON dynstat_uvel_mean            =   1.2663919381280E-02
(PID.TID 0000.0001) %MON dynstat_uvel_sd              =   3.8709327889913E-02
(PID.TID 0000.0001) %MON dynstat_uvel_del2            =   6.1841949274799E-04
(PID.TID 0000.0001) %MON dynstat_vvel_max             =   2.2999725176282E-02
(PID.TID 0000.0001) %MON dynstat_vvel_min             =  -2.2999725176252E-02
(PID.TID 0000.0001) %MON dynstat_vvel_mean            =   1.8781889444186E-15
(PID.TID 0000.0001) %MON dynstat_vvel_sd              =   1.5486342842483E-03
(PID.TID 0000.0001) %MON dynstat_vvel_del2            =   7.2797743701541E-05
(PID.TID 0000.0001) %MON dynstat_wvel_max             =   1.3691464639176E-06
(PID.TID 0000.0001) %MON dynstat_wvel_min             =  -8.1261631597889E-07
(PID.TID 0000.0001) %MON dynstat_wvel_mean            =   4.9311769541622E-24
(PID.TID 0000.0001) %MON dynstat_wvel_sd              =   2.5358721141530E-07
(PID.TID 0000.0001) %MON dynstat_wvel_del2            =   3.6736585960361E-08
(PID.TID 0000.0001) %MON dynstat_theta_max            =   2.6657013906293E+01
(PID.TID 0000.0001) %MON dynstat_theta_min            =  -9.3077059491868E-01
(PID.TID 0000.0001) %MON dynstat_theta_mean           =   2.2237801168785E+00
(PID.TID 0000.0001) %MON dynstat_theta_sd             =   3.9264959052051E+00
(PID.TID 0000.0001) %MON dynstat_theta_del2           =   4.1714719447603E-02
(PID.TID 0000.0001) %MON dynstat_salt_max             =   3.4700000000000E+01
(PID.TID 0000.0001) %MON dynstat_salt_min             =   3.4700000000000E+01
(PID.TID 0000.0001) %MON dynstat_salt_mean            =   3.4700000000000E+01
(PID.TID 0000.0001) %MON dynstat_salt_sd              =   4.9737991503207E-14
(PID.TID 0000.0001) %MON dynstat_salt_del2            =   0.0000000000000E+00
(PID.TID 0000.0001) %MON advcfl_uvel_max              =   1.0010447614108E-01
(PID.TID 0000.0001) %MON advcfl_vvel_max              =   5.9579703073434E-03
(PID.TID 0000.0001) %MON advcfl_wvel_max              =   1.9715709080413E-03
(PID.TID 0000.0001) %MON advcfl_W_hf_max              =   5.9147127241239E-03
(PID.TID 0000.0001) %MON ke_max                       =   7.4644665847735E-02
(PID.TID 0000.0001) %MON ke_mean                      =   2.4045150558189E-03
(PID.TID 0000.0001) %MON ke_volint                    =   1.8128655853077E+13
(PID.TID 0000.0001) %MON ke_volmean                   =   8.3068209825390E-04
(PID.TID 0000.0001) %MON ke_vol                       =   2.1823819113454E+16
(PID.TID 0000.0001) %MON surfExpan_theta_mean         =   8.7666166166236E-09
(PID.TID 0000.0001) %MON surfExpan_salt_mean          =  -2.7929801934588E-22
(PID.TID 0000.0001) // =======================================================
(PID.TID 0000.0001) // End MONITOR dynamic field statistics
(PID.TID 0000.0001) // =======================================================
 cg2d: Sum(rhs),rhsMax =   7.77156117237610E-15  1.48309861663818E+00
(PID.TID 0000.0001)                    cg2d_init_res =    1.79460679178654E-05
(PID.TID 0000.0001)                       cg2d_iters =    24
(PID.TID 0000.0001)                         cg2d_res =    9.16247974014662E-13
(PID.TID 0000.0001) // =======================================================
(PID.TID 0000.0001) // Begin MONITOR dynamic field statistics
(PID.TID 0000.0001) // =======================================================
(PID.TID 0000.0001) %MON time_tsnumber                =                 36019
(PID.TID 0000.0001) %MON time_secondsf                =   3.1120416000000E+09
(PID.TID 0000.0001) %MON dynstat_eta_max              =   1.6201255626100E+00
(PID.TID 0000.0001) %MON dynstat_eta_min              =  -3.9377590616188E+00
(PID.TID 0000.0001) %MON dynstat_eta_mean             =  -9.1499044526572E-17
(PID.TID 0000.0001) %MON dynstat_eta_sd               =   1.6564400896233E+00
(PID.TID 0000.0001) %MON dynstat_eta_del2             =   1.3977248014373E-02
(PID.TID 0000.0001) %MON dynstat_uvel_max             =   1.4273076578490E-01
(PID.TID 0000.0001) %MON dynstat_uvel_min             =  -3.8630348481549E-01
(PID.TID 0000.0001) %MON dynstat_uvel_mean            =   1.2664143006907E-02
(PID.TID 0000.0001) %MON dynstat_uvel_sd              =   3.8709262118723E-02
(PID.TID 0000.0001) %MON dynstat_uvel_del2            =   6.1841900742292E-04
(PID.TID 0000.0001) %MON dynstat_vvel_max             =   2.2999723735462E-02
(PID.TID 0000.0001) %MON dynstat_vvel_min             =  -2.2999723735432E-02
(PID.TID 0000.0001) %MON dynstat_vvel_mean            =   1.9587888684344E-15
(PID.TID 0000.0001) %MON dynstat_vvel_sd              =   1.5486347071105E-03
(PID.TID 0000.0001) %MON dynstat_vvel_del2            =   7.2797886692532E-05
(PID.TID 0000.0001) %MON dynstat_wvel_max             =   1.3691450883572E-06
(PID.TID 0000.0001) %MON dynstat_wvel_min             =  -8.1261633229492E-07
(PID.TID 0000.0001) %MON dynstat_wvel_mean            =  -2.7343273889422E-24
(PID.TID 0000.0001) %MON dynstat_wvel_sd              =   2.5358746214968E-07
(PID.TID 0000.0001) %MON dynstat_wvel_del2            =   3.6736318964990E-08
(PID.TID 0000.0001) %MON dynstat_theta_max            =   2.6657013486435E+01
(PID.TID 0000.0001) %MON dynstat_theta_min            =  -9.3077124349684E-01
(PID.TID 0000.0001) %MON dynstat_theta_mean           =   2.2237713573389E+00
(PID.TID 0000.0001) %MON dynstat_theta_sd             =   3.9264968329796E+00
(PID.TID 0000.0001) %MON dynstat_theta_del2           =   4.1714746935668E-02
(PID.TID 0000.0001) %MON dynstat_salt_max             =   3.4700000000000E+01
(PID.TID 0000.0001) %MON dynstat_salt_min             =   3.4700000000000E+01
(PID.TID 0000.0001) %MON dynstat_salt_mean            =   3.4700000000000E+01
(PID.TID 0000.0001) %MON dynstat_salt_sd              =   4.9737991503207E-14
(PID.TID 0000.0001) %MON dynstat_salt_del2            =   0.0000000000000E+00
(PID.TID 0000.0001) %MON advcfl_uvel_max              =   1.0010439865942E-01
(PID.TID 0000.0001) %MON advcfl_vvel_max              =   5.9579699341059E-03
(PID.TID 0000.0001) %MON advcfl_wvel_max              =   1.9715689272344E-03
(PID.TID 0000.0001) %MON advcfl_W_hf_max              =   5.9147067817031E-03
(PID.TID 0000.0001) %MON ke_max                       =   7.4644550288483E-02
(PID.TID 0000.0001) %MON ke_mean                      =   2.4045121977176E-03
(PID.TID 0000.0001) %MON ke_volint                    =   1.8128662110625E+13
(PID.TID 0000.0001) %MON ke_volmean                   =   8.3068238498409E-04
(PID.TID 0000.0001) %MON ke_vol                       =   2.1823819113454E+16
(PID.TID 0000.0001) %MON surfExpan_theta_mean         =   8.7661843245013E-09
(PID.TID 0000.0001) %MON surfExpan_salt_mean          =  -2.7613347545048E-22
(PID.TID 0000.0001) // =======================================================
(PID.TID 0000.0001) // End MONITOR dynamic field statistics
(PID.TID 0000.0001) // =======================================================
 cg2d: Sum(rhs),rhsMax =   7.99360577730113E-15  1.48309977938600E+00
(PID.TID 0000.0001)                    cg2d_init_res =    1.79453211411119E-05
(PID.TID 0000.0001)                       cg2d_iters =    24
(PID.TID 0000.0001)                         cg2d_res =    9.16624244516749E-13
(PID.TID 0000.0001) // =======================================================
(PID.TID 0000.0001) // Begin MONITOR dynamic field statistics
(PID.TID 0000.0001) // =======================================================
(PID.TID 0000.0001) %MON time_tsnumber                =                 36020
(PID.TID 0000.0001) %MON time_secondsf                =   3.1121280000000E+09
(PID.TID 0000.0001) %MON dynstat_eta_max              =   1.6201268798547E+00
(PID.TID 0000.0001) %MON dynstat_eta_min              =  -3.9377598455695E+00
(PID.TID 0000.0001) %MON dynstat_eta_mean             =  -1.5654013703484E-16
(PID.TID 0000.0001) %MON dynstat_eta_sd               =   1.6564422419226E+00
(PID.TID 0000.0001) %MON dynstat_eta_del2             =   1.3977257576166E-02
(PID.TID 0000.0001) %MON dynstat_uvel_max             =   1.4273098628960E-01
(PID.TID 0000.0001) %MON dynstat_uvel_min             =  -3.8630318581873E-01
(PID.TID 0000.0001) %MON dynstat_uvel_mean            =   1.2664366628104E-02
(PID.TID 0000.0001) %MON dynstat_uvel_sd              =   3.8709196348876E-02
(PID.TID 0000.0001) %MON dynstat_uvel_del2            =   6.1841852194107E-04
(PID.TID 0000.0001) %MON dynstat_vvel_max             =   2.2999722292414E-02
(PID.TID 0000.0001) %MON dynstat_vvel_min             =  -2.2999722292384E-02
(PID.TID 0000.0001) %MON dynstat_vvel_mean            =   1.9624584186233E-15
(PID.TID 0000.0001) %MON dynstat_vvel_sd              =   1.5486351299330E-03
(PID.TID 0000.0001) %MON dynstat_vvel_del2            =   7.2798029573886E-05
(PID.TID 0000.0001) %MON dynstat_wvel_max             =   1.3691437129149E-06
(PID.TID 0000.0001) %MON dynstat_wvel_min             =  -8.1261634860094E-07
(PID.TID 0000.0001) %MON dynstat_wvel_mean            =   5.9731350645860E-24
(PID.TID 0000.0001) %MON dynstat_wvel_sd              =   2.5358771224155E-07
(PID.TID 0000.0001) %MON dynstat_wvel_del2            =   3.6736051692043E-08
(PID.TID 0000.0001) %MON dynstat_theta_max            =   2.6657013066611E+01
(PID.TID 0000.0001) %MON dynstat_theta_min            =  -9.3077189200973E-01
(PID.TID 0000.0001) %MON dynstat_theta_mean           =   2.2237625979523E+00
(PID.TID 0000.0001) %MON dynstat_theta_sd             =   3.9264977607172E+00
(PID.TID 0000.0001) %MON dynstat_theta_del2           =   4.1714774408730E-02
(PID.TID 0000.0001) %MON dynstat_salt_max             =   3.4700000000000E+01
(PID.TID 0000.0001) %MON dynstat_salt_min             =   3.4700000000000E+01
(PID.TID 0000.0001) %MON dynstat_salt_mean            =   3.4700000000000E+01
(PID.TID 0000.0001) %MON dynstat_salt_sd              =   4.9737991503207E-14
(PID.TID 0000.0001) %MON dynstat_salt_del2            =   0.0000000000000E+00
(PID.TID 0000.0001) %MON advcfl_uvel_max              =   1.0010432117917E-01
(PID.TID 0000.0001) %MON advcfl_vvel_max              =   5.9579695602911E-03
(PID.TID 0000.0001) %MON advcfl_wvel_max              =   1.9715669465974E-03
(PID.TID 0000.0001) %MON advcfl_W_hf_max              =   5.9147008397923E-03
(PID.TID 0000.0001) %MON ke_max                       =   7.4644434731424E-02
(PID.TID 0000.0001) %MON ke_mean                      =   2.4045093396823E-03
(PID.TID 0000.0001) %MON ke_volint                    =   1.8128668369268E+13
(PID.TID 0000.0001) %MON ke_volmean                   =   8.3068267176445E-04
(PID.TID 0000.0001) %MON ke_vol                       =   2.1823819113454E+16
(PID.TID 0000.0001) %MON surfExpan_theta_mean         =   8.7657520200603E-09
(PID.TID 0000.0001) %MON surfExpan_salt_mean          =   4.2581757822137E-22
(PID.TID 0000.0001) // =======================================================
(PID.TID 0000.0001) // End MONITOR dynamic field statistics
(PID.TID 0000.0001) // =======================================================
(PID.TID 0000.0001)   Seconds in section "ALL                    [THE_MODEL_MAIN]":
(PID.TID 0000.0001)           User time:  3.16000009
(PID.TID 0000.0001)         System time:  0.220000004
(PID.TID 0000.0001)     Wall clock time:  3.38127303
(PID.TID 0000.0001)          No. starts: 1
(PID.TID 0000.0001)           No. stops: 1
(PID.TID 0000.0001)   Seconds in section "INITIALISE_FIXED       [THE_MODEL_MAIN]":
(PID.TID 0000.0001)           User time:  0.170000002
(PID.TID 0000.0001)         System time:  0.0800000038
(PID.TID 0000.0001)     Wall clock time:  0.252267003
(PID.TID 0000.0001)          No. starts: 1
(PID.TID 0000.0001)           No. stops: 1
(PID.TID 0000.0001)   Seconds in section "THE_MAIN_LOOP          [THE_MODEL_MAIN]":
(PID.TID 0000.0001)           User time:  2.89999993
(PID.TID 0000.0001)         System time:  0.099999994
(PID.TID 0000.0001)     Wall clock time:  2.99760389
(PID.TID 0000.0001)          No. starts: 1
(PID.TID 0000.0001)           No. stops: 1
(PID.TID 0000.0001)   Seconds in section "INITIALISE_VARIA    [THE_MAIN_LOOP]":
(PID.TID 0000.0001)           User time:  0.0699999928
(PID.TID 0000.0001)         System time:  0.0399999917
(PID.TID 0000.0001)     Wall clock time:  0.101457
(PID.TID 0000.0001)          No. starts: 1
(PID.TID 0000.0001)           No. stops: 1
(PID.TID 0000.0001)   Seconds in section "WRITE_STATE         [THE_MAIN_LOOP]":
(PID.TID 0000.0001)           User time:  0.049999997
(PID.TID 0000.0001)         System time:  0.0100000054
(PID.TID 0000.0001)     Wall clock time:  0.0624560118
(PID.TID 0000.0001)          No. starts: 1
(PID.TID 0000.0001)           No. stops: 1
(PID.TID 0000.0001)   Seconds in section "MONITOR             [THE_MAIN_LOOP]":
(PID.TID 0000.0001)           User time:  0.0100000203
(PID.TID 0000.0001)         System time:  0.
(PID.TID 0000.0001)     Wall clock time:  0.0083719492
(PID.TID 0000.0001)          No. starts: 1
(PID.TID 0000.0001)           No. stops: 1
(PID.TID 0000.0001)   Seconds in section "MAIN LOOP           [THE_MAIN_LOOP]":
(PID.TID 0000.0001)           User time:  2.76999992
(PID.TID 0000.0001)         System time:  0.049999997
(PID.TID 0000.0001)     Wall clock time:  2.82493794
(PID.TID 0000.0001)          No. starts: 1
(PID.TID 0000.0001)           No. stops: 1
(PID.TID 0000.0001)   Seconds in section "FORWARD_STEP        [THE_MAIN_LOOP]":
(PID.TID 0000.0001)           User time:  2.76999992
(PID.TID 0000.0001)         System time:  0.049999997
(PID.TID 0000.0001)     Wall clock time:  2.82344198
(PID.TID 0000.0001)          No. starts: 20
(PID.TID 0000.0001)           No. stops: 20
(PID.TID 0000.0001)   Seconds in section "UPDATE_ETAH        [FORWARD_STEP]":
(PID.TID 0000.0001)           User time:  0.
(PID.TID 0000.0001)         System time:  0.
(PID.TID 0000.0001)     Wall clock time:  0.00189983845
(PID.TID 0000.0001)          No. starts: 20
(PID.TID 0000.0001)           No. stops: 20
(PID.TID 0000.0001)   Seconds in section "EXTERNAL_FIELDS_LOAD[FORWARD_STEP]":
(PID.TID 0000.0001)           User time:  0.
(PID.TID 0000.0001)         System time:  0.
(PID.TID 0000.0001)     Wall clock time:  0.00142514706
(PID.TID 0000.0001)          No. starts: 20
(PID.TID 0000.0001)           No. stops: 20
(PID.TID 0000.0001)   Seconds in section "THERMODYNAMICS      [FORWARD_STEP]":
(PID.TID 0000.0001)           User time:  1.30000025
(PID.TID 0000.0001)         System time:  0.
(PID.TID 0000.0001)     Wall clock time:  1.3103081
(PID.TID 0000.0001)          No. starts: 20
(PID.TID 0000.0001)           No. stops: 20
(PID.TID 0000.0001)   Seconds in section "BLOCKING_EXCHANGES  [FORWARD_STEP]":
(PID.TID 0000.0001)           User time:  0.199999928
(PID.TID 0000.0001)         System time:  0.
(PID.TID 0000.0001)     Wall clock time:  0.17243135
(PID.TID 0000.0001)          No. starts: 40
(PID.TID 0000.0001)           No. stops: 40
(PID.TID 0000.0001)   Seconds in section "DYNAMICS            [FORWARD_STEP]":
(PID.TID 0000.0001)           User time:  0.879999548
(PID.TID 0000.0001)         System time:  0.
(PID.TID 0000.0001)     Wall clock time:  0.87843287
(PID.TID 0000.0001)          No. starts: 20
(PID.TID 0000.0001)           No. stops: 20
(PID.TID 0000.0001)   Seconds in section "SOLVE_FOR_PRESSURE  [FORWARD_STEP]":
(PID.TID 0000.0001)           User time:  0.130000263
(PID.TID 0000.0001)         System time:  0.
(PID.TID 0000.0001)     Wall clock time:  0.118700385
(PID.TID 0000.0001)          No. starts: 20
(PID.TID 0000.0001)           No. stops: 20
(PID.TID 0000.0001)   Seconds in section "THE_CORRECTION_STEP [FORWARD_STEP]":
(PID.TID 0000.0001)           User time:  0.0899999738
(PID.TID 0000.0001)         System time:  0.
(PID.TID 0000.0001)     Wall clock time:  0.101250291
(PID.TID 0000.0001)          No. starts: 20
(PID.TID 0000.0001)           No. stops: 20
(PID.TID 0000.0001)   Seconds in section "MONITOR             [FORWARD_STEP]":
(PID.TID 0000.0001)           User time:  0.149999976
(PID.TID 0000.0001)         System time:  0.
(PID.TID 0000.0001)     Wall clock time:  0.161679864
(PID.TID 0000.0001)          No. starts: 20
(PID.TID 0000.0001)           No. stops: 20
(PID.TID 0000.0001)   Seconds in section "DO_THE_MODEL_IO     [FORWARD_STEP]":
(PID.TID 0000.0001)           User time:  0.00999999046
(PID.TID 0000.0001)         System time:  0.049999997
(PID.TID 0000.0001)     Wall clock time:  0.0582978725
(PID.TID 0000.0001)          No. starts: 20
(PID.TID 0000.0001)           No. stops: 20
(PID.TID 0000.0001)   Seconds in section "WRITE_CHECKPOINT    [FORWARD_STEP]":
(PID.TID 0000.0001)           User time:  0.
(PID.TID 0000.0001)         System time:  0.
(PID.TID 0000.0001)     Wall clock time:  0.00144088268
(PID.TID 0000.0001)          No. starts: 20
(PID.TID 0000.0001)           No. stops: 20
(PID.TID 0000.0001)   Seconds in section "WRITE_CHECKPOINT       [THE_MODEL_MAIN]":
(PID.TID 0000.0001)           User time:  0.0900001526
(PID.TID 0000.0001)         System time:  0.0400000066
(PID.TID 0000.0001)     Wall clock time:  0.130861044
(PID.TID 0000.0001)          No. starts: 1
(PID.TID 0000.0001)           No. stops: 1
(PID.TID 0000.0001) // ======================================================
(PID.TID 0000.0001) // Tile <-> Tile communication statistics
(PID.TID 0000.0001) // ======================================================
(PID.TID 0000.0001) // o Tile number: 000001
(PID.TID 0000.0001) //         No. X exchanges =              0
(PID.TID 0000.0001) //            Max. X spins =              0
(PID.TID 0000.0001) //            Min. X spins =     1000000000
(PID.TID 0000.0001) //          Total. X spins =              0
(PID.TID 0000.0001) //            Avg. X spins =       0.00E+00
(PID.TID 0000.0001) //         No. Y exchanges =              0
(PID.TID 0000.0001) //            Max. Y spins =              0
(PID.TID 0000.0001) //            Min. Y spins =     1000000000
(PID.TID 0000.0001) //          Total. Y spins =              0
(PID.TID 0000.0001) //            Avg. Y spins =       0.00E+00
(PID.TID 0000.0001) // o Tile number: 000002
(PID.TID 0000.0001) //         No. X exchanges =              0
(PID.TID 0000.0001) //            Max. X spins =              0
(PID.TID 0000.0001) //            Min. X spins =     1000000000
(PID.TID 0000.0001) //          Total. X spins =              0
(PID.TID 0000.0001) //            Avg. X spins =       0.00E+00
(PID.TID 0000.0001) //         No. Y exchanges =              0
(PID.TID 0000.0001) //            Max. Y spins =              0
(PID.TID 0000.0001) //            Min. Y spins =     1000000000
(PID.TID 0000.0001) //          Total. Y spins =              0
(PID.TID 0000.0001) //            Avg. Y spins =       0.00E+00
(PID.TID 0000.0001) // o Tile number: 000003
(PID.TID 0000.0001) //         No. X exchanges =              0
(PID.TID 0000.0001) //            Max. X spins =              0
(PID.TID 0000.0001) //            Min. X spins =     1000000000
(PID.TID 0000.0001) //          Total. X spins =              0
(PID.TID 0000.0001) //            Avg. X spins =       0.00E+00
(PID.TID 0000.0001) //         No. Y exchanges =              0
(PID.TID 0000.0001) //            Max. Y spins =              0
(PID.TID 0000.0001) //            Min. Y spins =     1000000000
(PID.TID 0000.0001) //          Total. Y spins =              0
(PID.TID 0000.0001) //            Avg. Y spins =       0.00E+00
(PID.TID 0000.0001) // o Tile number: 000004
(PID.TID 0000.0001) //         No. X exchanges =              0
(PID.TID 0000.0001) //            Max. X spins =              0
(PID.TID 0000.0001) //            Min. X spins =     1000000000
(PID.TID 0000.0001) //          Total. X spins =              0
(PID.TID 0000.0001) //            Avg. X spins =       0.00E+00
(PID.TID 0000.0001) //         No. Y exchanges =              0
(PID.TID 0000.0001) //            Max. Y spins =              0
(PID.TID 0000.0001) //            Min. Y spins =     1000000000
(PID.TID 0000.0001) //          Total. Y spins =              0
(PID.TID 0000.0001) //            Avg. Y spins =       0.00E+00
(PID.TID 0000.0001) // o Thread number: 000001
(PID.TID 0000.0001) //            No. barriers =          11634
(PID.TID 0000.0001) //      Max. barrier spins =              1
(PID.TID 0000.0001) //      Min. barrier spins =              1
(PID.TID 0000.0001) //     Total barrier spins =          11634
(PID.TID 0000.0001) //      Avg. barrier spins =       1.00E+00
