(PID.TID 0000.0001) 
(PID.TID 0000.0001) // ======================================================
(PID.TID 0000.0001) //                      MITgcm UV
(PID.TID 0000.0001) //                      =========
(PID.TID 0000.0001) // ======================================================
(PID.TID 0000.0001) // execution environment starting up...
(PID.TID 0000.0001) // Run starting Wed Apr  1 14:19:48 1998
(PID.TID 0000.0001) // on melville.lcs.mit.edu
(PID.TID 0000.0001) // account cnh
(PID.TID 0000.0001) // MITgcm UV Release: $Name:  $
(PID.TID 0000.0001) 
(PID.TID 0000.0001) // =======================================================
(PID.TID 0000.0001) // Execution Environment parameter file "eedata"
(PID.TID 0000.0001) // =======================================================
(PID.TID 0000.0001) ># Example "eedata" file
(PID.TID 0000.0001) ># Lines beginning "#" are comments
(PID.TID 0000.0001) ># nTx - No. threads per process in X
(PID.TID 0000.0001) ># nTy - No. threads per process in Y
(PID.TID 0000.0001) > &EEPARMS
(PID.TID 0000.0001) > nTx=1,nTy=1
(PID.TID 0000.0001) > &
(PID.TID 0000.0001) ># Note: Some systems use & as the
(PID.TID 0000.0001) ># namelist terminator. Other systems
(PID.TID 0000.0001) ># use a / character (as shown here).
(PID.TID 0000.0001) 
(PID.TID 0000.0001) // =======================================================
(PID.TID 0000.0001) // Computational Grid Specification ( see files "SIZE.h" )
(PID.TID 0000.0001) //                                  ( and "eedata"       )
(PID.TID 0000.0001) // =======================================================
(PID.TID 0000.0001)      nPx =    1 ; /* No. processes in X */
(PID.TID 0000.0001)      nPy =    1 ; /* No. processes in Y */
(PID.TID 0000.0001)      nSx =    1 ; /* No. tiles in X per process */
(PID.TID 0000.0001)      nSy =    4 ; /* No. tiles in Y per process */
(PID.TID 0000.0001)      sNx =    1 ; /* Tile size in X */
(PID.TID 0000.0001)      sNy =   14 ; /* Tile size in Y */
(PID.TID 0000.0001)      OLx =    3 ; /* Tile overlap distance in X */
(PID.TID 0000.0001)      OLy =    3 ; /* Tile overlap distance in Y */
(PID.TID 0000.0001)      nTx =    1 ; /* No. threads in X per process */
(PID.TID 0000.0001)      nTy =    1 ; /* No. threads in Y per process */
(PID.TID 0000.0001)       Nr =   15 ; /* No. levels in the vertical   */
(PID.TID 0000.0001)       nX =    1 ; /* Total domain size in X ( = nPx*nSx*sNx ) */
(PID.TID 0000.0001)       nY =   56 ; /* Total domain size in Y ( = nPy*nSy*sNy ) */
(PID.TID 0000.0001)   nTiles =    4 ; /* Total no. tiles per process ( = nSx*nSy ) */
(PID.TID 0000.0001)   nProcs =    1 ; /* Total no. processes ( = nPx*nPy ) */
(PID.TID 0000.0001) nThreads =    1 ; /* Total no. threads per process ( = nTx*nTy ) */
(PID.TID 0000.0001) usingMPI =    F ; /* Flag used to control whether MPI is in use */
(PID.TID 0000.0001)                   /*  note: To execute a program with MPI calls */
(PID.TID 0000.0001)                   /*  it must be launched appropriately e.g     */
(PID.TID 0000.0001)                   /*  "mpirun -np 64 ......"                    */
(PID.TID 0000.0001) 
(PID.TID 0000.0001) // ======================================================
(PID.TID 0000.0001) // Mapping of tiles to threads
(PID.TID 0000.0001) // ======================================================
(PID.TID 0000.0001) // -o- Thread   1, tiles (   1:   1,   1:   4)
(PID.TID 0000.0001) 
(PID.TID 0000.0001) // ======================================================
(PID.TID 0000.0001) // Tile <-> Tile connectvity table
(PID.TID 0000.0001) // ======================================================
(PID.TID 0000.0001) // Tile number: 000001 (process no. = 000001)
(PID.TID 0000.0001) //        WEST: Tile = 000001, Process = 000001, Comm = put
(PID.TID 0000.0001) //                bi = 000001, bj = 000001
(PID.TID 0000.0001) //        EAST: Tile = 000001, Process = 000001, Comm = put
(PID.TID 0000.0001) //                bi = 000001, bj = 000001
(PID.TID 0000.0001) //       SOUTH: Tile = 000004, Process = 000001, Comm = put
(PID.TID 0000.0001) //                bi = 000001, bj = 000004
(PID.TID 0000.0001) //       NORTH: Tile = 000002, Process = 000001, Comm = put
(PID.TID 0000.0001) //                bi = 000001, bj = 000002
(PID.TID 0000.0001) // Tile number: 000002 (process no. = 000001)
(PID.TID 0000.0001) //        WEST: Tile = 000002, Process = 000001, Comm = put
(PID.TID 0000.0001) //                bi = 000001, bj = 000002
(PID.TID 0000.0001) //        EAST: Tile = 000002, Process = 000001, Comm = put
(PID.TID 0000.0001) //                bi = 000001, bj = 000002
(PID.TID 0000.0001) //       SOUTH: Tile = 000001, Process = 000001, Comm = put
(PID.TID 0000.0001) //                bi = 000001, bj = 000001
(PID.TID 0000.0001) //       NORTH: Tile = 000003, Process = 000001, Comm = put
(PID.TID 0000.0001) //                bi = 000001, bj = 000003
(PID.TID 0000.0001) // Tile number: 000003 (process no. = 000001)
(PID.TID 0000.0001) //        WEST: Tile = 000003, Process = 000001, Comm = put
(PID.TID 0000.0001) //                bi = 000001, bj = 000003
(PID.TID 0000.0001) //        EAST: Tile = 000003, Process = 000001, Comm = put
(PID.TID 0000.0001) //                bi = 000001, bj = 000003
(PID.TID 0000.0001) //       SOUTH: Tile = 000002, Process = 000001, Comm = put
(PID.TID 0000.0001) //                bi = 000001, bj = 000002
(PID.TID 0000.0001) //       NORTH: Tile = 000004, Process = 000001, Comm = put
(PID.TID 0000.0001) //                bi = 000001, bj = 000004
(PID.TID 0000.0001) // Tile number: 000004 (process no. = 000001)
(PID.TID 0000.0001) //        WEST: Tile = 000004, Process = 000001, Comm = put
(PID.TID 0000.0001) //                bi = 000001, bj = 000004
(PID.TID 0000.0001) //        EAST: Tile = 000004, Process = 000001, Comm = put
(PID.TID 0000.0001) //                bi = 000001, bj = 000004
(PID.TID 0000.0001) //       SOUTH: Tile = 000003, Process = 000001, Comm = put
(PID.TID 0000.0001) //                bi = 000001, bj = 000003
(PID.TID 0000.0001) //       NORTH: Tile = 000001, Process = 000001, Comm = put
(PID.TID 0000.0001) //                bi = 000001, bj = 000001
(PID.TID 0000.0001) 
(PID.TID 0000.0001) // =======================================================
(PID.TID 0000.0001) // Model parameter file "data"
(PID.TID 0000.0001) // =======================================================
(PID.TID 0000.0001) ># ====================
(PID.TID 0000.0001) ># | Model parameters |
(PID.TID 0000.0001) ># ====================
(PID.TID 0000.0001) >#
(PID.TID 0000.0001) ># Continuous equation parameters
(PID.TID 0000.0001) > &PARM01
(PID.TID 0000.0001) > tRef= 18.8, 16.3, 13.1, 10.4, 8.1, 6.0, 4.5,
(PID.TID 0000.0001) >      3.4, 2.7, 2.2, 1.8, 1.5, 1.2, 1.0, 0.9,
(PID.TID 0000.0001) > sRef= 15*34.7,
(PID.TID 0000.0001) > cosPower=1.,
(PID.TID 0000.0001) > viscAr=1.E-3,
(PID.TID 0000.0001) > viscAh=12.E5,
(PID.TID 0000.0001) > no_slip_sides=.FALSE.,
(PID.TID 0000.0001) > no_slip_bottom=.TRUE.,
(PID.TID 0000.0001) > bottomDragLinear=1.E-3,
(PID.TID 0000.0001) >#diffK4T=2.E12,
(PID.TID 0000.0001) > diffKhT=0.E3,
(PID.TID 0000.0001) > diffKrT=1.E-5,
(PID.TID 0000.0001) > ivdc_kappa=100.,
(PID.TID 0000.0001) > implicitDiffusion=.TRUE.,
(PID.TID 0000.0001) > eosType='LINEAR',
(PID.TID 0000.0001) > tAlpha=2.E-4,
(PID.TID 0000.0001) > sBeta =0.E-4,
(PID.TID 0000.0001) > saltStepping=.FALSE.,
(PID.TID 0000.0001) > gravity=9.81,
(PID.TID 0000.0001) > rhonil=1035.,
(PID.TID 0000.0001) > implicitFreeSurface=.TRUE.,
(PID.TID 0000.0001) > exactConserv=.TRUE.,
(PID.TID 0000.0001) > staggerTimeStep=.TRUE.,
(PID.TID 0000.0001) > useCDscheme=.TRUE.,
(PID.TID 0000.0001) > readBinaryPrec=64,
(PID.TID 0000.0001) > tempAdvScheme=77,
(PID.TID 0000.0001) > &
(PID.TID 0000.0001) >
(PID.TID 0000.0001) ># Elliptic solver parameters
(PID.TID 0000.0001) > &PARM02
(PID.TID 0000.0001) > cg2dMaxIters=1000,
(PID.TID 0000.0001) >#cg2dTargetResidual=1.E-13,
(PID.TID 0000.0001) > cg2dTargetResWunit=1.E-17,
(PID.TID 0000.0001) > &
(PID.TID 0000.0001) >
(PID.TID 0000.0001) ># Time stepping parameters
(PID.TID 0000.0001) > &PARM03
(PID.TID 0000.0001) > niter0=36000,
(PID.TID 0000.0001) > nTimeSteps=20,
(PID.TID 0000.0001) >#endTime=3110400000.,
(PID.TID 0000.0001) > deltaTmom=1200.0,
(PID.TID 0000.0001) > deltaTfreesurf=3600.0,
(PID.TID 0000.0001) > deltaTtracer=86400.0,
(PID.TID 0000.0001) > deltaTClock =86400.0,
(PID.TID 0000.0001) > abEps=0.1,
(PID.TID 0000.0001) > tauCD=321428.,
(PID.TID 0000.0001) > tauThetaClimRelax=2592000.0,
(PID.TID 0000.0001) > chkptFreq=0.0,
(PID.TID 0000.0001) > pChkptFreq=3110400000.0,
(PID.TID 0000.0001) > taveFreq=1555200000.0,
(PID.TID 0000.0001) > dumpFreq=1555200000.0,
(PID.TID 0000.0001) > diagFreq=1555200000.0,
(PID.TID 0000.0001) >#monitorFreq=31104000.0,
(PID.TID 0000.0001) > monitorFreq=1.0,
(PID.TID 0000.0001) > &
(PID.TID 0000.0001) >
(PID.TID 0000.0001) ># Gridding parameters
(PID.TID 0000.0001) > &PARM04
(PID.TID 0000.0001) > usingCartesianGrid=.FALSE.,
(PID.TID 0000.0001) > usingSphericalPolarGrid=.TRUE.,
(PID.TID 0000.0001) > delRc= 20.,  60.,  85., 120., 165., 215., 265., 315.,
(PID.TID 0000.0001) >       365., 415., 465., 515., 565., 615., 665., 350.,
(PID.TID 0000.0001) > phiMin=-84.,
(PID.TID 0000.0001) > delY=56*3,
(PID.TID 0000.0001) > delX=1*3,
(PID.TID 0000.0001) > &
(PID.TID 0000.0001) >
(PID.TID 0000.0001) ># Input datasets
(PID.TID 0000.0001) > &PARM05
(PID.TID 0000.0001) > bathyFile='topo_sl.bin',
(PID.TID 0000.0001) > zonalWindFile='taux_sl.bin',
(PID.TID 0000.0001) > thetaClimFile='sst_sl.bin',
(PID.TID 0000.0001) > &
(PID.TID 0000.0001) 
(PID.TID 0000.0001) S/R INI_PARMS ; read PARM01 : OK
(PID.TID 0000.0001) S/R INI_PARMS ; read PARM02 : OK
(PID.TID 0000.0001) S/R INI_PARMS ; read PARM03 : OK
(PID.TID 0000.0001) S/R INI_PARMS ; read PARM04 : OK
(PID.TID 0000.0001) S/R INI_PARMS ; read PARM05 : OK
(PID.TID 0000.0001) %MON XC_max                       =   1.5000000000000E+00
(PID.TID 0000.0001) %MON XC_min                       =   1.5000000000000E+00
(PID.TID 0000.0001) %MON XC_mean                      =   1.5000000000000E+00
(PID.TID 0000.0001) %MON XC_sd                        =   0.0000000000000E+00
(PID.TID 0000.0001) %MON XG_max                       =   0.0000000000000E+00
(PID.TID 0000.0001) %MON XG_min                       =   0.0000000000000E+00
(PID.TID 0000.0001) %MON XG_mean                      =   0.0000000000000E+00
(PID.TID 0000.0001) %MON XG_sd                        =   0.0000000000000E+00
(PID.TID 0000.0001) %MON DXC_max                      =   3.3341812682592E+05
(PID.TID 0000.0001) %MON DXC_min                      =   4.3534716771864E+04
(PID.TID 0000.0001) %MON DXC_mean                     =   2.2627957857351E+05
(PID.TID 0000.0001) %MON DXC_sd                       =   9.1462046601761E+04
(PID.TID 0000.0001) %MON DXF_max                      =   3.3341812682592E+05
(PID.TID 0000.0001) %MON DXF_min                      =   4.3534716771864E+04
(PID.TID 0000.0001) %MON DXF_mean                     =   2.2627957857351E+05
(PID.TID 0000.0001) %MON DXF_sd                       =   9.1462046601761E+04
(PID.TID 0000.0001) %MON DXG_max                      =   3.3353242005612E+05
(PID.TID 0000.0001) %MON DXG_min                      =   3.4863631318407E+04
(PID.TID 0000.0001) %MON DXG_mean                     =   2.2620203821339E+05
(PID.TID 0000.0001) %MON DXG_sd                       =   9.1624145029333E+04
(PID.TID 0000.0001) %MON DXV_max                      =   3.3353242005612E+05
(PID.TID 0000.0001) %MON DXV_min                      =   3.4863631318407E+04
(PID.TID 0000.0001) %MON DXV_mean                     =   2.2620203821339E+05
(PID.TID 0000.0001) %MON DXV_sd                       =   9.1624145029333E+04
(PID.TID 0000.0001) %MON YC_max                       =   8.2500000000000E+01
(PID.TID 0000.0001) %MON YC_min                       =  -8.2500000000000E+01
(PID.TID 0000.0001) %MON YC_mean                      =   0.0000000000000E+00
(PID.TID 0000.0001) %MON YC_sd                        =   4.8489689625734E+01
(PID.TID 0000.0001) %MON YG_max                       =   8.1000000000000E+01
(PID.TID 0000.0001) %MON YG_min                       =  -8.4000000000000E+01
(PID.TID 0000.0001) %MON YG_mean                      =  -1.5272727272727E+00
(PID.TID 0000.0001) %MON YG_sd                        =   4.8928093638598E+01
(PID.TID 0000.0001) %MON DYC_max                      =   3.3353242005612E+05
(PID.TID 0000.0001) %MON DYC_min                      =   3.3353242005612E+05
(PID.TID 0000.0001) %MON DYC_mean                     =   3.3353242005612E+05
(PID.TID 0000.0001) %MON DYC_sd                       =   2.3283064365387E-10
(PID.TID 0000.0001) %MON DYF_max                      =   3.3353242005612E+05
(PID.TID 0000.0001) %MON DYF_min                      =   3.3353242005612E+05
(PID.TID 0000.0001) %MON DYF_mean                     =   3.3353242005612E+05
(PID.TID 0000.0001) %MON DYF_sd                       =   2.3283064365387E-10
(PID.TID 0000.0001) %MON DYG_max                      =   3.3353242005612E+05
(PID.TID 0000.0001) %MON DYG_min                      =   3.3353242005612E+05
(PID.TID 0000.0001) %MON DYG_mean                     =   3.3353242005612E+05
(PID.TID 0000.0001) %MON DYG_sd                       =   2.3283064365387E-10
(PID.TID 0000.0001) %MON DYU_max                      =   3.3353242005612E+05
(PID.TID 0000.0001) %MON DYU_min                      =   3.3353242005612E+05
(PID.TID 0000.0001) %MON DYU_mean                     =   3.3353242005612E+05
(PID.TID 0000.0001) %MON DYU_sd                       =   2.3283064365387E-10
(PID.TID 0000.0001) %MON RA_max                       =   1.1119305196237E+11
(PID.TID 0000.0001) %MON RA_min                       =   1.4518580829015E+10
(PID.TID 0000.0001) %MON RA_mean                      =   7.5462954512622E+10
(PID.TID 0000.0001) %MON RA_sd                        =   3.0502073169179E+10
(PID.TID 0000.0001) %MON RAW_max                      =   1.1119305196237E+11
(PID.TID 0000.0001) %MON RAW_min                      =   1.4518580829015E+10
(PID.TID 0000.0001) %MON RAW_mean                     =   7.5462954512622E+10
(PID.TID 0000.0001) %MON RAW_sd                       =   3.0502073169179E+10
(PID.TID 0000.0001) %MON RAS_max                      =   1.1123116810562E+11
(PID.TID 0000.0001) %MON RAS_min                      =   1.1626823069547E+10
(PID.TID 0000.0001) %MON RAS_mean                     =   7.5437095242840E+10
(PID.TID 0000.0001) %MON RAS_sd                       =   3.0556132074289E+10
(PID.TID 0000.0001) %MON RAZ_max                      =   1.1123116810562E+11
(PID.TID 0000.0001) %MON RAZ_min                      =   1.1626823069547E+10
(PID.TID 0000.0001) %MON RAZ_mean                     =   7.5437095242840E+10
(PID.TID 0000.0001) %MON RAZ_sd                       =   3.0556132074289E+10
(PID.TID 0000.0001)  MDSREADFIELD: opening global file: topo_sl.bin
(PID.TID 0000.0001) // =======================================================
(PID.TID 0000.0001) // Field Model R_low (ini_masks_etc) at iteration          1
(PID.TID 0000.0001) // CMIN =         -5.200000000000000E+03
(PID.TID 0000.0001) // CMAX =         -5.200000000000000E+03
(PID.TID 0000.0001) // CINT =          0.000000000000000E+00
(PID.TID 0000.0001) // SYMBOLS (CMIN->CMAX): -abcdefghijklmnopqrstuvwxyz+
(PID.TID 0000.0001) //                  0.0: .
(PID.TID 0000.0001) // RANGE I (Lo:Hi:Step):(  -2:   4:   1)
(PID.TID 0000.0001) // RANGE J (Lo:Hi:Step):(  59:  -2:  -1)
(PID.TID 0000.0001) // RANGE K (Lo:Hi:Step):(   1:   1:   1)
(PID.TID 0000.0001) // =======================================================
(PID.TID 0000.0001) K =   1
(PID.TID 0000.0001) //
(PID.TID 0000.0001) // |--J--|**01234
(PID.TID 0000.0001) //     59 .......
(PID.TID 0000.0001) //     58 -------
(PID.TID 0000.0001) //     57 .......
(PID.TID 0000.0001) //     56 .......
(PID.TID 0000.0001) //     55 -------
(PID.TID 0000.0001) //     54 -------
(PID.TID 0000.0001) //     53 -------
(PID.TID 0000.0001) //     52 -------
(PID.TID 0000.0001) //     51 -------
(PID.TID 0000.0001) //     50 -------
(PID.TID 0000.0001) //     49 -------
(PID.TID 0000.0001) //     48 -------
(PID.TID 0000.0001) //     47 -------
(PID.TID 0000.0001) //     46 -------
(PID.TID 0000.0001) //     45 -------
(PID.TID 0000.0001) //     44 -------
(PID.TID 0000.0001) //     43 -------
(PID.TID 0000.0001) //     42 -------
(PID.TID 0000.0001) //     41 -------
(PID.TID 0000.0001) //     40 -------
(PID.TID 0000.0001) //     45 -------
(PID.TID 0000.0001) //     44 -------
(PID.TID 0000.0001) //     43 -------
(PID.TID 0000.0001) //     42 -------
(PID.TID 0000.0001) //     41 -------
(PID.TID 0000.0001) //     40 -------
(PID.TID 0000.0001) //     39 -------
(PID.TID 0000.0001) //     38 -------
(PID.TID 0000.0001) //     37 -------
(PID.TID 0000.0001) //     36 -------
(PID.TID 0000.0001) //     35 -------
(PID.TID 0000.0001) //     34 -------
(PID.TID 0000.0001) //     33 -------
(PID.TID 0000.0001) //     32 -------
(PID.TID 0000.0001) //     31 -------
(PID.TID 0000.0001) //     30 -------
(PID.TID 0000.0001) //     29 -------
(PID.TID 0000.0001) //     28 -------
(PID.TID 0000.0001) //     27 -------
(PID.TID 0000.0001) //     26 -------
(PID.TID 0000.0001) //     31 -------
(PID.TID 0000.0001) //     30 -------
(PID.TID 0000.0001) //     29 -------
(PID.TID 0000.0001) //     28 -------
(PID.TID 0000.0001) //     27 -------
(PID.TID 0000.0001) //     26 -------
(PID.TID 0000.0001) //     25 -------
(PID.TID 0000.0001) //     24 -------
(PID.TID 0000.0001) //     23 -------
(PID.TID 0000.0001) //     22 -------
(PID.TID 0000.0001) //     21 -------
(PID.TID 0000.0001) //     20 -------
(PID.TID 0000.0001) //     19 -------
(PID.TID 0000.0001) //     18 -------
(PID.TID 0000.0001) //     17 -------
(PID.TID 0000.0001) //     16 -------
(PID.TID 0000.0001) //     15 -------
(PID.TID 0000.0001) //     14 -------
(PID.TID 0000.0001) //     13 -------
(PID.TID 0000.0001) //     12 -------
(PID.TID 0000.0001) //     17 -------
(PID.TID 0000.0001) //     16 -------
(PID.TID 0000.0001) //     15 -------
(PID.TID 0000.0001) //     14 -------
(PID.TID 0000.0001) //     13 -------
(PID.TID 0000.0001) //     12 -------
(PID.TID 0000.0001) //     11 -------
(PID.TID 0000.0001) //     10 -------
(PID.TID 0000.0001) //      9 -------
(PID.TID 0000.0001) //      8 -------
(PID.TID 0000.0001) //      7 -------
(PID.TID 0000.0001) //      6 -------
(PID.TID 0000.0001) //      5 -------
(PID.TID 0000.0001) //      4 -------
(PID.TID 0000.0001) //      3 -------
(PID.TID 0000.0001) //      2 -------
(PID.TID 0000.0001) //      1 .......
(PID.TID 0000.0001) //      0 .......
(PID.TID 0000.0001) //     -1 -------
(PID.TID 0000.0001) //     -2 .......
(PID.TID 0000.0001) // =======================================================
(PID.TID 0000.0001) // END OF FIELD                                          =
(PID.TID 0000.0001) // =======================================================
(PID.TID 0000.0001) 
(PID.TID 0000.0001) // =======================================================
(PID.TID 0000.0001) // Field Model Ro_surf (ini_masks_etc) at iteration          1
(PID.TID 0000.0001) // CMIN =          1.000000000000000E+32
(PID.TID 0000.0001) // CMAX =         -1.000000000000000E+32
(PID.TID 0000.0001) // CINT =          0.000000000000000E+00
(PID.TID 0000.0001) // SYMBOLS (CMIN->CMAX): -abcdefghijklmnopqrstuvwxyz+
(PID.TID 0000.0001) //                  0.0: .
(PID.TID 0000.0001) // RANGE I (Lo:Hi:Step):(  -2:   4:   1)
(PID.TID 0000.0001) // RANGE J (Lo:Hi:Step):(  59:  -2:  -1)
(PID.TID 0000.0001) // RANGE K (Lo:Hi:Step):(   1:   1:   1)
(PID.TID 0000.0001) // =======================================================
(PID.TID 0000.0001) K =   1
(PID.TID 0000.0001) //
(PID.TID 0000.0001) // |--J--|**01234
(PID.TID 0000.0001) //     59 .......
(PID.TID 0000.0001) //     58 .......
(PID.TID 0000.0001) //     57 .......
(PID.TID 0000.0001) //     56 .......
(PID.TID 0000.0001) //     55 .......
(PID.TID 0000.0001) //     54 .......
(PID.TID 0000.0001) //     53 .......
(PID.TID 0000.0001) //     52 .......
(PID.TID 0000.0001) //     51 .......
(PID.TID 0000.0001) //     50 .......
(PID.TID 0000.0001) //     49 .......
(PID.TID 0000.0001) //     48 .......
(PID.TID 0000.0001) //     47 .......
(PID.TID 0000.0001) //     46 .......
(PID.TID 0000.0001) //     45 .......
(PID.TID 0000.0001) //     44 .......
(PID.TID 0000.0001) //     43 .......
(PID.TID 0000.0001) //     42 .......
(PID.TID 0000.0001) //     41 .......
(PID.TID 0000.0001) //     40 .......
(PID.TID 0000.0001) //     45 .......
(PID.TID 0000.0001) //     44 .......
(PID.TID 0000.0001) //     43 .......
(PID.TID 0000.0001) //     42 .......
(PID.TID 0000.0001) //     41 .......
(PID.TID 0000.0001) //     40 .......
(PID.TID 0000.0001) //     39 .......
(PID.TID 0000.0001) //     38 .......
(PID.TID 0000.0001) //     37 .......
(PID.TID 0000.0001) //     36 .......
(PID.TID 0000.0001) //     35 .......
(PID.TID 0000.0001) //     34 .......
(PID.TID 0000.0001) //     33 .......
(PID.TID 0000.0001) //     32 .......
(PID.TID 0000.0001) //     31 .......
(PID.TID 0000.0001) //     30 .......
(PID.TID 0000.0001) //     29 .......
(PID.TID 0000.0001) //     28 .......
(PID.TID 0000.0001) //     27 .......
(PID.TID 0000.0001) //     26 .......
(PID.TID 0000.0001) //     31 .......
(PID.TID 0000.0001) //     30 .......
(PID.TID 0000.0001) //     29 .......
(PID.TID 0000.0001) //     28 .......
(PID.TID 0000.0001) //     27 .......
(PID.TID 0000.0001) //     26 .......
(PID.TID 0000.0001) //     25 .......
(PID.TID 0000.0001) //     24 .......
(PID.TID 0000.0001) //     23 .......
(PID.TID 0000.0001) //     22 .......
(PID.TID 0000.0001) //     21 .......
(PID.TID 0000.0001) //     20 .......
(PID.TID 0000.0001) //     19 .......
(PID.TID 0000.0001) //     18 .......
(PID.TID 0000.0001) //     17 .......
(PID.TID 0000.0001) //     16 .......
(PID.TID 0000.0001) //     15 .......
(PID.TID 0000.0001) //     14 .......
(PID.TID 0000.0001) //     13 .......
(PID.TID 0000.0001) //     12 .......
(PID.TID 0000.0001) //     17 .......
(PID.TID 0000.0001) //     16 .......
(PID.TID 0000.0001) //     15 .......
(PID.TID 0000.0001) //     14 .......
(PID.TID 0000.0001) //     13 .......
(PID.TID 0000.0001) //     12 .......
(PID.TID 0000.0001) //     11 .......
(PID.TID 0000.0001) //     10 .......
(PID.TID 0000.0001) //      9 .......
(PID.TID 0000.0001) //      8 .......
(PID.TID 0000.0001) //      7 .......
(PID.TID 0000.0001) //      6 .......
(PID.TID 0000.0001) //      5 .......
(PID.TID 0000.0001) //      4 .......
(PID.TID 0000.0001) //      3 .......
(PID.TID 0000.0001) //      2 .......
(PID.TID 0000.0001) //      1 .......
(PID.TID 0000.0001) //      0 .......
(PID.TID 0000.0001) //     -1 .......
(PID.TID 0000.0001) //     -2 .......
(PID.TID 0000.0001) // =======================================================
(PID.TID 0000.0001) // END OF FIELD                                          =
(PID.TID 0000.0001) // =======================================================
(PID.TID 0000.0001) 
(PID.TID 0000.0001) // =======================================================
(PID.TID 0000.0001) // Field hFacC at iteration          1
(PID.TID 0000.0001) // CMIN =          1.000000000000000E+00
(PID.TID 0000.0001) // CMAX =          1.000000000000000E+00
(PID.TID 0000.0001) // CINT =          0.000000000000000E+00
(PID.TID 0000.0001) // SYMBOLS (CMIN->CMAX): -abcdefghijklmnopqrstuvwxyz+
(PID.TID 0000.0001) //                  0.0: .
(PID.TID 0000.0001) // RANGE I (Lo:Hi:Step):(  -2:   4:   1)
(PID.TID 0000.0001) // RANGE J (Lo:Hi:Step):(  59:  -2:  -1)
(PID.TID 0000.0001) // RANGE K (Lo:Hi:Step):(   1:   1:   1)
(PID.TID 0000.0001) // =======================================================
(PID.TID 0000.0001) K =   1
(PID.TID 0000.0001) //
(PID.TID 0000.0001) // |--J--|**01234
(PID.TID 0000.0001) //     59 .......
(PID.TID 0000.0001) //     58 -------
(PID.TID 0000.0001) //     57 .......
(PID.TID 0000.0001) //     56 .......
(PID.TID 0000.0001) //     55 -------
(PID.TID 0000.0001) //     54 -------
(PID.TID 0000.0001) //     53 -------
(PID.TID 0000.0001) //     52 -------
(PID.TID 0000.0001) //     51 -------
(PID.TID 0000.0001) //     50 -------
(PID.TID 0000.0001) //     49 -------
(PID.TID 0000.0001) //     48 -------
(PID.TID 0000.0001) //     47 -------
(PID.TID 0000.0001) //     46 -------
(PID.TID 0000.0001) //     45 -------
(PID.TID 0000.0001) //     44 -------
(PID.TID 0000.0001) //     43 -------
(PID.TID 0000.0001) //     42 -------
(PID.TID 0000.0001) //     41 -------
(PID.TID 0000.0001) //     40 -------
(PID.TID 0000.0001) //     45 -------
(PID.TID 0000.0001) //     44 -------
(PID.TID 0000.0001) //     43 -------
(PID.TID 0000.0001) //     42 -------
(PID.TID 0000.0001) //     41 -------
(PID.TID 0000.0001) //     40 -------
(PID.TID 0000.0001) //     39 -------
(PID.TID 0000.0001) //     38 -------
(PID.TID 0000.0001) //     37 -------
(PID.TID 0000.0001) //     36 -------
(PID.TID 0000.0001) //     35 -------
(PID.TID 0000.0001) //     34 -------
(PID.TID 0000.0001) //     33 -------
(PID.TID 0000.0001) //     32 -------
(PID.TID 0000.0001) //     31 -------
(PID.TID 0000.0001) //     30 -------
(PID.TID 0000.0001) //     29 -------
(PID.TID 0000.0001) //     28 -------
(PID.TID 0000.0001) //     27 -------
(PID.TID 0000.0001) //     26 -------
(PID.TID 0000.0001) //     31 -------
(PID.TID 0000.0001) //     30 -------
(PID.TID 0000.0001) //     29 -------
(PID.TID 0000.0001) //     28 -------
(PID.TID 0000.0001) //     27 -------
(PID.TID 0000.0001) //     26 -------
(PID.TID 0000.0001) //     25 -------
(PID.TID 0000.0001) //     24 -------
(PID.TID 0000.0001) //     23 -------
(PID.TID 0000.0001) //     22 -------
(PID.TID 0000.0001) //     21 -------
(PID.TID 0000.0001) //     20 -------
(PID.TID 0000.0001) //     19 -------
(PID.TID 0000.0001) //     18 -------
(PID.TID 0000.0001) //     17 -------
(PID.TID 0000.0001) //     16 -------
(PID.TID 0000.0001) //     15 -------
(PID.TID 0000.0001) //     14 -------
(PID.TID 0000.0001) //     13 -------
(PID.TID 0000.0001) //     12 -------
(PID.TID 0000.0001) //     17 -------
(PID.TID 0000.0001) //     16 -------
(PID.TID 0000.0001) //     15 -------
(PID.TID 0000.0001) //     14 -------
(PID.TID 0000.0001) //     13 -------
(PID.TID 0000.0001) //     12 -------
(PID.TID 0000.0001) //     11 -------
(PID.TID 0000.0001) //     10 -------
(PID.TID 0000.0001) //      9 -------
(PID.TID 0000.0001) //      8 -------
(PID.TID 0000.0001) //      7 -------
(PID.TID 0000.0001) //      6 -------
(PID.TID 0000.0001) //      5 -------
(PID.TID 0000.0001) //      4 -------
(PID.TID 0000.0001) //      3 -------
(PID.TID 0000.0001) //      2 -------
(PID.TID 0000.0001) //      1 .......
(PID.TID 0000.0001) //      0 .......
(PID.TID 0000.0001) //     -1 -------
(PID.TID 0000.0001) //     -2 .......
(PID.TID 0000.0001) // =======================================================
(PID.TID 0000.0001) // END OF FIELD                                          =
(PID.TID 0000.0001) // =======================================================
(PID.TID 0000.0001) 
(PID.TID 0000.0001) // =======================================================
(PID.TID 0000.0001) // Field hFacW at iteration          1
(PID.TID 0000.0001) // CMIN =          1.000000000000000E+00
(PID.TID 0000.0001) // CMAX =          1.000000000000000E+00
(PID.TID 0000.0001) // CINT =          0.000000000000000E+00
(PID.TID 0000.0001) // SYMBOLS (CMIN->CMAX): -abcdefghijklmnopqrstuvwxyz+
(PID.TID 0000.0001) //                  0.0: .
(PID.TID 0000.0001) // RANGE I (Lo:Hi:Step):(  -2:   4:   1)
(PID.TID 0000.0001) // RANGE J (Lo:Hi:Step):(  59:  -2:  -1)
(PID.TID 0000.0001) // RANGE K (Lo:Hi:Step):(   1:   1:   1)
(PID.TID 0000.0001) // =======================================================
(PID.TID 0000.0001) K =   1
(PID.TID 0000.0001) //
(PID.TID 0000.0001) // |--J--|**01234
(PID.TID 0000.0001) //     59 -------
(PID.TID 0000.0001) //     58 -------
(PID.TID 0000.0001) //     57 .......
(PID.TID 0000.0001) //     56 .......
(PID.TID 0000.0001) //     55 -------
(PID.TID 0000.0001) //     54 -------
(PID.TID 0000.0001) //     53 -------
(PID.TID 0000.0001) //     52 -------
(PID.TID 0000.0001) //     51 -------
(PID.TID 0000.0001) //     50 -------
(PID.TID 0000.0001) //     49 -------
(PID.TID 0000.0001) //     48 -------
(PID.TID 0000.0001) //     47 -------
(PID.TID 0000.0001) //     46 -------
(PID.TID 0000.0001) //     45 -------
(PID.TID 0000.0001) //     44 -------
(PID.TID 0000.0001) //     43 -------
(PID.TID 0000.0001) //     42 -------
(PID.TID 0000.0001) //     41 -------
(PID.TID 0000.0001) //     40 -------
(PID.TID 0000.0001) //     45 -------
(PID.TID 0000.0001) //     44 -------
(PID.TID 0000.0001) //     43 -------
(PID.TID 0000.0001) //     42 -------
(PID.TID 0000.0001) //     41 -------
(PID.TID 0000.0001) //     40 -------
(PID.TID 0000.0001) //     39 -------
(PID.TID 0000.0001) //     38 -------
(PID.TID 0000.0001) //     37 -------
(PID.TID 0000.0001) //     36 -------
(PID.TID 0000.0001) //     35 -------
(PID.TID 0000.0001) //     34 -------
(PID.TID 0000.0001) //     33 -------
(PID.TID 0000.0001) //     32 -------
(PID.TID 0000.0001) //     31 -------
(PID.TID 0000.0001) //     30 -------
(PID.TID 0000.0001) //     29 -------
(PID.TID 0000.0001) //     28 -------
(PID.TID 0000.0001) //     27 -------
(PID.TID 0000.0001) //     26 -------
(PID.TID 0000.0001) //     31 -------
(PID.TID 0000.0001) //     30 -------
(PID.TID 0000.0001) //     29 -------
(PID.TID 0000.0001) //     28 -------
(PID.TID 0000.0001) //     27 -------
(PID.TID 0000.0001) //     26 -------
(PID.TID 0000.0001) //     25 -------
(PID.TID 0000.0001) //     24 -------
(PID.TID 0000.0001) //     23 -------
(PID.TID 0000.0001) //     22 -------
(PID.TID 0000.0001) //     21 -------
(PID.TID 0000.0001) //     20 -------
(PID.TID 0000.0001) //     19 -------
(PID.TID 0000.0001) //     18 -------
(PID.TID 0000.0001) //     17 -------
(PID.TID 0000.0001) //     16 -------
(PID.TID 0000.0001) //     15 -------
(PID.TID 0000.0001) //     14 -------
(PID.TID 0000.0001) //     13 -------
(PID.TID 0000.0001) //     12 -------
(PID.TID 0000.0001) //     17 -------
(PID.TID 0000.0001) //     16 -------
(PID.TID 0000.0001) //     15 -------
(PID.TID 0000.0001) //     14 -------
(PID.TID 0000.0001) //     13 -------
(PID.TID 0000.0001) //     12 -------
(PID.TID 0000.0001) //     11 -------
(PID.TID 0000.0001) //     10 -------
(PID.TID 0000.0001) //      9 -------
(PID.TID 0000.0001) //      8 -------
(PID.TID 0000.0001) //      7 -------
(PID.TID 0000.0001) //      6 -------
(PID.TID 0000.0001) //      5 -------
(PID.TID 0000.0001) //      4 -------
(PID.TID 0000.0001) //      3 -------
(PID.TID 0000.0001) //      2 -------
(PID.TID 0000.0001) //      1 .......
(PID.TID 0000.0001) //      0 .......
(PID.TID 0000.0001) //     -1 -------
(PID.TID 0000.0001) //     -2 -------
(PID.TID 0000.0001) // =======================================================
(PID.TID 0000.0001) // END OF FIELD                                          =
(PID.TID 0000.0001) // =======================================================
(PID.TID 0000.0001) 
(PID.TID 0000.0001) // =======================================================
(PID.TID 0000.0001) // Field hFacS at iteration          1
(PID.TID 0000.0001) // CMIN =          1.000000000000000E+00
(PID.TID 0000.0001) // CMAX =          1.000000000000000E+00
(PID.TID 0000.0001) // CINT =          0.000000000000000E+00
(PID.TID 0000.0001) // SYMBOLS (CMIN->CMAX): -abcdefghijklmnopqrstuvwxyz+
(PID.TID 0000.0001) //                  0.0: .
(PID.TID 0000.0001) // RANGE I (Lo:Hi:Step):(  -2:   4:   1)
(PID.TID 0000.0001) // RANGE J (Lo:Hi:Step):(  59:  -2:  -1)
(PID.TID 0000.0001) // RANGE K (Lo:Hi:Step):(   1:   1:   1)
(PID.TID 0000.0001) // =======================================================
(PID.TID 0000.0001) K =   1
(PID.TID 0000.0001) //
(PID.TID 0000.0001) // |--J--|**01234
(PID.TID 0000.0001) //     59 .......
(PID.TID 0000.0001) //     58 .......
(PID.TID 0000.0001) //     57 .......
(PID.TID 0000.0001) //     56 .......
(PID.TID 0000.0001) //     55 -------
(PID.TID 0000.0001) //     54 -------
(PID.TID 0000.0001) //     53 -------
(PID.TID 0000.0001) //     52 -------
(PID.TID 0000.0001) //     51 -------
(PID.TID 0000.0001) //     50 -------
(PID.TID 0000.0001) //     49 -------
(PID.TID 0000.0001) //     48 -------
(PID.TID 0000.0001) //     47 -------
(PID.TID 0000.0001) //     46 -------
(PID.TID 0000.0001) //     45 -------
(PID.TID 0000.0001) //     44 -------
(PID.TID 0000.0001) //     43 -------
(PID.TID 0000.0001) //     42 -------
(PID.TID 0000.0001) //     41 -------
(PID.TID 0000.0001) //     40 -------
(PID.TID 0000.0001) //     45 -------
(PID.TID 0000.0001) //     44 -------
(PID.TID 0000.0001) //     43 -------
(PID.TID 0000.0001) //     42 -------
(PID.TID 0000.0001) //     41 -------
(PID.TID 0000.0001) //     40 -------
(PID.TID 0000.0001) //     39 -------
(PID.TID 0000.0001) //     38 -------
(PID.TID 0000.0001) //     37 -------
(PID.TID 0000.0001) //     36 -------
(PID.TID 0000.0001) //     35 -------
(PID.TID 0000.0001) //     34 -------
(PID.TID 0000.0001) //     33 -------
(PID.TID 0000.0001) //     32 -------
(PID.TID 0000.0001) //     31 -------
(PID.TID 0000.0001) //     30 -------
(PID.TID 0000.0001) //     29 -------
(PID.TID 0000.0001) //     28 -------
(PID.TID 0000.0001) //     27 -------
(PID.TID 0000.0001) //     26 -------
(PID.TID 0000.0001) //     31 -------
(PID.TID 0000.0001) //     30 -------
(PID.TID 0000.0001) //     29 -------
(PID.TID 0000.0001) //     28 -------
(PID.TID 0000.0001) //     27 -------
(PID.TID 0000.0001) //     26 -------
(PID.TID 0000.0001) //     25 -------
(PID.TID 0000.0001) //     24 -------
(PID.TID 0000.0001) //     23 -------
(PID.TID 0000.0001) //     22 -------
(PID.TID 0000.0001) //     21 -------
(PID.TID 0000.0001) //     20 -------
(PID.TID 0000.0001) //     19 -------
(PID.TID 0000.0001) //     18 -------
(PID.TID 0000.0001) //     17 -------
(PID.TID 0000.0001) //     16 -------
(PID.TID 0000.0001) //     15 -------
(PID.TID 0000.0001) //     14 -------
(PID.TID 0000.0001) //     13 -------
(PID.TID 0000.0001) //     12 -------
(PID.TID 0000.0001) //     17 -------
(PID.TID 0000.0001) //     16 -------
(PID.TID 0000.0001) //     15 -------
(PID.TID 0000.0001) //     14 -------
(PID.TID 0000.0001) //     13 -------
(PID.TID 0000.0001) //     12 -------
(PID.TID 0000.0001) //     11 -------
(PID.TID 0000.0001) //     10 -------
(PID.TID 0000.0001) //      9 -------
(PID.TID 0000.0001) //      8 -------
(PID.TID 0000.0001) //      7 -------
(PID.TID 0000.0001) //      6 -------
(PID.TID 0000.0001) //      5 -------
(PID.TID 0000.0001) //      4 -------
(PID.TID 0000.0001) //      3 -------
(PID.TID 0000.0001) //      2 .......
(PID.TID 0000.0001) //      1 .......
(PID.TID 0000.0001) //      0 .......
(PID.TID 0000.0001) //     -1 .......
(PID.TID 0000.0001) //     -2 .......
(PID.TID 0000.0001) // =======================================================
(PID.TID 0000.0001) // END OF FIELD                                          =
(PID.TID 0000.0001) // =======================================================
(PID.TID 0000.0001) 
(PID.TID 0000.0001)  PACKAGES_BOOT: opening data.pkg
(PID.TID 0000.0001)  OPEN_COPY_DATA_FILE: opening file data.pkg
(PID.TID 0000.0001) // =======================================================
(PID.TID 0000.0001) // Parameter file "data.pkg"
(PID.TID 0000.0001) // =======================================================
(PID.TID 0000.0001) ># Packages
(PID.TID 0000.0001) > &PACKAGES
(PID.TID 0000.0001) > useGMRedi=.TRUE.,
(PID.TID 0000.0001) > &
(PID.TID 0000.0001) >
(PID.TID 0000.0001) 
(PID.TID 0000.0001)  PACKAGES_BOOT: finished reading data.pkg
(PID.TID 0000.0001)  GM_READPARMS: opening data.gmredi
(PID.TID 0000.0001)  OPEN_COPY_DATA_FILE: opening file data.gmredi
(PID.TID 0000.0001) // =======================================================
(PID.TID 0000.0001) // Parameter file "data.gmredi"
(PID.TID 0000.0001) // =======================================================
(PID.TID 0000.0001) ># from MOM
(PID.TID 0000.0001) ># GM_background_K: 	isopycnal diffusion coefficien
(PID.TID 0000.0001) ># GM_maxSlope:		max slope of isopycnals
(PID.TID 0000.0001) ># GM_Scrit:		transition for scaling diffusion coefficient
(PID.TID 0000.0001) ># GM_Sd:		half width scaling for diffusion coefficient
(PID.TID 0000.0001) ># real background diff:	horizontal diffusion
(PID.TID 0000.0001) >
(PID.TID 0000.0001) ># ifdef GM_VISBECK_VARIABLE_K, include following in GM_PARM01
(PID.TID 0000.0001) ># GM_Visbeck_alpha   = 0.,
(PID.TID 0000.0001) ># GM_Visbeck_length  = 2.e+5,
(PID.TID 0000.0001) ># GM_Visbeck_depth   = 1.e+3,
(PID.TID 0000.0001) ># GM_Visbeck_maxval_K= 2.5e+3,
(PID.TID 0000.0001) >
(PID.TID 0000.0001) > &GM_PARM01
(PID.TID 0000.0001) >  GM_AdvForm=.TRUE.,
(PID.TID 0000.0001) ># GM_AdvSeparate=.TRUE.,
(PID.TID 0000.0001) ># GM_background_K=1000.,
(PID.TID 0000.0001) >  GM_background_K=10.,
(PID.TID 0000.0001) ># GM_isopycK=1000.,
(PID.TID 0000.0001) ># GM_taper_scheme    = 'clipping',
(PID.TID 0000.0001) >  GM_taper_scheme    = 'linear',
(PID.TID 0000.0001) ># GM_taper_scheme    = 'gkw91',
(PID.TID 0000.0001) ># GM_taper_scheme    = 'ldd97',
(PID.TID 0000.0001) >  GM_maxSlope        = 1.e-2,
(PID.TID 0000.0001) >  GM_Scrit           = 4.e-3,
(PID.TID 0000.0001) >  GM_Sd              = 1.e-3,
(PID.TID 0000.0001) >  GM_Visbeck_alpha   = 1.e-2,
(PID.TID 0000.0001) >  GM_Visbeck_length  = 2.e+5,
(PID.TID 0000.0001) >  GM_Visbeck_depth   = 1.e+3,
(PID.TID 0000.0001) >  GM_Visbeck_maxval_K= 2.5e+3,
(PID.TID 0000.0001) > &end
(PID.TID 0000.0001) >
(PID.TID 0000.0001) >
(PID.TID 0000.0001) 
(PID.TID 0000.0001)  GM_READPARMS: finished reading data.gmredi
(PID.TID 0000.0001) GMREDI_CHECK: #define GMREDI
(PID.TID 0000.0001) GM_AdvForm =  /* if FALSE => use SkewFlux Form */
(PID.TID 0000.0001)                   T
(PID.TID 0000.0001)     ;
(PID.TID 0000.0001) GM_AdvSeparate = /* Calc Bolus & Euler Adv. separately */
(PID.TID 0000.0001)                   F
(PID.TID 0000.0001)     ;
(PID.TID 0000.0001) GM_ExtraDiag =  /* Tensor Extra Diag (line 1&2) non 0 */
(PID.TID 0000.0001)                   T
(PID.TID 0000.0001)     ;
(PID.TID 0000.0001) GM_isopycK =   /* Background Isopyc. Diffusivity ( m^2/s ) */
(PID.TID 0000.0001)                 1.000000000000000E+01
(PID.TID 0000.0001)     ;
(PID.TID 0000.0001)  GM_skewflx*K =   /* Background GM_SkewFlx Diffusivity ( m^2/s ) */
(PID.TID 0000.0001)                 0.000000000000000E+00
(PID.TID 0000.0001)     ;
(PID.TID 0000.0001)  GM_advec*K =   /* Backg. GM-Advec(=Bolus) Diffusivity ( m^2/s ) */
(PID.TID 0000.0001)                 1.000000000000000E+01
(PID.TID 0000.0001)     ;
(PID.TID 0000.0001)  GM_Visbeck_alpha =   /* Visbeck alpha coeff. ( ) */
(PID.TID 0000.0001)                 1.000000000000000E-02
(PID.TID 0000.0001)     ;
(PID.TID 0000.0001)  Tapering/Cliping : linear
(PID.TID 0000.0001)  GM_Small_Number =  /* epsilon used in slope calc */
(PID.TID 0000.0001)                 1.000000000000000E-12
(PID.TID 0000.0001)     ;
(PID.TID 0000.0001)  GM_slopeSqCutoff =  /* Slope^2 cut-off value */
(PID.TID 0000.0001)                 1.000000000000000E+48
(PID.TID 0000.0001)     ;
(PID.TID 0000.0001) 
(PID.TID 0000.0001) // ===================================
(PID.TID 0000.0001) // GAD parameters :
(PID.TID 0000.0001) // ===================================
(PID.TID 0000.0001) tempAdvScheme =   /* Temp. advection scheme selector */
(PID.TID 0000.0001)                      77
(PID.TID 0000.0001)     ;
(PID.TID 0000.0001) tempMultiDimAdvec =   /* use Muti-Dim Advec method for Temp */
(PID.TID 0000.0001)                   T
(PID.TID 0000.0001)     ;
(PID.TID 0000.0001) tempAdamsBashforth =   /* use Adams-Bashforth time-stepping for Temp */
(PID.TID 0000.0001)                   F
(PID.TID 0000.0001)     ;
(PID.TID 0000.0001) saltAdvScheme =   /* Salt. advection scheme selector */
(PID.TID 0000.0001)                       2
(PID.TID 0000.0001)     ;
(PID.TID 0000.0001) saltMultiDimAdvec =   /* use Muti-Dim Advec method for Salt */
(PID.TID 0000.0001)                   F
(PID.TID 0000.0001)     ;
(PID.TID 0000.0001) saltAdamsBashforth =   /* use Adams-Bashforth time-stepping for Salt */
(PID.TID 0000.0001)                   T
(PID.TID 0000.0001)     ;
(PID.TID 0000.0001) // ===================================
(PID.TID 0000.0001) %MON fCori_max                    =   1.4419980985793E-04
(PID.TID 0000.0001) %MON fCori_min                    =  -1.4419980985793E-04
(PID.TID 0000.0001) %MON fCori_mean                   =   4.8401882700246E-22
(PID.TID 0000.0001) %MON fCori_sd                     =   9.9129524406610E-05
(PID.TID 0000.0001) %MON fCoriG_max                   =   1.4365344605787E-04
(PID.TID 0000.0001) %MON fCoriG_min                   =  -1.4464734631126E-04
(PID.TID 0000.0001) %MON fCoriG_mean                  =  -2.6299517511138E-06
(PID.TID 0000.0001) %MON fCoriG_sd                    =   9.9997297738060E-05
(PID.TID 0000.0001) %MON fCoriCos_max                 =   1.4539426427085E-04
(PID.TID 0000.0001) %MON fCoriCos_min                 =   1.8984265119424E-05
(PID.TID 0000.0001) %MON fCoriCos_mean                =   9.8674157759248E-05
(PID.TID 0000.0001) %MON fCoriCos_sd                  =   3.9884025205722E-05
(PID.TID 0000.0001) // CG2D normalisation factor =          0.3504529336387451438029547E-04
(PID.TID 0000.0001) 
 ini_cg2d: sumArea,cg2dTolerance =  4.19688829104880E+12  1.22567651146013E-12
(PID.TID 0000.0001) CONFIG_CHECK: OK
(PID.TID 0000.0001) // =======================================================
(PID.TID 0000.0001) // Model configuration
(PID.TID 0000.0001) // =======================================================
(PID.TID 0000.0001) //
(PID.TID 0000.0001) // "Physical" paramters ( PARM01 in namelist )
(PID.TID 0000.0001) //
(PID.TID 0000.0001) buoyancyRelation = OCEANIC
(PID.TID 0000.0001) tRef =   /* Reference temperature profile ( oC or oK ) */
(PID.TID 0000.0001)                 1.880000000000000E+01,      /* K =  1 */
(PID.TID 0000.0001)                 1.630000000000000E+01,      /* K =  2 */
(PID.TID 0000.0001)                 1.310000000000000E+01,      /* K =  3 */
(PID.TID 0000.0001)                 1.040000000000000E+01,      /* K =  4 */
(PID.TID 0000.0001)                 8.100000000000000E+00,      /* K =  5 */
(PID.TID 0000.0001)                 6.000000000000000E+00,      /* K =  6 */
(PID.TID 0000.0001)                 4.500000000000000E+00,      /* K =  7 */
(PID.TID 0000.0001)                 3.400000000000000E+00,      /* K =  8 */
(PID.TID 0000.0001)                 2.700000000000000E+00,      /* K =  9 */
(PID.TID 0000.0001)                 2.200000000000000E+00,      /* K = 10 */
(PID.TID 0000.0001)                 1.800000000000000E+00,      /* K = 11 */
(PID.TID 0000.0001)                 1.500000000000000E+00,      /* K = 12 */
(PID.TID 0000.0001)                 1.200000000000000E+00,      /* K = 13 */
(PID.TID 0000.0001)                 1.000000000000000E+00,      /* K = 14 */
(PID.TID 0000.0001)                 9.000000000000000E-01       /* K = 15 */
(PID.TID 0000.0001)     ;
(PID.TID 0000.0001) sRef =   /* Reference salinity profile ( ppt ) */
(PID.TID 0000.0001)    15 @  3.470000000000000E+01              /* K =  1: 15 */
(PID.TID 0000.0001)     ;
(PID.TID 0000.0001) viscAh =   /* Lateral eddy viscosity ( m^2/s ) */
(PID.TID 0000.0001)                 1.200000000000000E+06
(PID.TID 0000.0001)     ;
(PID.TID 0000.0001) viscAh =   /* Lateral biharmonic viscosity ( m^4/s ) */
(PID.TID 0000.0001)                 0.000000000000000E+00
(PID.TID 0000.0001)     ;
(PID.TID 0000.0001) no_slip_sides =  /* Viscous BCs: No-slip sides */
(PID.TID 0000.0001)                   F
(PID.TID 0000.0001)     ;
(PID.TID 0000.0001) viscAr =   /* Vertical eddy viscosity ( units of r^2/s ) */
(PID.TID 0000.0001)                 1.000000000000000E-03
(PID.TID 0000.0001)     ;
(PID.TID 0000.0001) diffKhT =   /* Laplacian diffusion of heat laterally ( m^2/s ) */
(PID.TID 0000.0001)                 0.000000000000000E+00
(PID.TID 0000.0001)     ;
(PID.TID 0000.0001) diffK4T =   /* Bihaarmonic diffusion of heat laterally ( m^4/s ) */
(PID.TID 0000.0001)                 0.000000000000000E+00
(PID.TID 0000.0001)     ;
(PID.TID 0000.0001) diffKrT =   /* Laplacian diffusion of heat vertically ( m^2/s ) */
(PID.TID 0000.0001)                 1.000000000000000E-05
(PID.TID 0000.0001)     ;
(PID.TID 0000.0001) diffKhS =   /* Laplacian diffusion of salt laterally ( m^2/s ) */
(PID.TID 0000.0001)                 0.000000000000000E+00
(PID.TID 0000.0001)     ;
(PID.TID 0000.0001) diffK4S =   /* Bihaarmonic diffusion of salt laterally ( m^4/s ) */
(PID.TID 0000.0001)                 0.000000000000000E+00
(PID.TID 0000.0001)     ;
(PID.TID 0000.0001) diffKrS =   /* Laplacian diffusion of salt vertically ( m^2/s ) */
(PID.TID 0000.0001)                 0.000000000000000E+00
(PID.TID 0000.0001)     ;
(PID.TID 0000.0001)  Equation of State : eosType = LINEAR
(PID.TID 0000.0001) tAlpha =   /* Linear EOS thermal expansion coefficient ( 1/degree ) */
(PID.TID 0000.0001)                 2.000000000000000E-04
(PID.TID 0000.0001)     ;
(PID.TID 0000.0001) sBeta =   /* Linear EOS haline contraction coefficient ( 1/ppt ) */
(PID.TID 0000.0001)                 0.000000000000000E+00
(PID.TID 0000.0001)     ;
(PID.TID 0000.0001) rhonil =   /* Reference density ( kg/m^3 ) */
(PID.TID 0000.0001)                 1.035000000000000E+03
(PID.TID 0000.0001)     ;
(PID.TID 0000.0001) rhoConst =   /* Reference density ( kg/m^3 ) */
(PID.TID 0000.0001)                 1.035000000000000E+03
(PID.TID 0000.0001)     ;
(PID.TID 0000.0001) rhoConstFresh =   /* Reference density ( kg/m^3 ) */
(PID.TID 0000.0001)                 9.998000000000000E+02
(PID.TID 0000.0001)     ;
(PID.TID 0000.0001) gravity =   /* Gravitational acceleration ( m/s^2 ) */
(PID.TID 0000.0001)                 9.810000000000000E+00
(PID.TID 0000.0001)     ;
(PID.TID 0000.0001) gBaro =   /* Barotropic gravity ( m/s^2 ) */
(PID.TID 0000.0001)                 9.810000000000000E+00
(PID.TID 0000.0001)     ;
(PID.TID 0000.0001) rotationPeriod =   /* Rotation Period ( s ) */
(PID.TID 0000.0001)                 8.640000000000000E+04
(PID.TID 0000.0001)     ;
(PID.TID 0000.0001) omega =   /* Angular velocity ( rad/s ) */
(PID.TID 0000.0001)                 7.272205216643040E-05
(PID.TID 0000.0001)     ;
(PID.TID 0000.0001) f0 =   /* Reference coriolis parameter ( 1/s ) */
(PID.TID 0000.0001)                 1.000000000000000E-04
(PID.TID 0000.0001)     ;
(PID.TID 0000.0001) beta =   /* Beta ( 1/(m.s) ) */
(PID.TID 0000.0001)                 9.999999999999999E-12
(PID.TID 0000.0001)     ;
(PID.TID 0000.0001) freeSurfFac =   /* Implicit free surface factor */
(PID.TID 0000.0001)                 1.000000000000000E+00
(PID.TID 0000.0001)     ;
(PID.TID 0000.0001) implicitFreeSurface =   /* Implicit free surface on/off flag */
(PID.TID 0000.0001)                   T
(PID.TID 0000.0001)     ;
(PID.TID 0000.0001) rigidLid =   /* Rigid lid on/off flag */
(PID.TID 0000.0001)                   F
(PID.TID 0000.0001)     ;
(PID.TID 0000.0001) implicSurfPress =   /* Surface Pressure implicit factor (0-1)*/
(PID.TID 0000.0001)                 1.000000000000000E+00
(PID.TID 0000.0001)     ;
(PID.TID 0000.0001) implicDiv2Dflow =   /* Barot. Flow Div. implicit factor (0-1)*/
(PID.TID 0000.0001)                 1.000000000000000E+00
(PID.TID 0000.0001)     ;
(PID.TID 0000.0001) exactConserv =   /* Exact Volume Conservation on/off flag*/
(PID.TID 0000.0001)                   T
(PID.TID 0000.0001)     ;
(PID.TID 0000.0001) uniformLin_PhiSurf =   /* use uniform Bo_surf on/off flag*/
(PID.TID 0000.0001)                   T
(PID.TID 0000.0001)     ;
(PID.TID 0000.0001) nonlinFreeSurf =   /* Non-linear Free Surf. options (-1,0,1,2,3)*/
(PID.TID 0000.0001)                       0
(PID.TID 0000.0001)     ;
(PID.TID 0000.0001)      -1,0= Off ; 1,2,3= On, 2=+rescale gU,gV, 3=+update cg2d solv.
(PID.TID 0000.0001) hFacInf =   /* lower threshold for hFac (nonlinFreeSurf only)*/
(PID.TID 0000.0001)                 2.000000000000000E-01
(PID.TID 0000.0001)     ;
(PID.TID 0000.0001) hFacSup =   /* upper threshold for hFac (nonlinFreeSurf only)*/
(PID.TID 0000.0001)                 2.000000000000000E+00
(PID.TID 0000.0001)     ;
(PID.TID 0000.0001) select_rStar =   /* r* Coordinate options (not yet implemented)*/
(PID.TID 0000.0001)                       0
(PID.TID 0000.0001)     ;
(PID.TID 0000.0001) useRealFreshWaterFlux =   /* Real Fresh Water Flux on/off flag*/
(PID.TID 0000.0001)                   F
(PID.TID 0000.0001)     ;
(PID.TID 0000.0001) convertFW2Salt = /* convert F.W. Flux to Salt Flux (-1=use local S)(ppt)*/
(PID.TID 0000.0001)                 3.500000000000000E+01
(PID.TID 0000.0001)     ;
(PID.TID 0000.0001) multiDimAdvection =   /* enable/disable Multi-Dim Advection */
(PID.TID 0000.0001)                   T
(PID.TID 0000.0001)     ;
(PID.TID 0000.0001) staggerTimeStep =   /* Stagger time stepping on/off flag */
(PID.TID 0000.0001)                   T
(PID.TID 0000.0001)     ;
(PID.TID 0000.0001) momStepping =  /* Momentum equation on/off flag */
(PID.TID 0000.0001)                   T
(PID.TID 0000.0001)     ;
(PID.TID 0000.0001) momAdvection =  /* Momentum advection on/off flag */
(PID.TID 0000.0001)                   T
(PID.TID 0000.0001)     ;
(PID.TID 0000.0001) momViscosity =  /* Momentum viscosity on/off flag */
(PID.TID 0000.0001)                   T
(PID.TID 0000.0001)     ;
(PID.TID 0000.0001) useCoriolis =  /* Coriolis on/off flag */
(PID.TID 0000.0001)                   T
(PID.TID 0000.0001)     ;
(PID.TID 0000.0001) momForcing =  /* Momentum forcing on/off flag */
(PID.TID 0000.0001)                   T
(PID.TID 0000.0001)     ;
(PID.TID 0000.0001) momPressureForcing =  /* Momentum pressure term on/off flag */
(PID.TID 0000.0001)                   T
(PID.TID 0000.0001)     ;
(PID.TID 0000.0001) tempStepping =  /* Temperature equation on/off flag */
(PID.TID 0000.0001)                   T
(PID.TID 0000.0001)     ;
(PID.TID 0000.0001) tempAdvection=  /* Temperature advection on/off flag */
(PID.TID 0000.0001)                   T
(PID.TID 0000.0001)     ;
(PID.TID 0000.0001) tempForcing  =  /* Temperature forcing on/off flag */
(PID.TID 0000.0001)                   T
(PID.TID 0000.0001)     ;
(PID.TID 0000.0001) saltStepping =  /* Salinity equation on/off flag */
(PID.TID 0000.0001)                   F
(PID.TID 0000.0001)     ;
(PID.TID 0000.0001) saltAdvection=  /* Salinity advection on/off flag */
(PID.TID 0000.0001)                   F
(PID.TID 0000.0001)     ;
(PID.TID 0000.0001) saltForcing  =  /* Salinity forcing on/off flag */
(PID.TID 0000.0001)                   F
(PID.TID 0000.0001)     ;
(PID.TID 0000.0001) nonHydrostatic =  /* Non-Hydrostatic on/off flag */
(PID.TID 0000.0001)                   F
(PID.TID 0000.0001)     ;
(PID.TID 0000.0001) useCDscheme =  /* CD scheme on/off flag */
(PID.TID 0000.0001)                   T
(PID.TID 0000.0001)     ;
(PID.TID 0000.0001) useJamartWetPoints= /* Coriolis WetPoints method flag */
(PID.TID 0000.0001)                   F
(PID.TID 0000.0001)     ;
(PID.TID 0000.0001) //
(PID.TID 0000.0001) // Elliptic solver(s) paramters ( PARM02 in namelist )
(PID.TID 0000.0001) //
(PID.TID 0000.0001) cg2dMaxIters =   /* Upper limit on 2d con. grad iterations  */
(PID.TID 0000.0001)                    1000
(PID.TID 0000.0001)     ;
(PID.TID 0000.0001) cg2dChkResFreq =   /* 2d con. grad convergence test frequency */
(PID.TID 0000.0001)                       1
(PID.TID 0000.0001)     ;
(PID.TID 0000.0001) cg2dTargetResidual =   /* 2d con. grad target residual  */
(PID.TID 0000.0001)                 1.000000000000000E-07
(PID.TID 0000.0001)     ;
(PID.TID 0000.0001) //
(PID.TID 0000.0001) // Time stepping paramters ( PARM03 in namelist )
(PID.TID 0000.0001) //
(PID.TID 0000.0001) nIter0 =   /* Base timestep number  */
(PID.TID 0000.0001)                   36000
(PID.TID 0000.0001)     ;
(PID.TID 0000.0001) nTimeSteps =   /* Number of timesteps */
(PID.TID 0000.0001)                      20
(PID.TID 0000.0001)     ;
(PID.TID 0000.0001) deltatTmom =   /* Momentum equation timestep ( s ) */
(PID.TID 0000.0001)                 1.200000000000000E+03
(PID.TID 0000.0001)     ;
(PID.TID 0000.0001) deltaTfreesurf =   /* FreeSurface equation timestep ( s ) */
(PID.TID 0000.0001)                 3.600000000000000E+03
(PID.TID 0000.0001)     ;
(PID.TID 0000.0001) deltatTtracer =   /* Tracer equation timestep ( s ) */
(PID.TID 0000.0001)                 8.640000000000000E+04
(PID.TID 0000.0001)     ;
(PID.TID 0000.0001) deltatTClock  =   /* Model clock timestep ( s ) */
(PID.TID 0000.0001)                 8.640000000000000E+04
(PID.TID 0000.0001)     ;
(PID.TID 0000.0001) cAdjFreq =   /* Convective adjustment interval ( s ) */
(PID.TID 0000.0001)                 0.000000000000000E+00
(PID.TID 0000.0001)     ;
(PID.TID 0000.0001) forcing_In_AB =   /* put T,S Forcing in Adams-Bash. stepping */
(PID.TID 0000.0001)                   T
(PID.TID 0000.0001)     ;
(PID.TID 0000.0001) abeps =   /* Adams-Bashforth stabilizing weight */
(PID.TID 0000.0001)                 1.000000000000000E-01
(PID.TID 0000.0001)     ;
(PID.TID 0000.0001) tauCD =   /* CD coupling time-scale ( s ) */
(PID.TID 0000.0001)                 3.214280000000000E+05
(PID.TID 0000.0001)     ;
(PID.TID 0000.0001) rCD =   /* Normalised CD coupling parameter */
(PID.TID 0000.0001)                 9.962666600296178E-01
(PID.TID 0000.0001)     ;
(PID.TID 0000.0001) startTime =   /* Run start time ( s ). */
(PID.TID 0000.0001)                 3.110400000000000E+09
(PID.TID 0000.0001)     ;
(PID.TID 0000.0001) endTime =   /* Integration ending time ( s ). */
(PID.TID 0000.0001)                 3.112128000000000E+09
(PID.TID 0000.0001)     ;
(PID.TID 0000.0001) pChkPtFreq =   /* Permanent restart/checkpoint file interval ( s ). */
(PID.TID 0000.0001)                 3.110400000000000E+09
(PID.TID 0000.0001)     ;
(PID.TID 0000.0001) chkPtFreq =   /* Rolling restart/checkpoint file interval ( s ). */
(PID.TID 0000.0001)                 0.000000000000000E+00
(PID.TID 0000.0001)     ;
(PID.TID 0000.0001) dumpFreq =   /* Model state write out interval ( s ). */
(PID.TID 0000.0001)                 1.555200000000000E+09
(PID.TID 0000.0001)     ;
(PID.TID 0000.0001) externForcingPeriod =   /* forcing period (s) */
(PID.TID 0000.0001)                 0.000000000000000E+00
(PID.TID 0000.0001)     ;
(PID.TID 0000.0001) externForcingCycle =   /* period of the cyle (s). */
(PID.TID 0000.0001)                 0.000000000000000E+00
(PID.TID 0000.0001)     ;
(PID.TID 0000.0001) tauThetaClimRelax =   /* relaxation time scale (s) */
(PID.TID 0000.0001)                 2.592000000000000E+06
(PID.TID 0000.0001)     ;
(PID.TID 0000.0001) tauSaltClimRelax =   /* relaxation time scale (s) */
(PID.TID 0000.0001)                 0.000000000000000E+00
(PID.TID 0000.0001)     ;
(PID.TID 0000.0001) latBandClimRelax =   /* max. Lat. where relaxation */
(PID.TID 0000.0001)                 1.800000000000000E+02
(PID.TID 0000.0001)     ;
(PID.TID 0000.0001) //
(PID.TID 0000.0001) // Gridding paramters ( PARM04 in namelist )
(PID.TID 0000.0001) //
(PID.TID 0000.0001) usingCartesianGrid =   /* Cartesian coordinates flag ( True / False ) */
(PID.TID 0000.0001)                   F
(PID.TID 0000.0001)     ;
(PID.TID 0000.0001) usingSphericalPolarGrid =   /* Spherical coordinates flag ( True / False ) */
(PID.TID 0000.0001)                   T
(PID.TID 0000.0001)     ;
(PID.TID 0000.0001) groundAtK1 =   /* Lower Boundary (ground) at the surface(k=1) ( T / F ) */
(PID.TID 0000.0001)                   F
(PID.TID 0000.0001)     ;
(PID.TID 0000.0001) Ro_SeaLevel =   /* r(1) ( units of r ) */
(PID.TID 0000.0001)                 0.000000000000000E+00
(PID.TID 0000.0001)     ;
(PID.TID 0000.0001) rkFac =   /* minus Vertical index orientation  */
(PID.TID 0000.0001)                 1.000000000000000E+00
(PID.TID 0000.0001)     ;
(PID.TID 0000.0001) horiVertRatio =   /* Ratio on units : Horiz - Vertical */
(PID.TID 0000.0001)                 1.000000000000000E+00
(PID.TID 0000.0001)     ;
(PID.TID 0000.0001) drC =   /* C spacing ( units of r ) */
(PID.TID 0000.0001)                 2.000000000000000E+01,      /* K =  1 */
(PID.TID 0000.0001)                 6.000000000000000E+01,      /* K =  2 */
(PID.TID 0000.0001)                 8.500000000000000E+01,      /* K =  3 */
(PID.TID 0000.0001)                 1.200000000000000E+02,      /* K =  4 */
(PID.TID 0000.0001)                 1.650000000000000E+02,      /* K =  5 */
(PID.TID 0000.0001)                 2.150000000000000E+02,      /* K =  6 */
(PID.TID 0000.0001)                 2.650000000000000E+02,      /* K =  7 */
(PID.TID 0000.0001)                 3.150000000000000E+02,      /* K =  8 */
(PID.TID 0000.0001)                 3.650000000000000E+02,      /* K =  9 */
(PID.TID 0000.0001)                 4.150000000000000E+02,      /* K = 10 */
(PID.TID 0000.0001)                 4.650000000000000E+02,      /* K = 11 */
(PID.TID 0000.0001)                 5.150000000000000E+02,      /* K = 12 */
(PID.TID 0000.0001)                 5.650000000000000E+02,      /* K = 13 */
(PID.TID 0000.0001)                 6.150000000000000E+02,      /* K = 14 */
(PID.TID 0000.0001)                 6.650000000000000E+02       /* K = 15 */
(PID.TID 0000.0001)     ;
(PID.TID 0000.0001) drF =   /* W spacing ( units of r ) */
(PID.TID 0000.0001)                 5.000000000000000E+01,      /* K =  1 */
(PID.TID 0000.0001)                 7.250000000000000E+01,      /* K =  2 */
(PID.TID 0000.0001)                 1.025000000000000E+02,      /* K =  3 */
(PID.TID 0000.0001)                 1.425000000000000E+02,      /* K =  4 */
(PID.TID 0000.0001)                 1.900000000000000E+02,      /* K =  5 */
(PID.TID 0000.0001)                 2.400000000000000E+02,      /* K =  6 */
(PID.TID 0000.0001)                 2.900000000000000E+02,      /* K =  7 */
(PID.TID 0000.0001)                 3.400000000000000E+02,      /* K =  8 */
(PID.TID 0000.0001)                 3.900000000000000E+02,      /* K =  9 */
(PID.TID 0000.0001)                 4.400000000000000E+02,      /* K = 10 */
(PID.TID 0000.0001)                 4.900000000000000E+02,      /* K = 11 */
(PID.TID 0000.0001)                 5.400000000000000E+02,      /* K = 12 */
(PID.TID 0000.0001)                 5.900000000000000E+02,      /* K = 13 */
(PID.TID 0000.0001)                 6.400000000000000E+02,      /* K = 14 */
(PID.TID 0000.0001)                 6.825000000000000E+02       /* K = 15 */
(PID.TID 0000.0001)     ;
(PID.TID 0000.0001) delX =   /* U spacing ( m - cartesian, degrees - spherical ) */
(PID.TID 0000.0001)                 3.000000000000000E+00       /* I =  1 */
(PID.TID 0000.0001)     ;
(PID.TID 0000.0001) delY =   /* V spacing ( m - cartesian, degrees - spherical ) */
(PID.TID 0000.0001)    56 @  3.000000000000000E+00              /* J =  1: 56 */
(PID.TID 0000.0001)     ;
(PID.TID 0000.0001) phiMin =    /* South edge (ignored - cartesian, degrees - spherical ) */
(PID.TID 0000.0001)                -8.400000000000000E+01
(PID.TID 0000.0001)     ;
(PID.TID 0000.0001) thetaMin =    /* West edge ( ignored - cartesian, degrees - spherical ) */
(PID.TID 0000.0001)                 0.000000000000000E+00
(PID.TID 0000.0001)     ;
(PID.TID 0000.0001) rSphere =    /* Radius ( ignored - cartesian, m - spherical ) */
(PID.TID 0000.0001)                 6.370000000000000E+06
(PID.TID 0000.0001)     ;
(PID.TID 0000.0001) xcoord =   /* P-point X coord ( m - cartesian, degrees - spherical ) */
(PID.TID 0000.0001)                 1.500000000000000E+00       /* I =  1 */
(PID.TID 0000.0001)     ;
(PID.TID 0000.0001) ycoord =   /* P-point Y coord ( m - cartesian, degrees - spherical ) */
(PID.TID 0000.0001)                -8.250000000000000E+01,      /* J =  1 */
(PID.TID 0000.0001)                -7.950000000000000E+01,      /* J =  2 */
(PID.TID 0000.0001)                -7.650000000000000E+01,      /* J =  3 */
(PID.TID 0000.0001)                -7.350000000000000E+01,      /* J =  4 */
(PID.TID 0000.0001)                -7.050000000000000E+01,      /* J =  5 */
(PID.TID 0000.0001)                -6.750000000000000E+01,      /* J =  6 */
(PID.TID 0000.0001)                -6.450000000000000E+01,      /* J =  7 */
(PID.TID 0000.0001)                -6.150000000000000E+01,      /* J =  8 */
(PID.TID 0000.0001)                -5.850000000000000E+01,      /* J =  9 */
(PID.TID 0000.0001)                -5.550000000000000E+01,      /* J = 10 */
(PID.TID 0000.0001)                -5.250000000000000E+01,      /* J = 11 */
(PID.TID 0000.0001)                -4.950000000000000E+01,      /* J = 12 */
(PID.TID 0000.0001)                -4.650000000000000E+01,      /* J = 13 */
(PID.TID 0000.0001)                -4.350000000000000E+01,      /* J = 14 */
(PID.TID 0000.0001)                -4.050000000000000E+01,      /* J = 15 */
(PID.TID 0000.0001)                -3.750000000000000E+01,      /* J = 16 */
(PID.TID 0000.0001)                -3.450000000000000E+01,      /* J = 17 */
(PID.TID 0000.0001)                -3.150000000000000E+01,      /* J = 18 */
(PID.TID 0000.0001)                -2.850000000000000E+01,      /* J = 19 */
(PID.TID 0000.0001)                -2.550000000000000E+01,      /* J = 20 */
(PID.TID 0000.0001)                -2.250000000000000E+01,      /* J = 21 */
(PID.TID 0000.0001)                -1.950000000000000E+01,      /* J = 22 */
(PID.TID 0000.0001)                -1.650000000000000E+01,      /* J = 23 */
(PID.TID 0000.0001)                -1.350000000000000E+01,      /* J = 24 */
(PID.TID 0000.0001)                -1.050000000000000E+01,      /* J = 25 */
(PID.TID 0000.0001)                -7.500000000000000E+00,      /* J = 26 */
(PID.TID 0000.0001)                -4.500000000000000E+00,      /* J = 27 */
(PID.TID 0000.0001)                -1.500000000000000E+00,      /* J = 28 */
(PID.TID 0000.0001)                 1.500000000000000E+00,      /* J = 29 */
(PID.TID 0000.0001)                 4.500000000000000E+00,      /* J = 30 */
(PID.TID 0000.0001)                 7.500000000000000E+00,      /* J = 31 */
(PID.TID 0000.0001)                 1.050000000000000E+01,      /* J = 32 */
(PID.TID 0000.0001)                 1.350000000000000E+01,      /* J = 33 */
(PID.TID 0000.0001)                 1.650000000000000E+01,      /* J = 34 */
(PID.TID 0000.0001)                 1.950000000000000E+01,      /* J = 35 */
(PID.TID 0000.0001)                 2.250000000000000E+01,      /* J = 36 */
(PID.TID 0000.0001)                 2.550000000000000E+01,      /* J = 37 */
(PID.TID 0000.0001)                 2.850000000000000E+01,      /* J = 38 */
(PID.TID 0000.0001)                 3.150000000000000E+01,      /* J = 39 */
(PID.TID 0000.0001)                 3.450000000000000E+01,      /* J = 40 */
(PID.TID 0000.0001)                 3.750000000000000E+01,      /* J = 41 */
(PID.TID 0000.0001)                 4.050000000000000E+01,      /* J = 42 */
(PID.TID 0000.0001)                 4.350000000000000E+01,      /* J = 43 */
(PID.TID 0000.0001)                 4.650000000000000E+01,      /* J = 44 */
(PID.TID 0000.0001)                 4.950000000000000E+01,      /* J = 45 */
(PID.TID 0000.0001)                 5.250000000000000E+01,      /* J = 46 */
(PID.TID 0000.0001)                 5.550000000000000E+01,      /* J = 47 */
(PID.TID 0000.0001)                 5.850000000000000E+01,      /* J = 48 */
(PID.TID 0000.0001)                 6.150000000000000E+01,      /* J = 49 */
(PID.TID 0000.0001)                 6.450000000000000E+01,      /* J = 50 */
(PID.TID 0000.0001)                 6.750000000000000E+01,      /* J = 51 */
(PID.TID 0000.0001)                 7.050000000000000E+01,      /* J = 52 */
(PID.TID 0000.0001)                 7.350000000000000E+01,      /* J = 53 */
(PID.TID 0000.0001)                 7.650000000000000E+01,      /* J = 54 */
(PID.TID 0000.0001)                 7.950000000000000E+01,      /* J = 55 */
(PID.TID 0000.0001)                 8.250000000000000E+01       /* J = 56 */
(PID.TID 0000.0001)     ;
(PID.TID 0000.0001) rcoord =   /* P-point R coordinate (  units of r ) */
(PID.TID 0000.0001)                -2.000000000000000E+01,      /* K =  1 */
(PID.TID 0000.0001)                -8.000000000000000E+01,      /* K =  2 */
(PID.TID 0000.0001)                -1.650000000000000E+02,      /* K =  3 */
(PID.TID 0000.0001)                -2.850000000000000E+02,      /* K =  4 */
(PID.TID 0000.0001)                -4.500000000000000E+02,      /* K =  5 */
(PID.TID 0000.0001)                -6.650000000000000E+02,      /* K =  6 */
(PID.TID 0000.0001)                -9.300000000000000E+02,      /* K =  7 */
(PID.TID 0000.0001)                -1.245000000000000E+03,      /* K =  8 */
(PID.TID 0000.0001)                -1.610000000000000E+03,      /* K =  9 */
(PID.TID 0000.0001)                -2.025000000000000E+03,      /* K = 10 */
(PID.TID 0000.0001)                -2.490000000000000E+03,      /* K = 11 */
(PID.TID 0000.0001)                -3.005000000000000E+03,      /* K = 12 */
(PID.TID 0000.0001)                -3.570000000000000E+03,      /* K = 13 */
(PID.TID 0000.0001)                -4.185000000000000E+03,      /* K = 14 */
(PID.TID 0000.0001)                -4.850000000000000E+03       /* K = 15 */
(PID.TID 0000.0001)     ;
(PID.TID 0000.0001) rF =   /* W-Interf. R coordinate (  units of r ) */
(PID.TID 0000.0001)                 0.000000000000000E+00,      /* K =  1 */
(PID.TID 0000.0001)                -5.000000000000000E+01,      /* K =  2 */
(PID.TID 0000.0001)                -1.225000000000000E+02,      /* K =  3 */
(PID.TID 0000.0001)                -2.250000000000000E+02,      /* K =  4 */
(PID.TID 0000.0001)                -3.675000000000000E+02,      /* K =  5 */
(PID.TID 0000.0001)                -5.575000000000000E+02,      /* K =  6 */
(PID.TID 0000.0001)                -7.975000000000000E+02,      /* K =  7 */
(PID.TID 0000.0001)                -1.087500000000000E+03,      /* K =  8 */
(PID.TID 0000.0001)                -1.427500000000000E+03,      /* K =  9 */
(PID.TID 0000.0001)                -1.817500000000000E+03,      /* K = 10 */
(PID.TID 0000.0001)                -2.257500000000000E+03,      /* K = 11 */
(PID.TID 0000.0001)                -2.747500000000000E+03,      /* K = 12 */
(PID.TID 0000.0001)                -3.287500000000000E+03,      /* K = 13 */
(PID.TID 0000.0001)                -3.877500000000000E+03,      /* K = 14 */
(PID.TID 0000.0001)                -4.517500000000000E+03,      /* K = 15 */
(PID.TID 0000.0001)                -5.200000000000000E+03       /* K = 16 */
(PID.TID 0000.0001)     ;
(PID.TID 0000.0001) dxF =  /* dxF(:,1,:,1) ( m - cartesian, degrees - spherical ) */
(PID.TID 0000.0001)                 4.353471677186368E+04       /* I =  1 */
(PID.TID 0000.0001)     ;
(PID.TID 0000.0001) dxF =  /* dxF(1,:,1,:) ( m - cartesian, degrees - spherical ) */
(PID.TID 0000.0001)                 4.353471677186368E+04,      /* J =  1 */
(PID.TID 0000.0001)                 6.078145583759403E+04,      /* J =  2 */
(PID.TID 0000.0001)                 7.786159715774079E+04,      /* J =  3 */
(PID.TID 0000.0001)                 9.472832525217145E+04,      /* J =  4 */
(PID.TID 0000.0001)                 1.113354095915710E+05,      /* J =  5 */
(PID.TID 0000.0001)                 1.276373313121095E+05,      /* J =  6 */
(PID.TID 0000.0001)                 1.435894079794837E+05,      /* J =  7 */
(PID.TID 0000.0001)                 1.591479160603634E+05,      /* J =  8 */
(PID.TID 0000.0001)                 1.742702107655578E+05,      /* J =  9 */
(PID.TID 0000.0001)                 1.889148429364175E+05,      /* J = 10 */
(PID.TID 0000.0001)                 2.030416726540983E+05,      /* J = 11 */
(PID.TID 0000.0001)                 2.166119792602878E+05,      /* J = 12 */
(PID.TID 0000.0001)                 2.295885674878389E+05,      /* J = 13 */
(PID.TID 0000.0001)                 2.419358694104115E+05,      /* J = 14 */
(PID.TID 0000.0001)                 2.536200419316863E+05,      /* J = 15 */
(PID.TID 0000.0001)                 2.646090595469393E+05,      /* J = 16 */
(PID.TID 0000.0001)                 2.748728021227244E+05,      /* J = 17 */
(PID.TID 0000.0001)                 2.843831374540652E+05,      /* J = 18 */
(PID.TID 0000.0001)                 2.931139983728740E+05,      /* J = 19 */
(PID.TID 0000.0001)                 3.010414541962469E+05,      /* J = 20 */
(PID.TID 0000.0001)                 3.081437763188029E+05,      /* J = 21 */
(PID.TID 0000.0001)                 3.144014977692803E+05,      /* J = 22 */
(PID.TID 0000.0001)                 3.197974665681523E+05,      /* J = 23 */
(PID.TID 0000.0001)                 3.243168927400103E+05,      /* J = 24 */
(PID.TID 0000.0001)                 3.279473888518588E+05,      /* J = 25 */
(PID.TID 0000.0001)                 3.306790039662078E+05,      /* J = 26 */
(PID.TID 0000.0001)                 3.325042509159012E+05,      /* J = 27 */
(PID.TID 0000.0001)     2 @  3.334181268259212E+05,             /* J = 28: 29 */
(PID.TID 0000.0001)                 3.325042509159012E+05,      /* J = 30 */
(PID.TID 0000.0001)                 3.306790039662078E+05,      /* J = 31 */
(PID.TID 0000.0001)                 3.279473888518588E+05,      /* J = 32 */
(PID.TID 0000.0001)                 3.243168927400103E+05,      /* J = 33 */
(PID.TID 0000.0001)                 3.197974665681523E+05,      /* J = 34 */
(PID.TID 0000.0001)                 3.144014977692803E+05,      /* J = 35 */
(PID.TID 0000.0001)                 3.081437763188029E+05,      /* J = 36 */
(PID.TID 0000.0001)                 3.010414541962469E+05,      /* J = 37 */
(PID.TID 0000.0001)                 2.931139983728740E+05,      /* J = 38 */
(PID.TID 0000.0001)                 2.843831374540652E+05,      /* J = 39 */
(PID.TID 0000.0001)                 2.748728021227244E+05,      /* J = 40 */
(PID.TID 0000.0001)                 2.646090595469393E+05,      /* J = 41 */
(PID.TID 0000.0001)                 2.536200419316863E+05,      /* J = 42 */
(PID.TID 0000.0001)                 2.419358694104115E+05,      /* J = 43 */
(PID.TID 0000.0001)                 2.295885674878389E+05,      /* J = 44 */
(PID.TID 0000.0001)                 2.166119792602878E+05,      /* J = 45 */
(PID.TID 0000.0001)                 2.030416726540983E+05,      /* J = 46 */
(PID.TID 0000.0001)                 1.889148429364175E+05,      /* J = 47 */
(PID.TID 0000.0001)                 1.742702107655578E+05,      /* J = 48 */
(PID.TID 0000.0001)                 1.591479160603634E+05,      /* J = 49 */
(PID.TID 0000.0001)                 1.435894079794837E+05,      /* J = 50 */
(PID.TID 0000.0001)                 1.276373313121095E+05,      /* J = 51 */
(PID.TID 0000.0001)                 1.113354095915710E+05,      /* J = 52 */
(PID.TID 0000.0001)                 9.472832525217145E+04,      /* J = 53 */
(PID.TID 0000.0001)                 7.786159715774079E+04,      /* J = 54 */
(PID.TID 0000.0001)                 6.078145583759403E+04,      /* J = 55 */
(PID.TID 0000.0001)                 4.353471677186368E+04       /* J = 56 */
(PID.TID 0000.0001)     ;
(PID.TID 0000.0001) dyF =  /* dyF(:,1,:,1) ( m - cartesian, degrees - spherical ) */
(PID.TID 0000.0001)                 3.335324200561164E+05       /* I =  1 */
(PID.TID 0000.0001)     ;
(PID.TID 0000.0001) dyF =  /* dyF(1,:,1,:) ( m - cartesian, degrees - spherical ) */
(PID.TID 0000.0001)    56 @  3.335324200561164E+05              /* J =  1: 56 */
(PID.TID 0000.0001)     ;
(PID.TID 0000.0001) dxG =  /* dxG(:,1,:,1) ( m - cartesian, degrees - spherical ) */
(PID.TID 0000.0001)                 3.486363131840732E+04       /* I =  1 */
(PID.TID 0000.0001)     ;
(PID.TID 0000.0001) dxG =  /* dxG(1,:,1,:) ( m - cartesian, degrees - spherical ) */
(PID.TID 0000.0001)                 3.486363131840732E+04,      /* J =  1 */
(PID.TID 0000.0001)                 5.217596570505215E+04,      /* J =  2 */
(PID.TID 0000.0001)                 6.934528939640634E+04,      /* J =  3 */
(PID.TID 0000.0001)                 8.632454246965688E+04,      /* J =  4 */
(PID.TID 0000.0001)                 1.030671859723435E+05,      /* J =  5 */
(PID.TID 0000.0001)                 1.195273294823922E+05,      /* J =  6 */
(PID.TID 0000.0001)                 1.356598568905725E+05,      /* J =  7 */
(PID.TID 0000.0001)                 1.514205500606167E+05,      /* J =  8 */
(PID.TID 0000.0001)                 1.667662100280582E+05,      /* J =  9 */
(PID.TID 0000.0001)                 1.816547754055899E+05,      /* J = 10 */
(PID.TID 0000.0001)                 1.960454376704035E+05,      /* J = 11 */
(PID.TID 0000.0001)                 2.098987530175138E+05,      /* J = 12 */
(PID.TID 0000.0001)                 2.231767504724865E+05,      /* J = 13 */
(PID.TID 0000.0001)                 2.358430359672399E+05,      /* J = 14 */
(PID.TID 0000.0001)                 2.478628920936555E+05,      /* J = 15 */
(PID.TID 0000.0001)                 2.592033732615809E+05,      /* J = 16 */
(PID.TID 0000.0001)                 2.698333960004017E+05,      /* J = 17 */
(PID.TID 0000.0001)                 2.797238241566748E+05,      /* J = 18 */
(PID.TID 0000.0001)                 2.888475487542992E+05,      /* J = 19 */
(PID.TID 0000.0001)                 2.971795622983349E+05,      /* J = 20 */
(PID.TID 0000.0001)                 3.046970273188090E+05,      /* J = 21 */
(PID.TID 0000.0001)                 3.113793389666330E+05,      /* J = 22 */
(PID.TID 0000.0001)                 3.172081814900619E+05,      /* J = 23 */
(PID.TID 0000.0001)                 3.221675784368968E+05,      /* J = 24 */
(PID.TID 0000.0001)                 3.262439364448301E+05,      /* J = 25 */
(PID.TID 0000.0001)                 3.294260824999060E+05,      /* J = 26 */
(PID.TID 0000.0001)                 3.317052945609760E+05,      /* J = 27 */
(PID.TID 0000.0001)                 3.330753254662066E+05,      /* J = 28 */
(PID.TID 0000.0001)                 3.335324200561164E+05,      /* J = 29 */
(PID.TID 0000.0001)                 3.330753254662066E+05,      /* J = 30 */
(PID.TID 0000.0001)                 3.317052945609760E+05,      /* J = 31 */
(PID.TID 0000.0001)                 3.294260824999060E+05,      /* J = 32 */
(PID.TID 0000.0001)                 3.262439364448301E+05,      /* J = 33 */
(PID.TID 0000.0001)                 3.221675784368968E+05,      /* J = 34 */
(PID.TID 0000.0001)                 3.172081814900619E+05,      /* J = 35 */
(PID.TID 0000.0001)                 3.113793389666330E+05,      /* J = 36 */
(PID.TID 0000.0001)                 3.046970273188090E+05,      /* J = 37 */
(PID.TID 0000.0001)                 2.971795622983349E+05,      /* J = 38 */
(PID.TID 0000.0001)                 2.888475487542992E+05,      /* J = 39 */
(PID.TID 0000.0001)                 2.797238241566748E+05,      /* J = 40 */
(PID.TID 0000.0001)                 2.698333960004017E+05,      /* J = 41 */
(PID.TID 0000.0001)                 2.592033732615809E+05,      /* J = 42 */
(PID.TID 0000.0001)                 2.478628920936555E+05,      /* J = 43 */
(PID.TID 0000.0001)                 2.358430359672399E+05,      /* J = 44 */
(PID.TID 0000.0001)                 2.231767504724865E+05,      /* J = 45 */
(PID.TID 0000.0001)                 2.098987530175138E+05,      /* J = 46 */
(PID.TID 0000.0001)                 1.960454376704035E+05,      /* J = 47 */
(PID.TID 0000.0001)                 1.816547754055899E+05,      /* J = 48 */
(PID.TID 0000.0001)                 1.667662100280582E+05,      /* J = 49 */
(PID.TID 0000.0001)                 1.514205500606167E+05,      /* J = 50 */
(PID.TID 0000.0001)                 1.356598568905725E+05,      /* J = 51 */
(PID.TID 0000.0001)                 1.195273294823922E+05,      /* J = 52 */
(PID.TID 0000.0001)                 1.030671859723435E+05,      /* J = 53 */
(PID.TID 0000.0001)                 8.632454246965688E+04,      /* J = 54 */
(PID.TID 0000.0001)                 6.934528939640634E+04,      /* J = 55 */
(PID.TID 0000.0001)                 5.217596570505215E+04       /* J = 56 */
(PID.TID 0000.0001)     ;
(PID.TID 0000.0001) dyG =  /* dyG(:,1,:,1) ( m - cartesian, degrees - spherical ) */
(PID.TID 0000.0001)                 3.335324200561164E+05       /* I =  1 */
(PID.TID 0000.0001)     ;
(PID.TID 0000.0001) dyG =  /* dyG(1,:,1,:) ( m - cartesian, degrees - spherical ) */
(PID.TID 0000.0001)    56 @  3.335324200561164E+05              /* J =  1: 56 */
(PID.TID 0000.0001)     ;
(PID.TID 0000.0001) dxC =  /* dxC(:,1,:,1) ( m - cartesian, degrees - spherical ) */
(PID.TID 0000.0001)                 4.353471677186368E+04       /* I =  1 */
(PID.TID 0000.0001)     ;
(PID.TID 0000.0001) dxC =  /* dxC(1,:,1,:) ( m - cartesian, degrees - spherical ) */
(PID.TID 0000.0001)                 4.353471677186368E+04,      /* J =  1 */
(PID.TID 0000.0001)                 6.078145583759403E+04,      /* J =  2 */
(PID.TID 0000.0001)                 7.786159715774079E+04,      /* J =  3 */
(PID.TID 0000.0001)                 9.472832525217145E+04,      /* J =  4 */
(PID.TID 0000.0001)                 1.113354095915710E+05,      /* J =  5 */
(PID.TID 0000.0001)                 1.276373313121095E+05,      /* J =  6 */
(PID.TID 0000.0001)                 1.435894079794837E+05,      /* J =  7 */
(PID.TID 0000.0001)                 1.591479160603634E+05,      /* J =  8 */
(PID.TID 0000.0001)                 1.742702107655578E+05,      /* J =  9 */
(PID.TID 0000.0001)                 1.889148429364175E+05,      /* J = 10 */
(PID.TID 0000.0001)                 2.030416726540983E+05,      /* J = 11 */
(PID.TID 0000.0001)                 2.166119792602878E+05,      /* J = 12 */
(PID.TID 0000.0001)                 2.295885674878389E+05,      /* J = 13 */
(PID.TID 0000.0001)                 2.419358694104115E+05,      /* J = 14 */
(PID.TID 0000.0001)                 2.536200419316863E+05,      /* J = 15 */
(PID.TID 0000.0001)                 2.646090595469393E+05,      /* J = 16 */
(PID.TID 0000.0001)                 2.748728021227244E+05,      /* J = 17 */
(PID.TID 0000.0001)                 2.843831374540652E+05,      /* J = 18 */
(PID.TID 0000.0001)                 2.931139983728740E+05,      /* J = 19 */
(PID.TID 0000.0001)                 3.010414541962469E+05,      /* J = 20 */
(PID.TID 0000.0001)                 3.081437763188029E+05,      /* J = 21 */
(PID.TID 0000.0001)                 3.144014977692803E+05,      /* J = 22 */
(PID.TID 0000.0001)                 3.197974665681523E+05,      /* J = 23 */
(PID.TID 0000.0001)                 3.243168927400103E+05,      /* J = 24 */
(PID.TID 0000.0001)                 3.279473888518588E+05,      /* J = 25 */
(PID.TID 0000.0001)                 3.306790039662078E+05,      /* J = 26 */
(PID.TID 0000.0001)                 3.325042509159012E+05,      /* J = 27 */
(PID.TID 0000.0001)     2 @  3.334181268259212E+05,             /* J = 28: 29 */
(PID.TID 0000.0001)                 3.325042509159012E+05,      /* J = 30 */
(PID.TID 0000.0001)                 3.306790039662078E+05,      /* J = 31 */
(PID.TID 0000.0001)                 3.279473888518588E+05,      /* J = 32 */
(PID.TID 0000.0001)                 3.243168927400103E+05,      /* J = 33 */
(PID.TID 0000.0001)                 3.197974665681523E+05,      /* J = 34 */
(PID.TID 0000.0001)                 3.144014977692803E+05,      /* J = 35 */
(PID.TID 0000.0001)                 3.081437763188029E+05,      /* J = 36 */
(PID.TID 0000.0001)                 3.010414541962469E+05,      /* J = 37 */
(PID.TID 0000.0001)                 2.931139983728740E+05,      /* J = 38 */
(PID.TID 0000.0001)                 2.843831374540652E+05,      /* J = 39 */
(PID.TID 0000.0001)                 2.748728021227244E+05,      /* J = 40 */
(PID.TID 0000.0001)                 2.646090595469393E+05,      /* J = 41 */
(PID.TID 0000.0001)                 2.536200419316863E+05,      /* J = 42 */
(PID.TID 0000.0001)                 2.419358694104115E+05,      /* J = 43 */
(PID.TID 0000.0001)                 2.295885674878389E+05,      /* J = 44 */
(PID.TID 0000.0001)                 2.166119792602878E+05,      /* J = 45 */
(PID.TID 0000.0001)                 2.030416726540983E+05,      /* J = 46 */
(PID.TID 0000.0001)                 1.889148429364175E+05,      /* J = 47 */
(PID.TID 0000.0001)                 1.742702107655578E+05,      /* J = 48 */
(PID.TID 0000.0001)                 1.591479160603634E+05,      /* J = 49 */
(PID.TID 0000.0001)                 1.435894079794837E+05,      /* J = 50 */
(PID.TID 0000.0001)                 1.276373313121095E+05,      /* J = 51 */
(PID.TID 0000.0001)                 1.113354095915710E+05,      /* J = 52 */
(PID.TID 0000.0001)                 9.472832525217145E+04,      /* J = 53 */
(PID.TID 0000.0001)                 7.786159715774079E+04,      /* J = 54 */
(PID.TID 0000.0001)                 6.078145583759403E+04,      /* J = 55 */
(PID.TID 0000.0001)                 4.353471677186368E+04       /* J = 56 */
(PID.TID 0000.0001)     ;
(PID.TID 0000.0001) dyC =  /* dyC(:,1,:,1) ( m - cartesian, degrees - spherical ) */
(PID.TID 0000.0001)                 3.335324200561164E+05       /* I =  1 */
(PID.TID 0000.0001)     ;
(PID.TID 0000.0001) dyC =  /* dyC(1,:,1,:) ( m - cartesian, degrees - spherical ) */
(PID.TID 0000.0001)    56 @  3.335324200561164E+05              /* J =  1: 56 */
(PID.TID 0000.0001)     ;
(PID.TID 0000.0001) dxV =  /* dxV(:,1,:,1) ( m - cartesian, degrees - spherical ) */
(PID.TID 0000.0001)                 3.486363131840732E+04       /* I =  1 */
(PID.TID 0000.0001)     ;
(PID.TID 0000.0001) dxV =  /* dxV(1,:,1,:) ( m - cartesian, degrees - spherical ) */
(PID.TID 0000.0001)                 3.486363131840732E+04,      /* J =  1 */
(PID.TID 0000.0001)                 5.217596570505215E+04,      /* J =  2 */
(PID.TID 0000.0001)                 6.934528939640634E+04,      /* J =  3 */
(PID.TID 0000.0001)                 8.632454246965688E+04,      /* J =  4 */
(PID.TID 0000.0001)                 1.030671859723435E+05,      /* J =  5 */
(PID.TID 0000.0001)                 1.195273294823922E+05,      /* J =  6 */
(PID.TID 0000.0001)                 1.356598568905725E+05,      /* J =  7 */
(PID.TID 0000.0001)                 1.514205500606167E+05,      /* J =  8 */
(PID.TID 0000.0001)                 1.667662100280582E+05,      /* J =  9 */
(PID.TID 0000.0001)                 1.816547754055899E+05,      /* J = 10 */
(PID.TID 0000.0001)                 1.960454376704035E+05,      /* J = 11 */
(PID.TID 0000.0001)                 2.098987530175138E+05,      /* J = 12 */
(PID.TID 0000.0001)                 2.231767504724865E+05,      /* J = 13 */
(PID.TID 0000.0001)                 2.358430359672399E+05,      /* J = 14 */
(PID.TID 0000.0001)                 2.478628920936555E+05,      /* J = 15 */
(PID.TID 0000.0001)                 2.592033732615809E+05,      /* J = 16 */
(PID.TID 0000.0001)                 2.698333960004017E+05,      /* J = 17 */
(PID.TID 0000.0001)                 2.797238241566748E+05,      /* J = 18 */
(PID.TID 0000.0001)                 2.888475487542992E+05,      /* J = 19 */
(PID.TID 0000.0001)                 2.971795622983349E+05,      /* J = 20 */
(PID.TID 0000.0001)                 3.046970273188090E+05,      /* J = 21 */
(PID.TID 0000.0001)                 3.113793389666330E+05,      /* J = 22 */
(PID.TID 0000.0001)                 3.172081814900619E+05,      /* J = 23 */
(PID.TID 0000.0001)                 3.221675784368968E+05,      /* J = 24 */
(PID.TID 0000.0001)                 3.262439364448301E+05,      /* J = 25 */
(PID.TID 0000.0001)                 3.294260824999060E+05,      /* J = 26 */
(PID.TID 0000.0001)                 3.317052945609760E+05,      /* J = 27 */
(PID.TID 0000.0001)                 3.330753254662066E+05,      /* J = 28 */
(PID.TID 0000.0001)                 3.335324200561164E+05,      /* J = 29 */
(PID.TID 0000.0001)                 3.330753254662066E+05,      /* J = 30 */
(PID.TID 0000.0001)                 3.317052945609760E+05,      /* J = 31 */
(PID.TID 0000.0001)                 3.294260824999060E+05,      /* J = 32 */
(PID.TID 0000.0001)                 3.262439364448301E+05,      /* J = 33 */
(PID.TID 0000.0001)                 3.221675784368968E+05,      /* J = 34 */
(PID.TID 0000.0001)                 3.172081814900619E+05,      /* J = 35 */
(PID.TID 0000.0001)                 3.113793389666330E+05,      /* J = 36 */
(PID.TID 0000.0001)                 3.046970273188090E+05,      /* J = 37 */
(PID.TID 0000.0001)                 2.971795622983349E+05,      /* J = 38 */
(PID.TID 0000.0001)                 2.888475487542992E+05,      /* J = 39 */
(PID.TID 0000.0001)                 2.797238241566748E+05,      /* J = 40 */
(PID.TID 0000.0001)                 2.698333960004017E+05,      /* J = 41 */
(PID.TID 0000.0001)                 2.592033732615809E+05,      /* J = 42 */
(PID.TID 0000.0001)                 2.478628920936555E+05,      /* J = 43 */
(PID.TID 0000.0001)                 2.358430359672399E+05,      /* J = 44 */
(PID.TID 0000.0001)                 2.231767504724865E+05,      /* J = 45 */
(PID.TID 0000.0001)                 2.098987530175138E+05,      /* J = 46 */
(PID.TID 0000.0001)                 1.960454376704035E+05,      /* J = 47 */
(PID.TID 0000.0001)                 1.816547754055899E+05,      /* J = 48 */
(PID.TID 0000.0001)                 1.667662100280582E+05,      /* J = 49 */
(PID.TID 0000.0001)                 1.514205500606167E+05,      /* J = 50 */
(PID.TID 0000.0001)                 1.356598568905725E+05,      /* J = 51 */
(PID.TID 0000.0001)                 1.195273294823922E+05,      /* J = 52 */
(PID.TID 0000.0001)                 1.030671859723435E+05,      /* J = 53 */
(PID.TID 0000.0001)                 8.632454246965688E+04,      /* J = 54 */
(PID.TID 0000.0001)                 6.934528939640634E+04,      /* J = 55 */
(PID.TID 0000.0001)                 5.217596570505215E+04       /* J = 56 */
(PID.TID 0000.0001)     ;
(PID.TID 0000.0001) dyU =  /* dyU(:,1,:,1) ( m - cartesian, degrees - spherical ) */
(PID.TID 0000.0001)                 3.335324200561164E+05       /* I =  1 */
(PID.TID 0000.0001)     ;
(PID.TID 0000.0001) dyU =  /* dyU(1,:,1,:) ( m - cartesian, degrees - spherical ) */
(PID.TID 0000.0001)    56 @  3.335324200561164E+05              /* J =  1: 56 */
(PID.TID 0000.0001)     ;
(PID.TID 0000.0001) rA =  /* rA(:,1,:,1) ( m - cartesian, degrees - spherical ) */
(PID.TID 0000.0001)                 1.451858082901546E+10       /* I =  1 */
(PID.TID 0000.0001)     ;
(PID.TID 0000.0001) rA =  /* rA(1,:,1,:) ( m - cartesian, degrees - spherical ) */
(PID.TID 0000.0001)                 1.451858082901546E+10,      /* J =  1 */
(PID.TID 0000.0001)                 2.027027037083390E+10,      /* J =  2 */
(PID.TID 0000.0001)                 2.596640051053467E+10,      /* J =  3 */
(PID.TID 0000.0001)                 3.159135855133887E+10,      /* J =  4 */
(PID.TID 0000.0001)                 3.712972687424193E+10,      /* J =  5 */
(PID.TID 0000.0001)                 4.256632519663847E+10,      /* J =  6 */
(PID.TID 0000.0001)                 4.788625218042024E+10,      /* J =  7 */
(PID.TID 0000.0001)                 5.307492627550772E+10,      /* J =  8 */
(PID.TID 0000.0001)                 5.811812568686682E+10,      /* J =  9 */
(PID.TID 0000.0001)                 6.300202735545998E+10,      /* J = 10 */
(PID.TID 0000.0001)                 6.771324484628883E+10,      /* J = 11 */
(PID.TID 0000.0001)                 7.223886503968408E+10,      /* J = 12 */
(PID.TID 0000.0001)                 7.656648352526764E+10,      /* J = 13 */
(PID.TID 0000.0001)                 8.068423860157896E+10,      /* J = 14 */
(PID.TID 0000.0001)                 8.458084378817654E+10,      /* J = 15 */
(PID.TID 0000.0001)                 8.824561876109261E+10,      /* J = 16 */
(PID.TID 0000.0001)                 9.166851862686259E+10,      /* J = 17 */
(PID.TID 0000.0001)                 9.484016145487708E+10,      /* J = 18 */
(PID.TID 0000.0001)                 9.775185399260219E+10,      /* J = 19 */
(PID.TID 0000.0001)                 1.003956154931818E+11,      /* J = 20 */
(PID.TID 0000.0001)                 1.027641995901083E+11,      /* J = 21 */
(PID.TID 0000.0001)                 1.048511141590103E+11,      /* J = 22 */
(PID.TID 0000.0001)                 1.066506391121139E+11,      /* J = 23 */
(PID.TID 0000.0001)                 1.081578420766062E+11,      /* J = 24 */
(PID.TID 0000.0001)                 1.093685919139261E+11,      /* J = 25 */
(PID.TID 0000.0001)                 1.102795700429274E+11,      /* J = 26 */
(PID.TID 0000.0001)                 1.108882795358801E+11,      /* J = 27 */
(PID.TID 0000.0001)     2 @  1.111930519623746E+11,             /* J = 28: 29 */
(PID.TID 0000.0001)                 1.108882795358801E+11,      /* J = 30 */
(PID.TID 0000.0001)                 1.102795700429274E+11,      /* J = 31 */
(PID.TID 0000.0001)                 1.093685919139261E+11,      /* J = 32 */
(PID.TID 0000.0001)                 1.081578420766062E+11,      /* J = 33 */
(PID.TID 0000.0001)                 1.066506391121138E+11,      /* J = 34 */
(PID.TID 0000.0001)                 1.048511141590102E+11,      /* J = 35 */
(PID.TID 0000.0001)                 1.027641995901083E+11,      /* J = 36 */
(PID.TID 0000.0001)                 1.003956154931817E+11,      /* J = 37 */
(PID.TID 0000.0001)                 9.775185399260213E+10,      /* J = 38 */
(PID.TID 0000.0001)                 9.484016145487704E+10,      /* J = 39 */
(PID.TID 0000.0001)                 9.166851862686264E+10,      /* J = 40 */
(PID.TID 0000.0001)                 8.824561876109264E+10,      /* J = 41 */
(PID.TID 0000.0001)                 8.458084378817656E+10,      /* J = 42 */
(PID.TID 0000.0001)                 8.068423860157892E+10,      /* J = 43 */
(PID.TID 0000.0001)                 7.656648352526752E+10,      /* J = 44 */
(PID.TID 0000.0001)                 7.223886503968408E+10,      /* J = 45 */
(PID.TID 0000.0001)                 6.771324484628897E+10,      /* J = 46 */
(PID.TID 0000.0001)                 6.300202735546008E+10,      /* J = 47 */
(PID.TID 0000.0001)                 5.811812568686684E+10,      /* J = 48 */
(PID.TID 0000.0001)                 5.307492627550762E+10,      /* J = 49 */
(PID.TID 0000.0001)                 4.788625218042004E+10,      /* J = 50 */
(PID.TID 0000.0001)                 4.256632519663847E+10,      /* J = 51 */
(PID.TID 0000.0001)                 3.712972687424196E+10,      /* J = 52 */
(PID.TID 0000.0001)                 3.159135855133886E+10,      /* J = 53 */
(PID.TID 0000.0001)                 2.596640051053464E+10,      /* J = 54 */
(PID.TID 0000.0001)                 2.027027037083394E+10,      /* J = 55 */
(PID.TID 0000.0001)                 1.451858082901547E+10       /* J = 56 */
(PID.TID 0000.0001)     ;
(PID.TID 0000.0001) rAw =  /* rAw(:,1,:,1) ( m - cartesian, degrees - spherical ) */
(PID.TID 0000.0001)                 1.451858082901546E+10       /* I =  1 */
(PID.TID 0000.0001)     ;
(PID.TID 0000.0001) rAw =  /* rAw(1,:,1,:) ( m - cartesian, degrees - spherical ) */
(PID.TID 0000.0001)                 1.451858082901546E+10,      /* J =  1 */
(PID.TID 0000.0001)                 2.027027037083390E+10,      /* J =  2 */
(PID.TID 0000.0001)                 2.596640051053467E+10,      /* J =  3 */
(PID.TID 0000.0001)                 3.159135855133887E+10,      /* J =  4 */
(PID.TID 0000.0001)                 3.712972687424193E+10,      /* J =  5 */
(PID.TID 0000.0001)                 4.256632519663847E+10,      /* J =  6 */
(PID.TID 0000.0001)                 4.788625218042024E+10,      /* J =  7 */
(PID.TID 0000.0001)                 5.307492627550772E+10,      /* J =  8 */
(PID.TID 0000.0001)                 5.811812568686682E+10,      /* J =  9 */
(PID.TID 0000.0001)                 6.300202735545998E+10,      /* J = 10 */
(PID.TID 0000.0001)                 6.771324484628883E+10,      /* J = 11 */
(PID.TID 0000.0001)                 7.223886503968408E+10,      /* J = 12 */
(PID.TID 0000.0001)                 7.656648352526764E+10,      /* J = 13 */
(PID.TID 0000.0001)                 8.068423860157896E+10,      /* J = 14 */
(PID.TID 0000.0001)                 8.458084378817654E+10,      /* J = 15 */
(PID.TID 0000.0001)                 8.824561876109261E+10,      /* J = 16 */
(PID.TID 0000.0001)                 9.166851862686259E+10,      /* J = 17 */
(PID.TID 0000.0001)                 9.484016145487708E+10,      /* J = 18 */
(PID.TID 0000.0001)                 9.775185399260219E+10,      /* J = 19 */
(PID.TID 0000.0001)                 1.003956154931818E+11,      /* J = 20 */
(PID.TID 0000.0001)                 1.027641995901083E+11,      /* J = 21 */
(PID.TID 0000.0001)                 1.048511141590103E+11,      /* J = 22 */
(PID.TID 0000.0001)                 1.066506391121139E+11,      /* J = 23 */
(PID.TID 0000.0001)                 1.081578420766062E+11,      /* J = 24 */
(PID.TID 0000.0001)                 1.093685919139261E+11,      /* J = 25 */
(PID.TID 0000.0001)                 1.102795700429274E+11,      /* J = 26 */
(PID.TID 0000.0001)                 1.108882795358801E+11,      /* J = 27 */
(PID.TID 0000.0001)     2 @  1.111930519623746E+11,             /* J = 28: 29 */
(PID.TID 0000.0001)                 1.108882795358801E+11,      /* J = 30 */
(PID.TID 0000.0001)                 1.102795700429274E+11,      /* J = 31 */
(PID.TID 0000.0001)                 1.093685919139261E+11,      /* J = 32 */
(PID.TID 0000.0001)                 1.081578420766062E+11,      /* J = 33 */
(PID.TID 0000.0001)                 1.066506391121138E+11,      /* J = 34 */
(PID.TID 0000.0001)                 1.048511141590102E+11,      /* J = 35 */
(PID.TID 0000.0001)                 1.027641995901083E+11,      /* J = 36 */
(PID.TID 0000.0001)                 1.003956154931817E+11,      /* J = 37 */
(PID.TID 0000.0001)                 9.775185399260213E+10,      /* J = 38 */
(PID.TID 0000.0001)                 9.484016145487704E+10,      /* J = 39 */
(PID.TID 0000.0001)                 9.166851862686264E+10,      /* J = 40 */
(PID.TID 0000.0001)                 8.824561876109264E+10,      /* J = 41 */
(PID.TID 0000.0001)                 8.458084378817656E+10,      /* J = 42 */
(PID.TID 0000.0001)                 8.068423860157892E+10,      /* J = 43 */
(PID.TID 0000.0001)                 7.656648352526752E+10,      /* J = 44 */
(PID.TID 0000.0001)                 7.223886503968408E+10,      /* J = 45 */
(PID.TID 0000.0001)                 6.771324484628897E+10,      /* J = 46 */
(PID.TID 0000.0001)                 6.300202735546008E+10,      /* J = 47 */
(PID.TID 0000.0001)                 5.811812568686684E+10,      /* J = 48 */
(PID.TID 0000.0001)                 5.307492627550762E+10,      /* J = 49 */
(PID.TID 0000.0001)                 4.788625218042004E+10,      /* J = 50 */
(PID.TID 0000.0001)                 4.256632519663847E+10,      /* J = 51 */
(PID.TID 0000.0001)                 3.712972687424196E+10,      /* J = 52 */
(PID.TID 0000.0001)                 3.159135855133886E+10,      /* J = 53 */
(PID.TID 0000.0001)                 2.596640051053464E+10,      /* J = 54 */
(PID.TID 0000.0001)                 2.027027037083394E+10,      /* J = 55 */
(PID.TID 0000.0001)                 1.451858082901547E+10       /* J = 56 */
(PID.TID 0000.0001)     ;
(PID.TID 0000.0001) rAs =  /* rAs(:,1,:,1) ( m - cartesian, degrees - spherical ) */
(PID.TID 0000.0001)                 1.162682306954696E+10       /* I =  1 */
(PID.TID 0000.0001)     ;
(PID.TID 0000.0001) rAs =  /* rAs(1,:,1,:) ( m - cartesian, degrees - spherical ) */
(PID.TID 0000.0001)                 1.162682306954696E+10,      /* J =  1 */
(PID.TID 0000.0001)                 1.740038827840318E+10,      /* J =  2 */
(PID.TID 0000.0001)                 2.312626023247482E+10,      /* J =  3 */
(PID.TID 0000.0001)                 2.878874471473554E+10,      /* J =  4 */
(PID.TID 0000.0001)                 3.437232124881430E+10,      /* J =  5 */
(PID.TID 0000.0001)                 3.986168563954114E+10,      /* J =  6 */
(PID.TID 0000.0001)                 4.524179192068169E+10,      /* J =  7 */
(PID.TID 0000.0001)                 5.049789359488567E+10,      /* J =  8 */
(PID.TID 0000.0001)                 5.561558405281214E+10,      /* J =  9 */
(PID.TID 0000.0001)                 6.058083606064120E+10,      /* J = 10 */
(PID.TID 0000.0001)                 6.538004020775071E+10,      /* J = 11 */
(PID.TID 0000.0001)                 7.000004220916159E+10,      /* J = 12 */
(PID.TID 0000.0001)                 7.442817896052026E+10,      /* J = 13 */
(PID.TID 0000.0001)                 7.865231324678773E+10,      /* J = 14 */
(PID.TID 0000.0001)                 8.266086700950056E+10,      /* J = 15 */
(PID.TID 0000.0001)                 8.644285308142706E+10,      /* J = 16 */
(PID.TID 0000.0001)                 8.998790530162650E+10,      /* J = 17 */
(PID.TID 0000.0001)                 9.328630692837668E+10,      /* J = 18 */
(PID.TID 0000.0001)                 9.632901727208780E+10,      /* J = 19 */
(PID.TID 0000.0001)                 9.910769647520416E+10,      /* J = 20 */
(PID.TID 0000.0001)                 1.016147283711734E+11,      /* J = 21 */
(PID.TID 0000.0001)                 1.038432413598304E+11,      /* J = 22 */
(PID.TID 0000.0001)                 1.057871272419753E+11,      /* J = 23 */
(PID.TID 0000.0001)                 1.074410579615232E+11,      /* J = 24 */
(PID.TID 0000.0001)                 1.088005002093347E+11,      /* J = 25 */
(PID.TID 0000.0001)                 1.098617278487027E+11,      /* J = 26 */
(PID.TID 0000.0001)                 1.106218321284322E+11,      /* J = 27 */
(PID.TID 0000.0001)                 1.110787296555271E+11,      /* J = 28 */
(PID.TID 0000.0001)                 1.112311681056240E+11,      /* J = 29 */
(PID.TID 0000.0001)                 1.110787296555271E+11,      /* J = 30 */
(PID.TID 0000.0001)                 1.106218321284322E+11,      /* J = 31 */
(PID.TID 0000.0001)                 1.098617278487027E+11,      /* J = 32 */
(PID.TID 0000.0001)                 1.088005002093347E+11,      /* J = 33 */
(PID.TID 0000.0001)                 1.074410579615232E+11,      /* J = 34 */
(PID.TID 0000.0001)                 1.057871272419753E+11,      /* J = 35 */
(PID.TID 0000.0001)                 1.038432413598305E+11,      /* J = 36 */
(PID.TID 0000.0001)                 1.016147283711734E+11,      /* J = 37 */
(PID.TID 0000.0001)                 9.910769647520409E+10,      /* J = 38 */
(PID.TID 0000.0001)                 9.632901727208765E+10,      /* J = 39 */
(PID.TID 0000.0001)                 9.328630692837668E+10,      /* J = 40 */
(PID.TID 0000.0001)                 8.998790530162660E+10,      /* J = 41 */
(PID.TID 0000.0001)                 8.644285308142712E+10,      /* J = 42 */
(PID.TID 0000.0001)                 8.266086700950056E+10,      /* J = 43 */
(PID.TID 0000.0001)                 7.865231324678767E+10,      /* J = 44 */
(PID.TID 0000.0001)                 7.442817896052028E+10,      /* J = 45 */
(PID.TID 0000.0001)                 7.000004220916158E+10,      /* J = 46 */
(PID.TID 0000.0001)                 6.538004020775074E+10,      /* J = 47 */
(PID.TID 0000.0001)                 6.058083606064124E+10,      /* J = 48 */
(PID.TID 0000.0001)                 5.561558405281208E+10,      /* J = 49 */
(PID.TID 0000.0001)                 5.049789359488557E+10,      /* J = 50 */
(PID.TID 0000.0001)                 4.524179192068160E+10,      /* J = 51 */
(PID.TID 0000.0001)                 3.986168563954120E+10,      /* J = 52 */
(PID.TID 0000.0001)                 3.437232124881444E+10,      /* J = 53 */
(PID.TID 0000.0001)                 2.878874471473555E+10,      /* J = 54 */
(PID.TID 0000.0001)                 2.312626023247481E+10,      /* J = 55 */
(PID.TID 0000.0001)                 1.740038827840322E+10       /* J = 56 */
(PID.TID 0000.0001)     ;
(PID.TID 0000.0001) 
(PID.TID 0000.0001)  MDSREADFIELD: opening global file: pickup.0000036000
(PID.TID 0000.0001)  MDSREADFIELD: opening global file: pickup.0000036000
(PID.TID 0000.0001)  MDSREADFIELD: opening global file: pickup.0000036000
(PID.TID 0000.0001)  MDSREADFIELD: opening global file: pickup.0000036000
(PID.TID 0000.0001)  MDSREADFIELD: opening global file: pickup.0000036000
(PID.TID 0000.0001)  MDSREADFIELD: opening global file: pickup.0000036000
(PID.TID 0000.0001)  MDSREADFIELD: opening global file: pickup.0000036000
(PID.TID 0000.0001)  MDSREADFIELD: opening global file: pickup.0000036000
(PID.TID 0000.0001)  MDSREADFIELD: opening global file: pickup.0000036000
(PID.TID 0000.0001)  MDSREADFIELD: opening global file: pickup.0000036000
(PID.TID 0000.0001)  MDSREADFIELD: opening global file: pickup.0000036000
(PID.TID 0000.0001)  MDSREADFIELD: opening global file: pickup.0000036000
(PID.TID 0000.0001)  MDSREADFIELD: opening global file: pickup.0000036000
(PID.TID 0000.0001)  MDSREADFIELD: opening global file: pickup_cd.0000036000
(PID.TID 0000.0001)  MDSREADFIELD: opening global file: pickup_cd.0000036000
(PID.TID 0000.0001)  MDSREADFIELD: opening global file: pickup_cd.0000036000
(PID.TID 0000.0001)  MDSREADFIELD: opening global file: pickup_cd.0000036000
(PID.TID 0000.0001)  MDSREADFIELD: opening global file: pickup_cd.0000036000
(PID.TID 0000.0001)  MDSREADFIELD: opening global file: taux_sl.bin
(PID.TID 0000.0001)  MDSREADFIELD: opening global file: sst_sl.bin
(PID.TID 0000.0001) // =======================================================
(PID.TID 0000.0001) // Model current state
(PID.TID 0000.0001) // =======================================================
(PID.TID 0000.0001) 
(PID.TID 0000.0001) // =======================================================
(PID.TID 0000.0001) // Begin MONITOR dynamic field statistics
(PID.TID 0000.0001) // =======================================================
(PID.TID 0000.0001) %MON time_tsnumber                =                 36000
(PID.TID 0000.0001) %MON time_secondsf                =   3.1104000000000E+09
(PID.TID 0000.0001) %MON dynstat_eta_max              =   1.6201005177854E+00
(PID.TID 0000.0001) %MON dynstat_eta_min              =  -3.9377441396023E+00
(PID.TID 0000.0001) %MON dynstat_eta_mean             =  -1.5835118936091E-16
(PID.TID 0000.0001) %MON dynstat_eta_sd               =   1.6563991723224E+00
(PID.TID 0000.0001) %MON dynstat_eta_del2             =   1.3977066220033E-02
(PID.TID 0000.0001) %MON dynstat_uvel_max             =   1.4272657430544E-01
(PID.TID 0000.0001) %MON dynstat_uvel_min             =  -3.8630916679110E-01
(PID.TID 0000.0001) %MON dynstat_uvel_mean            =   1.2659893360806E-02
(PID.TID 0000.0001) %MON dynstat_uvel_sd              =   3.8710511996223E-02
(PID.TID 0000.0001) %MON dynstat_uvel_del2            =   6.1842820168116E-04
(PID.TID 0000.0001) %MON dynstat_vvel_max             =   2.2999750655636E-02
(PID.TID 0000.0001) %MON dynstat_vvel_min             =  -2.2999750655604E-02
(PID.TID 0000.0001) %MON dynstat_vvel_mean            =   1.0386453012401E-15
(PID.TID 0000.0001) %MON dynstat_vvel_sd              =   1.5486266626369E-03
(PID.TID 0000.0001) %MON dynstat_vvel_del2            =   7.2795151559418E-05
(PID.TID 0000.0001) %MON dynstat_wvel_max             =   1.3691712526229E-06
(PID.TID 0000.0001) %MON dynstat_wvel_min             =  -8.1261601801594E-07
(PID.TID 0000.0001) %MON dynstat_wvel_mean            =   3.2091165946011E-24
(PID.TID 0000.0001) %MON dynstat_wvel_sd              =   2.5358259198888E-07
(PID.TID 0000.0001) %MON dynstat_wvel_del2            =   3.6741344623394E-08
(PID.TID 0000.0001) %MON dynstat_theta_max            =   2.6657021468384E+01
(PID.TID 0000.0001) %MON dynstat_theta_min            =  -9.3075890930299E-01
(PID.TID 0000.0001) %MON dynstat_theta_mean           =   2.2239378147708E+00
(PID.TID 0000.0001) %MON dynstat_theta_sd             =   3.9264791989428E+00
(PID.TID 0000.0001) %MON dynstat_theta_del2           =   4.1714222085658E-02
(PID.TID 0000.0001) %MON dynstat_salt_max             =   3.4700000000000E+01
(PID.TID 0000.0001) %MON dynstat_salt_min             =   3.4700000000000E+01
(PID.TID 0000.0001) %MON dynstat_salt_mean            =   3.4700000000000E+01
(PID.TID 0000.0001) %MON dynstat_salt_sd              =   5.6843418860808E-14
(PID.TID 0000.0001) %MON dynstat_salt_del2            =   0.0000000000000E+00
(PID.TID 0000.0001) %MON advcfl_uvel_max              =   1.0010587105295E-01
(PID.TID 0000.0001) %MON advcfl_vvel_max              =   5.9579769076500E-03
(PID.TID 0000.0001) %MON advcfl_wvel_max              =   1.9716066037770E-03
(PID.TID 0000.0001) %MON advcfl_W_hf_max              =   5.9148198113310E-03
(PID.TID 0000.0001) %MON pe_b_mean                    =   2.5880083768528E-03
(PID.TID 0000.0001) %MON ke_max                       =   7.4646746291426E-02
(PID.TID 0000.0001) %MON ke_mean                      =   8.3067694548141E-04
(PID.TID 0000.0001) %MON ke_vol                       =   2.1823819113454E+16
(PID.TID 0000.0001) %MON vort_r_min                   =  -1.7696079550502E-07
(PID.TID 0000.0001) %MON vort_r_max                   =   1.7696079550484E-07
(PID.TID 0000.0001) %MON vort_a_mean                  =  -1.6987405801417E-20
(PID.TID 0000.0001) %MON vort_a_sd                    =   8.3264729252745E-05
(PID.TID 0000.0001) %MON vort_p_mean                  =  -1.7093306844659E-20
(PID.TID 0000.0001) %MON vort_p_sd                    =   8.6550954127805E-05
(PID.TID 0000.0001) %MON surfExpan_theta_mean         =   8.7743901385974E-09
(PID.TID 0000.0001) %MON surfExpan_salt_mean          =  -9.7896477860518E-23
(PID.TID 0000.0001) // =======================================================
(PID.TID 0000.0001) // End MONITOR dynamic field statistics
(PID.TID 0000.0001) // =======================================================
 cg2d: Sum(rhs),rhsMax =   9.88098491916389E-15  1.48268847436193E+00
(PID.TID 0000.0001)                    cg2d_init_res =    2.44501306866498E-03
(PID.TID 0000.0001)                       cg2d_iters =    27
(PID.TID 0000.0001)                         cg2d_res =    3.75822342951158E-18
(PID.TID 0000.0001) // =======================================================
(PID.TID 0000.0001) // Begin MONITOR dynamic field statistics
(PID.TID 0000.0001) // =======================================================
(PID.TID 0000.0001) %MON time_tsnumber                =                 36001
(PID.TID 0000.0001) %MON time_secondsf                =   3.1104864000000E+09
(PID.TID 0000.0001) %MON dynstat_eta_max              =   1.6196963215570E+00
(PID.TID 0000.0001) %MON dynstat_eta_min              =  -3.9375471158351E+00
(PID.TID 0000.0001) %MON dynstat_eta_mean             =  -2.0117337390894E-16
(PID.TID 0000.0001) %MON dynstat_eta_sd               =   1.6560833271559E+00
(PID.TID 0000.0001) %MON dynstat_eta_del2             =   1.3973331915970E-02
(PID.TID 0000.0001) %MON dynstat_uvel_max             =   1.4273584335025E-01
(PID.TID 0000.0001) %MON dynstat_uvel_min             =  -3.8630889365622E-01
(PID.TID 0000.0001) %MON dynstat_uvel_mean            =   1.2664018020864E-02
(PID.TID 0000.0001) %MON dynstat_uvel_sd              =   3.8711845487203E-02
(PID.TID 0000.0001) %MON dynstat_uvel_del2            =   6.1844490842428E-04
(PID.TID 0000.0001) %MON dynstat_vvel_max             =   2.3013469069300E-02
(PID.TID 0000.0001) %MON dynstat_vvel_min             =  -2.3013469069268E-02
(PID.TID 0000.0001) %MON dynstat_vvel_mean            =   8.3106337292303E-16
(PID.TID 0000.0001) %MON dynstat_vvel_sd              =   1.5493090604608E-03
(PID.TID 0000.0001) %MON dynstat_vvel_del2            =   7.2807415495002E-05
(PID.TID 0000.0001) %MON dynstat_wvel_max             =   1.4062127926160E-06
(PID.TID 0000.0001) %MON dynstat_wvel_min             =  -8.9649299667251E-07
(PID.TID 0000.0001) %MON dynstat_wvel_mean            =   1.6035797650585E-23
(PID.TID 0000.0001) %MON dynstat_wvel_sd              =   2.6253888896303E-07
(PID.TID 0000.0001) %MON dynstat_wvel_del2            =   3.6990195429410E-08
(PID.TID 0000.0001) %MON dynstat_theta_max            =   2.6657021048099E+01
(PID.TID 0000.0001) %MON dynstat_theta_min            =  -9.3075955906215E-01
(PID.TID 0000.0001) %MON dynstat_theta_mean           =   2.2239290524752E+00
(PID.TID 0000.0001) %MON dynstat_theta_sd             =   3.9264801273832E+00
(PID.TID 0000.0001) %MON dynstat_theta_del2           =   4.1714249845538E-02
(PID.TID 0000.0001) %MON dynstat_salt_max             =   3.4700000000000E+01
(PID.TID 0000.0001) %MON dynstat_salt_min             =   3.4700000000000E+01
(PID.TID 0000.0001) %MON dynstat_salt_mean            =   3.4700000000000E+01
(PID.TID 0000.0001) %MON dynstat_salt_sd              =   5.6843418860808E-14
(PID.TID 0000.0001) %MON dynstat_salt_del2            =   0.0000000000000E+00
(PID.TID 0000.0001) %MON advcfl_uvel_max              =   1.0010580027439E-01
(PID.TID 0000.0001) %MON advcfl_vvel_max              =   5.9615305979939E-03
(PID.TID 0000.0001) %MON advcfl_wvel_max              =   2.0249464213670E-03
(PID.TID 0000.0001) %MON advcfl_W_hf_max              =   6.0748392641009E-03
(PID.TID 0000.0001) %MON pe_b_mean                    =   2.5870214987890E-03
(PID.TID 0000.0001) %MON ke_max                       =   7.4646629770138E-02
(PID.TID 0000.0001) %MON ke_mean                      =   8.3078185700346E-04
(PID.TID 0000.0001) %MON ke_vol                       =   2.1823819113454E+16
(PID.TID 0000.0001) %MON vort_r_min                   =  -1.7696269008054E-07
(PID.TID 0000.0001) %MON vort_r_max                   =   1.7696269008036E-07
(PID.TID 0000.0001) %MON vort_a_mean                  =  -6.1241215025136E-21
(PID.TID 0000.0001) %MON vort_a_sd                    =   8.3264730102260E-05
(PID.TID 0000.0001) %MON vort_p_mean                  =  -6.1622998367242E-21
(PID.TID 0000.0001) %MON vort_p_sd                    =   8.6550954984711E-05
(PID.TID 0000.0001) %MON surfExpan_theta_mean         =  -9.8483250376247E-07
(PID.TID 0000.0001) %MON surfExpan_salt_mean          =  -4.6517069834093E-22
(PID.TID 0000.0001) // =======================================================
(PID.TID 0000.0001) // End MONITOR dynamic field statistics
(PID.TID 0000.0001) // =======================================================
 cg2d: Sum(rhs),rhsMax =   6.43929354282591E-15  1.48203632331482E+00
(PID.TID 0000.0001)                    cg2d_init_res =    3.92252499432954E-03
(PID.TID 0000.0001)                       cg2d_iters =    27
(PID.TID 0000.0001)                         cg2d_res =    7.19641297772249E-18
(PID.TID 0000.0001) // =======================================================
(PID.TID 0000.0001) // Begin MONITOR dynamic field statistics
(PID.TID 0000.0001) // =======================================================
(PID.TID 0000.0001) %MON time_tsnumber                =                 36002
(PID.TID 0000.0001) %MON time_secondsf                =   3.1105728000000E+09
(PID.TID 0000.0001) %MON dynstat_eta_max              =   1.6190044748775E+00
(PID.TID 0000.0001) %MON dynstat_eta_min              =  -3.9370811616373E+00
(PID.TID 0000.0001) %MON dynstat_eta_mean             =  -2.5331895581439E-16
(PID.TID 0000.0001) %MON dynstat_eta_sd               =   1.6554914630098E+00
(PID.TID 0000.0001) %MON dynstat_eta_del2             =   1.3966906608386E-02
(PID.TID 0000.0001) %MON dynstat_uvel_max             =   1.4275313352101E-01
(PID.TID 0000.0001) %MON dynstat_uvel_min             =  -3.8630854420210E-01
(PID.TID 0000.0001) %MON dynstat_uvel_mean            =   1.2671835457208E-02
(PID.TID 0000.0001) %MON dynstat_uvel_sd              =   3.8714487590153E-02
(PID.TID 0000.0001) %MON dynstat_uvel_del2            =   6.1847942530914E-04
(PID.TID 0000.0001) %MON dynstat_vvel_max             =   2.3031054284042E-02
(PID.TID 0000.0001) %MON dynstat_vvel_min             =  -2.3031054284009E-02
(PID.TID 0000.0001) %MON dynstat_vvel_mean            =   1.3791359370237E-15
(PID.TID 0000.0001) %MON dynstat_vvel_sd              =   1.5511126999933E-03
(PID.TID 0000.0001) %MON dynstat_vvel_del2            =   7.2830325923442E-05
(PID.TID 0000.0001) %MON dynstat_wvel_max             =   1.3293340050065E-06
(PID.TID 0000.0001) %MON dynstat_wvel_min             =  -9.6058614107290E-07
(PID.TID 0000.0001) %MON dynstat_wvel_mean            =  -2.8511368827210E-23
(PID.TID 0000.0001) %MON dynstat_wvel_sd              =   2.8144047487966E-07
(PID.TID 0000.0001) %MON dynstat_wvel_del2            =   3.7046368243773E-08
(PID.TID 0000.0001) %MON dynstat_theta_max            =   2.6657623790213E+01
(PID.TID 0000.0001) %MON dynstat_theta_min            =  -9.3076020840991E-01
(PID.TID 0000.0001) %MON dynstat_theta_mean           =   2.2239367994864E+00
(PID.TID 0000.0001) %MON dynstat_theta_sd             =   3.9265316046971E+00
(PID.TID 0000.0001) %MON dynstat_theta_del2           =   4.1716744465735E-02
(PID.TID 0000.0001) %MON dynstat_salt_max             =   3.4700000000000E+01
(PID.TID 0000.0001) %MON dynstat_salt_min             =   3.4700000000000E+01
(PID.TID 0000.0001) %MON dynstat_salt_mean            =   3.4700000000000E+01
(PID.TID 0000.0001) %MON dynstat_salt_sd              =   5.6843418860808E-14
(PID.TID 0000.0001) %MON dynstat_salt_del2            =   0.0000000000000E+00
(PID.TID 0000.0001) %MON advcfl_uvel_max              =   1.0010570971892E-01
(PID.TID 0000.0001) %MON advcfl_vvel_max              =   5.9660859649158E-03
(PID.TID 0000.0001) %MON advcfl_wvel_max              =   1.9142409672094E-03
(PID.TID 0000.0001) %MON advcfl_W_hf_max              =   5.7427229016283E-03
(PID.TID 0000.0001) %MON pe_b_mean                    =   2.5851726888465E-03
(PID.TID 0000.0001) %MON ke_max                       =   7.4646513616301E-02
(PID.TID 0000.0001) %MON ke_mean                      =   8.3098597867332E-04
(PID.TID 0000.0001) %MON ke_vol                       =   2.1823819113454E+16
(PID.TID 0000.0001) %MON vort_r_min                   =  -1.7696634096295E-07
(PID.TID 0000.0001) %MON vort_r_max                   =   1.7696634096277E-07
(PID.TID 0000.0001) %MON vort_a_mean                  =   4.2175231287385E-20
(PID.TID 0000.0001) %MON vort_a_sd                    =   8.3264731694939E-05
(PID.TID 0000.0001) %MON vort_p_mean                  =   4.2438155541066E-20
(PID.TID 0000.0001) %MON vort_p_sd                    =   8.6550956601938E-05
(PID.TID 0000.0001) %MON surfExpan_theta_mean         =  -1.8696671003775E-06
(PID.TID 0000.0001) %MON surfExpan_salt_mean          =   8.2129549435184E-22
(PID.TID 0000.0001) // =======================================================
(PID.TID 0000.0001) // End MONITOR dynamic field statistics
(PID.TID 0000.0001) // =======================================================
 cg2d: Sum(rhs),rhsMax =   4.66293670342566E-15  1.48124933281934E+00
(PID.TID 0000.0001)                    cg2d_init_res =    4.99058877162469E-03
(PID.TID 0000.0001)                       cg2d_iters =    27
(PID.TID 0000.0001)                         cg2d_res =    1.38830206942520E-17
(PID.TID 0000.0001) // =======================================================
(PID.TID 0000.0001) // Begin MONITOR dynamic field statistics
(PID.TID 0000.0001) // =======================================================
(PID.TID 0000.0001) %MON time_tsnumber                =                 36003
(PID.TID 0000.0001) %MON time_secondsf                =   3.1106592000000E+09
(PID.TID 0000.0001) %MON dynstat_eta_max              =   1.6181617881719E+00
(PID.TID 0000.0001) %MON dynstat_eta_min              =  -3.9362517607770E+00
(PID.TID 0000.0001) %MON dynstat_eta_mean             =  -2.9119653576828E-16
(PID.TID 0000.0001) %MON dynstat_eta_sd               =   1.6546777261650E+00
(PID.TID 0000.0001) %MON dynstat_eta_del2             =   1.3959357462267E-02
(PID.TID 0000.0001) %MON dynstat_uvel_max             =   1.4277700268955E-01
(PID.TID 0000.0001) %MON dynstat_uvel_min             =  -3.8630835375350E-01
(PID.TID 0000.0001) %MON dynstat_uvel_mean            =   1.2682983625605E-02
(PID.TID 0000.0001) %MON dynstat_uvel_sd              =   3.8718278385107E-02
(PID.TID 0000.0001) %MON dynstat_uvel_del2            =   6.1853094141040E-04
(PID.TID 0000.0001) %MON dynstat_vvel_max             =   2.3052720628589E-02
(PID.TID 0000.0001) %MON dynstat_vvel_min             =  -2.3052720628556E-02
(PID.TID 0000.0001) %MON dynstat_vvel_mean            =   1.6892659619190E-15
(PID.TID 0000.0001) %MON dynstat_vvel_sd              =   1.5535468115332E-03
(PID.TID 0000.0001) %MON dynstat_vvel_del2            =   7.2848636638949E-05
(PID.TID 0000.0001) %MON dynstat_wvel_max             =   1.2069190296179E-06
(PID.TID 0000.0001) %MON dynstat_wvel_min             =  -1.0020758921283E-06
(PID.TID 0000.0001) %MON dynstat_wvel_mean            =   4.4545557931644E-25
(PID.TID 0000.0001) %MON dynstat_wvel_sd              =   3.0187001935945E-07
(PID.TID 0000.0001) %MON dynstat_wvel_del2            =   3.7054664279572E-08
(PID.TID 0000.0001) %MON dynstat_theta_max            =   2.6658568479551E+01
(PID.TID 0000.0001) %MON dynstat_theta_min            =  -9.3076085725585E-01
(PID.TID 0000.0001) %MON dynstat_theta_mean           =   2.2239592376934E+00
(PID.TID 0000.0001) %MON dynstat_theta_sd             =   3.9266292040899E+00
(PID.TID 0000.0001) %MON dynstat_theta_del2           =   4.1718143233823E-02
(PID.TID 0000.0001) %MON dynstat_salt_max             =   3.4700000000000E+01
(PID.TID 0000.0001) %MON dynstat_salt_min             =   3.4700000000000E+01
(PID.TID 0000.0001) %MON dynstat_salt_mean            =   3.4700000000000E+01
(PID.TID 0000.0001) %MON dynstat_salt_sd              =   5.6843418860808E-14
(PID.TID 0000.0001) %MON dynstat_salt_del2            =   0.0000000000000E+00
(PID.TID 0000.0001) %MON advcfl_uvel_max              =   1.0010566036720E-01
(PID.TID 0000.0001) %MON advcfl_vvel_max              =   5.9716985292613E-03
(PID.TID 0000.0001) %MON advcfl_wvel_max              =   1.8687600649271E-03
(PID.TID 0000.0001) %MON advcfl_W_hf_max              =   5.2138902079494E-03
(PID.TID 0000.0001) %MON pe_b_mean                    =   2.5826318925909E-03
(PID.TID 0000.0001) %MON ke_max                       =   7.4646469594282E-02
(PID.TID 0000.0001) %MON ke_mean                      =   8.3127786936404E-04
(PID.TID 0000.0001) %MON ke_vol                       =   2.1823819113454E+16
(PID.TID 0000.0001) %MON vort_r_min                   =  -1.7697139955508E-07
(PID.TID 0000.0001) %MON vort_r_max                   =   1.7697139955490E-07
(PID.TID 0000.0001) %MON vort_a_mean                  =   2.7206715309819E-20
(PID.TID 0000.0001) %MON vort_a_sd                    =   8.3264733946955E-05
(PID.TID 0000.0001) %MON vort_p_mean                  =   2.7376324464283E-20
(PID.TID 0000.0001) %MON vort_p_sd                    =   8.6550958919012E-05
(PID.TID 0000.0001) %MON surfExpan_theta_mean         =  -2.6096907847030E-06
(PID.TID 0000.0001) %MON surfExpan_salt_mean          =  -1.7217364162390E-22
(PID.TID 0000.0001) // =======================================================
(PID.TID 0000.0001) // End MONITOR dynamic field statistics
(PID.TID 0000.0001) // =======================================================
 cg2d: Sum(rhs),rhsMax =   1.31006316905768E-14  1.48045304354701E+00
(PID.TID 0000.0001)                    cg2d_init_res =    5.73702583763218E-03
(PID.TID 0000.0001)                       cg2d_iters =    27
(PID.TID 0000.0001)                         cg2d_res =    1.60508047676909E-17
(PID.TID 0000.0001) // =======================================================
(PID.TID 0000.0001) // Begin MONITOR dynamic field statistics
(PID.TID 0000.0001) // =======================================================
(PID.TID 0000.0001) %MON time_tsnumber                =                 36004
(PID.TID 0000.0001) %MON time_secondsf                =   3.1107456000000E+09
(PID.TID 0000.0001) %MON dynstat_eta_max              =   1.6173023129587E+00
(PID.TID 0000.0001) %MON dynstat_eta_min              =  -3.9349782911472E+00
(PID.TID 0000.0001) %MON dynstat_eta_mean             =  -2.7419036812925E-16
(PID.TID 0000.0001) %MON dynstat_eta_sd               =   1.6537013341245E+00
(PID.TID 0000.0001) %MON dynstat_eta_del2             =   1.3952629646486E-02
(PID.TID 0000.0001) %MON dynstat_uvel_max             =   1.4280577592752E-01
(PID.TID 0000.0001) %MON dynstat_uvel_min             =  -3.8630832271535E-01
(PID.TID 0000.0001) %MON dynstat_uvel_mean            =   1.2696954706163E-02
(PID.TID 0000.0001) %MON dynstat_uvel_sd              =   3.8723007565060E-02
(PID.TID 0000.0001) %MON dynstat_uvel_del2            =   6.1859751848352E-04
(PID.TID 0000.0001) %MON dynstat_vvel_max             =   2.3076155481046E-02
(PID.TID 0000.0001) %MON dynstat_vvel_min             =  -2.3076155481012E-02
(PID.TID 0000.0001) %MON dynstat_vvel_mean            =   2.4684049559459E-15
(PID.TID 0000.0001) %MON dynstat_vvel_sd              =   1.5560974138286E-03
(PID.TID 0000.0001) %MON dynstat_vvel_del2            =   7.2865050406766E-05
(PID.TID 0000.0001) %MON dynstat_wvel_max             =   1.2492134870158E-06
(PID.TID 0000.0001) %MON dynstat_wvel_min             =  -1.0066853814277E-06
(PID.TID 0000.0001) %MON dynstat_wvel_mean            =  -2.2774757069621E-23
(PID.TID 0000.0001) %MON dynstat_wvel_sd              =   3.1985216633424E-07
(PID.TID 0000.0001) %MON dynstat_wvel_del2            =   3.7010828263449E-08
(PID.TID 0000.0001) %MON dynstat_theta_max            =   2.6659889947513E+01
(PID.TID 0000.0001) %MON dynstat_theta_min            =  -9.3076150550989E-01
(PID.TID 0000.0001) %MON dynstat_theta_mean           =   2.2239939167162E+00
(PID.TID 0000.0001) %MON dynstat_theta_sd             =   3.9267657417174E+00
(PID.TID 0000.0001) %MON dynstat_theta_del2           =   4.1717028804218E-02
(PID.TID 0000.0001) %MON dynstat_salt_max             =   3.4700000000000E+01
(PID.TID 0000.0001) %MON dynstat_salt_min             =   3.4700000000000E+01
(PID.TID 0000.0001) %MON dynstat_salt_mean            =   3.4700000000000E+01
(PID.TID 0000.0001) %MON dynstat_salt_sd              =   5.6843418860808E-14
(PID.TID 0000.0001) %MON dynstat_salt_del2            =   0.0000000000000E+00
(PID.TID 0000.0001) %MON advcfl_uvel_max              =   1.0010565232415E-01
(PID.TID 0000.0001) %MON advcfl_vvel_max              =   5.9777692172381E-03
(PID.TID 0000.0001) %MON advcfl_wvel_max              =   2.1645076816149E-03
(PID.TID 0000.0001) %MON advcfl_W_hf_max              =   5.3966022639083E-03
(PID.TID 0000.0001) %MON pe_b_mean                    =   2.5795848735941E-03
(PID.TID 0000.0001) %MON ke_max                       =   7.4646486528343E-02
(PID.TID 0000.0001) %MON ke_mean                      =   8.3164226839036E-04
(PID.TID 0000.0001) %MON ke_vol                       =   2.1823819113454E+16
(PID.TID 0000.0001) %MON vort_r_min                   =  -1.7697755979215E-07
(PID.TID 0000.0001) %MON vort_r_max                   =   1.7697755979197E-07
(PID.TID 0000.0001) %MON vort_a_mean                  =  -3.4877344540847E-20
(PID.TID 0000.0001) %MON vort_a_sd                    =   8.3264736746092E-05
(PID.TID 0000.0001) %MON vort_p_mean                  =  -3.5094773100308E-20
(PID.TID 0000.0001) %MON vort_p_sd                    =   8.6550961849723E-05
(PID.TID 0000.0001) %MON surfExpan_theta_mean         =  -3.1823034168110E-06
(PID.TID 0000.0001) %MON surfExpan_salt_mean          =  -3.6243553831300E-22
(PID.TID 0000.0001) // =======================================================
(PID.TID 0000.0001) // End MONITOR dynamic field statistics
(PID.TID 0000.0001) // =======================================================
 cg2d: Sum(rhs),rhsMax =   7.54951656745106E-15  1.47975273762414E+00
(PID.TID 0000.0001)                    cg2d_init_res =    6.24810584533711E-03
(PID.TID 0000.0001)                       cg2d_iters =    27
(PID.TID 0000.0001)                         cg2d_res =    6.60042140811111E-18
(PID.TID 0000.0001) // =======================================================
(PID.TID 0000.0001) // Begin MONITOR dynamic field statistics
(PID.TID 0000.0001) // =======================================================
(PID.TID 0000.0001) %MON time_tsnumber                =                 36005
(PID.TID 0000.0001) %MON time_secondsf                =   3.1108320000000E+09
(PID.TID 0000.0001) %MON dynstat_eta_max              =   1.6165315082872E+00
(PID.TID 0000.0001) %MON dynstat_eta_min              =  -3.9332261979657E+00
(PID.TID 0000.0001) %MON dynstat_eta_mean             =  -1.4898916228010E-16
(PID.TID 0000.0001) %MON dynstat_eta_sd               =   1.6526211940209E+00
(PID.TID 0000.0001) %MON dynstat_eta_del2             =   1.3947988600856E-02
(PID.TID 0000.0001) %MON dynstat_uvel_max             =   1.4283771658041E-01
(PID.TID 0000.0001) %MON dynstat_uvel_min             =  -3.8630842569085E-01
(PID.TID 0000.0001) %MON dynstat_uvel_mean            =   1.2713111201642E-02
(PID.TID 0000.0001) %MON dynstat_uvel_sd              =   3.8728427103330E-02
(PID.TID 0000.0001) %MON dynstat_uvel_del2            =   6.1867639766416E-04
(PID.TID 0000.0001) %MON dynstat_vvel_max             =   2.3097803163343E-02
(PID.TID 0000.0001) %MON dynstat_vvel_min             =  -2.3097803163308E-02
(PID.TID 0000.0001) %MON dynstat_vvel_mean            =   2.4893555532726E-15
(PID.TID 0000.0001) %MON dynstat_vvel_sd              =   1.5583003026553E-03
(PID.TID 0000.0001) %MON dynstat_vvel_del2            =   7.2889752079779E-05
(PID.TID 0000.0001) %MON dynstat_wvel_max             =   1.2893808664782E-06
(PID.TID 0000.0001) %MON dynstat_wvel_min             =  -1.0380382863054E-06
(PID.TID 0000.0001) %MON dynstat_wvel_mean            =   4.8518376493412E-23
(PID.TID 0000.0001) %MON dynstat_wvel_sd              =   3.3382644789706E-07
(PID.TID 0000.0001) %MON dynstat_wvel_del2            =   3.6952651546593E-08
(PID.TID 0000.0001) %MON dynstat_theta_max            =   2.6661671720278E+01
(PID.TID 0000.0001) %MON dynstat_theta_min            =  -9.3076215311113E-01
(PID.TID 0000.0001) %MON dynstat_theta_mean           =   2.2240379911961E+00
(PID.TID 0000.0001) %MON dynstat_theta_sd             =   3.9269323787914E+00
(PID.TID 0000.0001) %MON dynstat_theta_del2           =   4.1713283665181E-02
(PID.TID 0000.0001) %MON dynstat_salt_max             =   3.4700000000000E+01
(PID.TID 0000.0001) %MON dynstat_salt_min             =   3.4700000000000E+01
(PID.TID 0000.0001) %MON dynstat_salt_mean            =   3.4700000000000E+01
(PID.TID 0000.0001) %MON dynstat_salt_sd              =   5.6843418860808E-14
(PID.TID 0000.0001) %MON dynstat_salt_del2            =   0.0000000000000E+00
(PID.TID 0000.0001) %MON advcfl_uvel_max              =   1.0010567900862E-01
(PID.TID 0000.0001) %MON advcfl_vvel_max              =   5.9833769472156E-03
(PID.TID 0000.0001) %MON advcfl_wvel_max              =   2.3866956308280E-03
(PID.TID 0000.0001) %MON advcfl_W_hf_max              =   5.5701253431856E-03
(PID.TID 0000.0001) %MON pe_b_mean                    =   2.5762161841534E-03
(PID.TID 0000.0001) %MON ke_max                       =   7.4646548775647E-02
(PID.TID 0000.0001) %MON ke_mean                      =   8.3206087545966E-04
(PID.TID 0000.0001) %MON ke_vol                       =   2.1823819113454E+16
(PID.TID 0000.0001) %MON vort_r_min                   =  -1.7698461877094E-07
(PID.TID 0000.0001) %MON vort_r_max                   =   1.7698461877077E-07
(PID.TID 0000.0001) %MON vort_a_mean                  =   3.7807466505002E-21
(PID.TID 0000.0001) %MON vort_a_sd                    =   8.3264739957643E-05
(PID.TID 0000.0001) %MON vort_p_mean                  =   3.8043161713089E-21
(PID.TID 0000.0001) %MON vort_p_sd                    =   8.6550965279541E-05
(PID.TID 0000.0001) %MON surfExpan_theta_mean         =  -3.5762597995087E-06
(PID.TID 0000.0001) %MON surfExpan_salt_mean          =   2.0657112344817E-21
(PID.TID 0000.0001) // =======================================================
(PID.TID 0000.0001) // End MONITOR dynamic field statistics
(PID.TID 0000.0001) // =======================================================
 cg2d: Sum(rhs),rhsMax =   1.04360964314765E-14  1.47920903835319E+00
(PID.TID 0000.0001)                    cg2d_init_res =    6.56563295726824E-03
(PID.TID 0000.0001)                       cg2d_iters =    27
(PID.TID 0000.0001)                         cg2d_res =    3.72360653315613E-18
(PID.TID 0000.0001) // =======================================================
(PID.TID 0000.0001) // Begin MONITOR dynamic field statistics
(PID.TID 0000.0001) // =======================================================
(PID.TID 0000.0001) %MON time_tsnumber                =                 36006
(PID.TID 0000.0001) %MON time_secondsf                =   3.1109184000000E+09
(PID.TID 0000.0001) %MON dynstat_eta_max              =   1.6159056020270E+00
(PID.TID 0000.0001) %MON dynstat_eta_min              =  -3.9310299589751E+00
(PID.TID 0000.0001) %MON dynstat_eta_mean             =  -2.8219240171301E-16
(PID.TID 0000.0001) %MON dynstat_eta_sd               =   1.6514926282307E+00
(PID.TID 0000.0001) %MON dynstat_eta_del2             =   1.3945733745942E-02
(PID.TID 0000.0001) %MON dynstat_uvel_max             =   1.4287115090073E-01
(PID.TID 0000.0001) %MON dynstat_uvel_min             =  -3.8630862956568E-01
(PID.TID 0000.0001) %MON dynstat_uvel_mean            =   1.2730710276714E-02
(PID.TID 0000.0001) %MON dynstat_uvel_sd              =   3.8734266277224E-02
(PID.TID 0000.0001) %MON dynstat_uvel_del2            =   6.1876418311230E-04
(PID.TID 0000.0001) %MON dynstat_vvel_max             =   2.3114471038526E-02
(PID.TID 0000.0001) %MON dynstat_vvel_min             =  -2.3114471038490E-02
(PID.TID 0000.0001) %MON dynstat_vvel_mean            =   2.1481347369989E-15
(PID.TID 0000.0001) %MON dynstat_vvel_sd              =   1.5597878305268E-03
(PID.TID 0000.0001) %MON dynstat_vvel_del2            =   7.2926480984183E-05
(PID.TID 0000.0001) %MON dynstat_wvel_max             =   1.2961132926883E-06
(PID.TID 0000.0001) %MON dynstat_wvel_min             =  -1.0765478518486E-06
(PID.TID 0000.0001) %MON dynstat_wvel_mean            =   5.6455993227112E-23
(PID.TID 0000.0001) %MON dynstat_wvel_sd              =   3.4275469713865E-07
(PID.TID 0000.0001) %MON dynstat_wvel_del2            =   3.6912886430226E-08
(PID.TID 0000.0001) %MON dynstat_theta_max            =   2.6663898523603E+01
(PID.TID 0000.0001) %MON dynstat_theta_min            =  -9.3076280012189E-01
(PID.TID 0000.0001) %MON dynstat_theta_mean           =   2.2240884259175E+00
(PID.TID 0000.0001) %MON dynstat_theta_sd             =   3.9271194881295E+00
(PID.TID 0000.0001) %MON dynstat_theta_del2           =   4.1707329908083E-02
(PID.TID 0000.0001) %MON dynstat_salt_max             =   3.4700000000000E+01
(PID.TID 0000.0001) %MON dynstat_salt_min             =   3.4700000000000E+01
(PID.TID 0000.0001) %MON dynstat_salt_mean            =   3.4700000000000E+01
(PID.TID 0000.0001) %MON dynstat_salt_sd              =   5.6843418860808E-14
(PID.TID 0000.0001) %MON dynstat_salt_del2            =   0.0000000000000E+00
(PID.TID 0000.0001) %MON advcfl_uvel_max              =   1.0010573183953E-01
(PID.TID 0000.0001) %MON advcfl_vvel_max              =   5.9876946816523E-03
(PID.TID 0000.0001) %MON advcfl_wvel_max              =   2.6547496835877E-03
(PID.TID 0000.0001) %MON advcfl_W_hf_max              =   5.5992094244136E-03
(PID.TID 0000.0001) %MON pe_b_mean                    =   2.5726988182494E-03
(PID.TID 0000.0001) %MON ke_max                       =   7.4646640086143E-02
(PID.TID 0000.0001) %MON ke_mean                      =   8.3251328878007E-04
(PID.TID 0000.0001) %MON ke_vol                       =   2.1823819113454E+16
(PID.TID 0000.0001) %MON vort_r_min                   =  -1.7699240411571E-07
(PID.TID 0000.0001) %MON vort_r_max                   =   1.7699240411553E-07
(PID.TID 0000.0001) %MON vort_a_mean                  =   2.4843954575119E-21
(PID.TID 0000.0001) %MON vort_a_sd                    =   8.3264743430956E-05
(PID.TID 0000.0001) %MON vort_p_mean                  =   2.4998834062813E-21
(PID.TID 0000.0001) %MON vort_p_sd                    =   8.6550969065908E-05
(PID.TID 0000.0001) %MON surfExpan_theta_mean         =  -3.7892214187433E-06
(PID.TID 0000.0001) %MON surfExpan_salt_mean          =   1.8630293228958E-21
(PID.TID 0000.0001) // =======================================================
(PID.TID 0000.0001) // End MONITOR dynamic field statistics
(PID.TID 0000.0001) // =======================================================
 cg2d: Sum(rhs),rhsMax =   6.10622663543836E-15  1.47882604415677E+00
(PID.TID 0000.0001)                    cg2d_init_res =    6.66223978126723E-03
(PID.TID 0000.0001)                       cg2d_iters =    27
(PID.TID 0000.0001)                         cg2d_res =    1.00661188601384E-17
(PID.TID 0000.0001) // =======================================================
(PID.TID 0000.0001) // Begin MONITOR dynamic field statistics
(PID.TID 0000.0001) // =======================================================
(PID.TID 0000.0001) %MON time_tsnumber                =                 36007
(PID.TID 0000.0001) %MON time_secondsf                =   3.1110048000000E+09
(PID.TID 0000.0001) %MON dynstat_eta_max              =   1.6154282636278E+00
(PID.TID 0000.0001) %MON dynstat_eta_min              =  -3.9285004213148E+00
(PID.TID 0000.0001) %MON dynstat_eta_mean             =  -3.3210314050341E-16
(PID.TID 0000.0001) %MON dynstat_eta_sd               =   1.6503659493220E+00
(PID.TID 0000.0001) %MON dynstat_eta_del2             =   1.3945506624091E-02
(PID.TID 0000.0001) %MON dynstat_uvel_max             =   1.4290455291950E-01
(PID.TID 0000.0001) %MON dynstat_uvel_min             =  -3.8630889617325E-01
(PID.TID 0000.0001) %MON dynstat_uvel_mean            =   1.2748937967265E-02
(PID.TID 0000.0001) %MON dynstat_uvel_sd              =   3.8740246215684E-02
(PID.TID 0000.0001) %MON dynstat_uvel_del2            =   6.1885724474083E-04
(PID.TID 0000.0001) %MON dynstat_vvel_max             =   2.3124163652195E-02
(PID.TID 0000.0001) %MON dynstat_vvel_min             =  -2.3124163652160E-02
(PID.TID 0000.0001) %MON dynstat_vvel_mean            =   2.2357944460925E-15
(PID.TID 0000.0001) %MON dynstat_vvel_sd              =   1.5603304646935E-03
(PID.TID 0000.0001) %MON dynstat_vvel_del2            =   7.2959665142726E-05
(PID.TID 0000.0001) %MON dynstat_wvel_max             =   1.2757540575266E-06
(PID.TID 0000.0001) %MON dynstat_wvel_min             =  -1.0964527428923E-06
(PID.TID 0000.0001) %MON dynstat_wvel_mean            =  -4.7984987057825E-23
(PID.TID 0000.0001) %MON dynstat_wvel_sd              =   3.4548725059355E-07
(PID.TID 0000.0001) %MON dynstat_wvel_del2            =   3.6892252375725E-08
(PID.TID 0000.0001) %MON dynstat_theta_max            =   2.6666443602089E+01
(PID.TID 0000.0001) %MON dynstat_theta_min            =  -9.3076344672681E-01
(PID.TID 0000.0001) %MON dynstat_theta_mean           =   2.2241421567009E+00
(PID.TID 0000.0001) %MON dynstat_theta_sd             =   3.9273172388478E+00
(PID.TID 0000.0001) %MON dynstat_theta_del2           =   4.1699812957230E-02
(PID.TID 0000.0001) %MON dynstat_salt_max             =   3.4700000000000E+01
(PID.TID 0000.0001) %MON dynstat_salt_min             =   3.4700000000000E+01
(PID.TID 0000.0001) %MON dynstat_salt_mean            =   3.4700000000000E+01
(PID.TID 0000.0001) %MON dynstat_salt_sd              =   5.6843418860808E-14
(PID.TID 0000.0001) %MON dynstat_salt_del2            =   0.0000000000000E+00
(PID.TID 0000.0001) %MON advcfl_uvel_max              =   1.0010580092664E-01
(PID.TID 0000.0001) %MON advcfl_vvel_max              =   5.9902055074992E-03
(PID.TID 0000.0001) %MON advcfl_wvel_max              =   3.0354451923166E-03
(PID.TID 0000.0001) %MON advcfl_W_hf_max              =   5.5112575285151E-03
(PID.TID 0000.0001) %MON pe_b_mean                    =   2.5691897299179E-03
(PID.TID 0000.0001) %MON ke_max                       =   7.4646743530112E-02
(PID.TID 0000.0001) %MON ke_mean                      =   8.3297804859023E-04
(PID.TID 0000.0001) %MON ke_vol                       =   2.1823819113454E+16
(PID.TID 0000.0001) %MON vort_r_min                   =  -1.7700068614406E-07
(PID.TID 0000.0001) %MON vort_r_max                   =   1.7700068614388E-07
(PID.TID 0000.0001) %MON vort_a_mean                  =   2.5621302963118E-21
(PID.TID 0000.0001) %MON vort_a_sd                    =   8.3264747006718E-05
(PID.TID 0000.0001) %MON vort_p_mean                  =   2.5781028511841E-21
(PID.TID 0000.0001) %MON vort_p_sd                    =   8.6550973041455E-05
(PID.TID 0000.0001) %MON surfExpan_theta_mean         =  -3.8255153165852E-06
(PID.TID 0000.0001) %MON surfExpan_salt_mean          =  -1.3196773734758E-22
(PID.TID 0000.0001) // =======================================================
(PID.TID 0000.0001) // End MONITOR dynamic field statistics
(PID.TID 0000.0001) // =======================================================
 cg2d: Sum(rhs),rhsMax =   1.07691633388640E-14  1.47856353545080E+00
(PID.TID 0000.0001)                    cg2d_init_res =    6.48778891140908E-03
(PID.TID 0000.0001)                       cg2d_iters =    27
(PID.TID 0000.0001)                         cg2d_res =    8.73139342195381E-18
(PID.TID 0000.0001) // =======================================================
(PID.TID 0000.0001) // Begin MONITOR dynamic field statistics
(PID.TID 0000.0001) // =======================================================
(PID.TID 0000.0001) %MON time_tsnumber                =                 36008
(PID.TID 0000.0001) %MON time_secondsf                =   3.1110912000000E+09
(PID.TID 0000.0001) %MON dynstat_eta_max              =   1.6150659796877E+00
(PID.TID 0000.0001) %MON dynstat_eta_min              =  -3.9258130150723E+00
(PID.TID 0000.0001) %MON dynstat_eta_mean             =  -1.4454788025839E-16
(PID.TID 0000.0001) %MON dynstat_eta_sd               =   1.6492863068096E+00
(PID.TID 0000.0001) %MON dynstat_eta_del2             =   1.3946648040169E-02
(PID.TID 0000.0001) %MON dynstat_uvel_max             =   1.4293658993594E-01
(PID.TID 0000.0001) %MON dynstat_uvel_min             =  -3.8630918390974E-01
(PID.TID 0000.0001) %MON dynstat_uvel_mean            =   1.2766951525016E-02
(PID.TID 0000.0001) %MON dynstat_uvel_sd              =   3.8746092819105E-02
(PID.TID 0000.0001) %MON dynstat_uvel_del2            =   6.1895008783541E-04
(PID.TID 0000.0001) %MON dynstat_vvel_max             =   2.3126199337605E-02
(PID.TID 0000.0001) %MON dynstat_vvel_min             =  -2.3126199337570E-02
(PID.TID 0000.0001) %MON dynstat_vvel_mean            =   2.0996381356931E-15
(PID.TID 0000.0001) %MON dynstat_vvel_sd              =   1.5598724217130E-03
(PID.TID 0000.0001) %MON dynstat_vvel_del2            =   7.2978425615486E-05
(PID.TID 0000.0001) %MON dynstat_wvel_max             =   1.2356372887482E-06
(PID.TID 0000.0001) %MON dynstat_wvel_min             =  -1.0980056221719E-06
(PID.TID 0000.0001) %MON dynstat_wvel_mean            =   4.2096434711694E-23
(PID.TID 0000.0001) %MON dynstat_wvel_sd              =   3.4120314786664E-07
(PID.TID 0000.0001) %MON dynstat_wvel_del2            =   3.6905558764193E-08
(PID.TID 0000.0001) %MON dynstat_theta_max            =   2.6669115182884E+01
(PID.TID 0000.0001) %MON dynstat_theta_min            =  -9.3076409322543E-01
(PID.TID 0000.0001) %MON dynstat_theta_mean           =   2.2241962094759E+00
(PID.TID 0000.0001) %MON dynstat_theta_sd             =   3.9275159595476E+00
(PID.TID 0000.0001) %MON dynstat_theta_del2           =   4.1691511846580E-02
(PID.TID 0000.0001) %MON dynstat_salt_max             =   3.4700000000000E+01
(PID.TID 0000.0001) %MON dynstat_salt_min             =   3.4700000000000E+01
(PID.TID 0000.0001) %MON dynstat_salt_mean            =   3.4700000000000E+01
(PID.TID 0000.0001) %MON dynstat_salt_sd              =   5.6843418860808E-14
(PID.TID 0000.0001) %MON dynstat_salt_del2            =   0.0000000000000E+00
(PID.TID 0000.0001) %MON advcfl_uvel_max              =   1.0010587548897E-01
(PID.TID 0000.0001) %MON advcfl_vvel_max              =   5.9907328422014E-03
(PID.TID 0000.0001) %MON advcfl_wvel_max              =   3.2248874910764E-03
(PID.TID 0000.0001) %MON advcfl_W_hf_max              =   5.3379530873924E-03
(PID.TID 0000.0001) %MON pe_b_mean                    =   2.5658293853028E-03
(PID.TID 0000.0001) %MON ke_max                       =   7.4646842155995E-02
(PID.TID 0000.0001) %MON ke_mean                      =   8.3343372117662E-04
(PID.TID 0000.0001) %MON ke_vol                       =   2.1823819113454E+16
(PID.TID 0000.0001) %MON vort_r_min                   =  -1.7700915901518E-07
(PID.TID 0000.0001) %MON vort_r_max                   =   1.7700915901500E-07
(PID.TID 0000.0001) %MON vort_a_mean                  =  -3.5674169151446E-21
(PID.TID 0000.0001) %MON vort_a_sd                    =   8.3264750524605E-05
(PID.TID 0000.0001) %MON vort_p_mean                  =  -3.5896565188492E-21
(PID.TID 0000.0001) %MON vort_p_sd                    =   8.6550977021336E-05
(PID.TID 0000.0001) %MON surfExpan_theta_mean         =  -3.6944253011874E-06
(PID.TID 0000.0001) %MON surfExpan_salt_mean          =   1.0015651707681E-21
(PID.TID 0000.0001) // =======================================================
(PID.TID 0000.0001) // End MONITOR dynamic field statistics
(PID.TID 0000.0001) // =======================================================
 cg2d: Sum(rhs),rhsMax =   8.99280649946377E-15  1.47836483164602E+00
(PID.TID 0000.0001)                    cg2d_init_res =    6.01713215661960E-03
(PID.TID 0000.0001)                       cg2d_iters =    27
(PID.TID 0000.0001)                         cg2d_res =    1.29209237398412E-17
(PID.TID 0000.0001) // =======================================================
(PID.TID 0000.0001) // Begin MONITOR dynamic field statistics
(PID.TID 0000.0001) // =======================================================
(PID.TID 0000.0001) %MON time_tsnumber                =                 36009
(PID.TID 0000.0001) %MON time_secondsf                =   3.1111776000000E+09
(PID.TID 0000.0001) %MON dynstat_eta_max              =   1.6147724109560E+00
(PID.TID 0000.0001) %MON dynstat_eta_min              =  -3.9231800235068E+00
(PID.TID 0000.0001) %MON dynstat_eta_mean             =  -2.2530445317706E-16
(PID.TID 0000.0001) %MON dynstat_eta_sd               =   1.6482941142268E+00
(PID.TID 0000.0001) %MON dynstat_eta_del2             =   1.3948417632913E-02
(PID.TID 0000.0001) %MON dynstat_uvel_max             =   1.4296613042573E-01
(PID.TID 0000.0001) %MON dynstat_uvel_min             =  -3.8630945180283E-01
(PID.TID 0000.0001) %MON dynstat_uvel_mean            =   1.2783926345745E-02
(PID.TID 0000.0001) %MON dynstat_uvel_sd              =   3.8751547642543E-02
(PID.TID 0000.0001) %MON dynstat_uvel_del2            =   6.1903756036803E-04
(PID.TID 0000.0001) %MON dynstat_vvel_max             =   2.3120985229393E-02
(PID.TID 0000.0001) %MON dynstat_vvel_min             =  -2.3120985229358E-02
(PID.TID 0000.0001) %MON dynstat_vvel_mean            =   1.9172850014208E-15
(PID.TID 0000.0001) %MON dynstat_vvel_sd              =   1.5585440457045E-03
(PID.TID 0000.0001) %MON dynstat_vvel_del2            =   7.2978470878232E-05
(PID.TID 0000.0001) %MON dynstat_wvel_max             =   1.1824024202180E-06
(PID.TID 0000.0001) %MON dynstat_wvel_min             =  -1.0681831536818E-06
(PID.TID 0000.0001) %MON dynstat_wvel_mean            =   8.6739063935385E-24
(PID.TID 0000.0001) %MON dynstat_wvel_sd              =   3.3009091749049E-07
(PID.TID 0000.0001) %MON dynstat_wvel_del2            =   3.6903278853165E-08
(PID.TID 0000.0001) %MON dynstat_theta_max            =   2.6671705061249E+01
(PID.TID 0000.0001) %MON dynstat_theta_min            =  -9.3076474001400E-01
(PID.TID 0000.0001) %MON dynstat_theta_mean           =   2.2242477870203E+00
(PID.TID 0000.0001) %MON dynstat_theta_sd             =   3.9277065394609E+00
(PID.TID 0000.0001) %MON dynstat_theta_del2           =   4.1683178927552E-02
(PID.TID 0000.0001) %MON dynstat_salt_max             =   3.4700000000000E+01
(PID.TID 0000.0001) %MON dynstat_salt_min             =   3.4700000000000E+01
(PID.TID 0000.0001) %MON dynstat_salt_mean            =   3.4700000000000E+01
(PID.TID 0000.0001) %MON dynstat_salt_sd              =   5.6843418860808E-14
(PID.TID 0000.0001) %MON dynstat_salt_del2            =   0.0000000000000E+00
(PID.TID 0000.0001) %MON advcfl_uvel_max              =   1.0010594490920E-01
(PID.TID 0000.0001) %MON advcfl_vvel_max              =   5.9893821520662E-03
(PID.TID 0000.0001) %MON advcfl_wvel_max              =   3.1595898785716E-03
(PID.TID 0000.0001) %MON advcfl_W_hf_max              =   5.1079784553419E-03
(PID.TID 0000.0001) %MON pe_b_mean                    =   2.5627431641749E-03
(PID.TID 0000.0001) %MON ke_max                       =   7.4646920676074E-02
(PID.TID 0000.0001) %MON ke_mean                      =   8.3385993670289E-04
(PID.TID 0000.0001) %MON ke_vol                       =   2.1823819113454E+16
(PID.TID 0000.0001) %MON vort_r_min                   =  -1.7701747844471E-07
(PID.TID 0000.0001) %MON vort_r_max                   =   1.7701747844453E-07
(PID.TID 0000.0001) %MON vort_a_mean                  =   3.9460389337902E-20
(PID.TID 0000.0001) %MON vort_a_sd                    =   8.3264753830906E-05
(PID.TID 0000.0001) %MON vort_p_mean                  =   3.9706389018282E-20
(PID.TID 0000.0001) %MON vort_p_sd                    =   8.6550980814750E-05
(PID.TID 0000.0001) %MON surfExpan_theta_mean         =  -3.4092128172820E-06
(PID.TID 0000.0001) %MON surfExpan_salt_mean          =   3.3544198358074E-22
(PID.TID 0000.0001) // =======================================================
(PID.TID 0000.0001) // End MONITOR dynamic field statistics
(PID.TID 0000.0001) // =======================================================
 cg2d: Sum(rhs),rhsMax =   6.43929354282591E-15  1.47818324517762E+00
(PID.TID 0000.0001)                    cg2d_init_res =    5.26769229986823E-03
(PID.TID 0000.0001)                       cg2d_iters =    27
(PID.TID 0000.0001)                         cg2d_res =    8.44245540142312E-18
(PID.TID 0000.0001) // =======================================================
(PID.TID 0000.0001) // Begin MONITOR dynamic field statistics
(PID.TID 0000.0001) // =======================================================
(PID.TID 0000.0001) %MON time_tsnumber                =                 36010
(PID.TID 0000.0001) %MON time_secondsf                =   3.1112640000000E+09
(PID.TID 0000.0001) %MON dynstat_eta_max              =   1.6145097680716E+00
(PID.TID 0000.0001) %MON dynstat_eta_min              =  -3.9208152423241E+00
(PID.TID 0000.0001) %MON dynstat_eta_mean             =  -2.6599518592854E-16
(PID.TID 0000.0001) %MON dynstat_eta_sd               =   1.6474254296334E+00
(PID.TID 0000.0001) %MON dynstat_eta_del2             =   1.3950129530977E-02
(PID.TID 0000.0001) %MON dynstat_uvel_max             =   1.4299222312895E-01
(PID.TID 0000.0001) %MON dynstat_uvel_min             =  -3.8630966430190E-01
(PID.TID 0000.0001) %MON dynstat_uvel_mean            =   1.2799102847383E-02
(PID.TID 0000.0001) %MON dynstat_uvel_sd              =   3.8756376941417E-02
(PID.TID 0000.0001) %MON dynstat_uvel_del2            =   6.1911484215481E-04
(PID.TID 0000.0001) %MON dynstat_vvel_max             =   2.3109695592436E-02
(PID.TID 0000.0001) %MON dynstat_vvel_min             =  -2.3109695592403E-02
(PID.TID 0000.0001) %MON dynstat_vvel_mean            =   2.0933471054120E-15
(PID.TID 0000.0001) %MON dynstat_vvel_sd              =   1.5566362056384E-03
(PID.TID 0000.0001) %MON dynstat_vvel_del2            =   7.2958815930138E-05
(PID.TID 0000.0001) %MON dynstat_wvel_max             =   1.1208253524507E-06
(PID.TID 0000.0001) %MON dynstat_wvel_min             =  -1.0202403859075E-06
(PID.TID 0000.0001) %MON dynstat_wvel_mean            =   1.7371806933834E-23
(PID.TID 0000.0001) %MON dynstat_wvel_sd              =   3.1368571001525E-07
(PID.TID 0000.0001) %MON dynstat_wvel_del2            =   3.6880287028654E-08
(PID.TID 0000.0001) %MON dynstat_theta_max            =   2.6674022016219E+01
(PID.TID 0000.0001) %MON dynstat_theta_min            =  -9.3076538752175E-01
(PID.TID 0000.0001) %MON dynstat_theta_mean           =   2.2242943360406E+00
(PID.TID 0000.0001) %MON dynstat_theta_sd             =   3.9278806206270E+00
(PID.TID 0000.0001) %MON dynstat_theta_del2           =   4.1675511376499E-02
(PID.TID 0000.0001) %MON dynstat_salt_max             =   3.4700000000000E+01
(PID.TID 0000.0001) %MON dynstat_salt_min             =   3.4700000000000E+01
(PID.TID 0000.0001) %MON dynstat_salt_mean            =   3.4700000000000E+01
(PID.TID 0000.0001) %MON dynstat_salt_sd              =   5.6843418860808E-14
(PID.TID 0000.0001) %MON dynstat_salt_del2            =   0.0000000000000E+00
(PID.TID 0000.0001) %MON advcfl_uvel_max              =   1.0010599997495E-01
(PID.TID 0000.0001) %MON advcfl_vvel_max              =   5.9864576248707E-03
(PID.TID 0000.0001) %MON advcfl_wvel_max              =   2.8377374211071E-03
(PID.TID 0000.0001) %MON advcfl_W_hf_max              =   4.8419655225870E-03
(PID.TID 0000.0001) %MON pe_b_mean                    =   2.5600426402162E-03
(PID.TID 0000.0001) %MON ke_max                       =   7.4646967145896E-02
(PID.TID 0000.0001) %MON ke_mean                      =   8.3423830653779E-04
(PID.TID 0000.0001) %MON ke_vol                       =   2.1823819113454E+16
(PID.TID 0000.0001) %MON vort_r_min                   =  -1.7702531248662E-07
(PID.TID 0000.0001) %MON vort_r_max                   =   1.7702531248644E-07
(PID.TID 0000.0001) %MON vort_a_mean                  =  -2.2242616756203E-20
(PID.TID 0000.0001) %MON vort_a_sd                    =   8.3264756785689E-05
(PID.TID 0000.0001) %MON vort_p_mean                  =  -2.2381279265738E-20
(PID.TID 0000.0001) %MON vort_p_sd                    =   8.6550984238964E-05
(PID.TID 0000.0001) %MON surfExpan_theta_mean         =  -2.9868054487624E-06
(PID.TID 0000.0001) %MON surfExpan_salt_mean          =  -1.3767661006191E-22
(PID.TID 0000.0001) // =======================================================
(PID.TID 0000.0001) // End MONITOR dynamic field statistics
(PID.TID 0000.0001) // =======================================================
 cg2d: Sum(rhs),rhsMax =   2.99760216648792E-15  1.47799626925488E+00
(PID.TID 0000.0001)                    cg2d_init_res =    4.29212984384635E-03
(PID.TID 0000.0001)                       cg2d_iters =    27
(PID.TID 0000.0001)                         cg2d_res =    4.34511392642474E-18
(PID.TID 0000.0001) // =======================================================
(PID.TID 0000.0001) // Begin MONITOR dynamic field statistics
(PID.TID 0000.0001) // =======================================================
(PID.TID 0000.0001) %MON time_tsnumber                =                 36011
(PID.TID 0000.0001) %MON time_secondsf                =   3.1113504000000E+09
(PID.TID 0000.0001) %MON dynstat_eta_max              =   1.6142604449171E+00
(PID.TID 0000.0001) %MON dynstat_eta_min              =  -3.9189005451761E+00
(PID.TID 0000.0001) %MON dynstat_eta_mean             =  -2.5494254036517E-16
(PID.TID 0000.0001) %MON dynstat_eta_sd               =   1.6467118584127E+00
(PID.TID 0000.0001) %MON dynstat_eta_del2             =   1.3951263880634E-02
(PID.TID 0000.0001) %MON dynstat_uvel_max             =   1.4301406465558E-01
(PID.TID 0000.0001) %MON dynstat_uvel_min             =  -3.8630979489351E-01
(PID.TID 0000.0001) %MON dynstat_uvel_mean            =   1.2811828598343E-02
(PID.TID 0000.0001) %MON dynstat_uvel_sd              =   3.8760379370750E-02
(PID.TID 0000.0001) %MON dynstat_uvel_del2            =   6.1917795796729E-04
(PID.TID 0000.0001) %MON dynstat_vvel_max             =   2.3093945163836E-02
(PID.TID 0000.0001) %MON dynstat_vvel_min             =  -2.3093945163803E-02
(PID.TID 0000.0001) %MON dynstat_vvel_mean            =   2.5209000427717E-15
(PID.TID 0000.0001) %MON dynstat_vvel_sd              =   1.5545380040002E-03
(PID.TID 0000.0001) %MON dynstat_vvel_del2            =   7.2926824342346E-05
(PID.TID 0000.0001) %MON dynstat_wvel_max             =   1.0533795330564E-06
(PID.TID 0000.0001) %MON dynstat_wvel_min             =  -9.5772208721270E-07
(PID.TID 0000.0001) %MON dynstat_wvel_mean            =   4.0536748149740E-23
(PID.TID 0000.0001) %MON dynstat_wvel_sd              =   2.9473015348991E-07
(PID.TID 0000.0001) %MON dynstat_wvel_del2            =   3.6850567054991E-08
(PID.TID 0000.0001) %MON dynstat_theta_max            =   2.6675911371587E+01
(PID.TID 0000.0001) %MON dynstat_theta_min            =  -9.3076603609709E-01
(PID.TID 0000.0001) %MON dynstat_theta_mean           =   2.2243336061901E+00
(PID.TID 0000.0001) %MON dynstat_theta_sd             =   3.9280308107589E+00
(PID.TID 0000.0001) %MON dynstat_theta_del2           =   4.1669124945978E-02
(PID.TID 0000.0001) %MON dynstat_salt_max             =   3.4700000000000E+01
(PID.TID 0000.0001) %MON dynstat_salt_min             =   3.4700000000000E+01
(PID.TID 0000.0001) %MON dynstat_salt_mean            =   3.4700000000000E+01
(PID.TID 0000.0001) %MON dynstat_salt_sd              =   5.6843418860808E-14
(PID.TID 0000.0001) %MON dynstat_salt_del2            =   0.0000000000000E+00
(PID.TID 0000.0001) %MON advcfl_uvel_max              =   1.0010603381569E-01
(PID.TID 0000.0001) %MON advcfl_vvel_max              =   5.9823775506432E-03
(PID.TID 0000.0001) %MON advcfl_wvel_max              =   2.2976365819157E-03
(PID.TID 0000.0001) %MON advcfl_W_hf_max              =   4.5505995828037E-03
(PID.TID 0000.0001) %MON pe_b_mean                    =   2.5578253900855E-03
(PID.TID 0000.0001) %MON ke_max                       =   7.4646973949237E-02
(PID.TID 0000.0001) %MON ke_mean                      =   8.3455318005777E-04
(PID.TID 0000.0001) %MON ke_vol                       =   2.1823819113454E+16
(PID.TID 0000.0001) %MON vort_r_min                   =  -1.7703237896162E-07
(PID.TID 0000.0001) %MON vort_r_max                   =   1.7703237896144E-07
(PID.TID 0000.0001) %MON vort_a_mean                  =  -1.1073616874765E-20
(PID.TID 0000.0001) %MON vort_a_sd                    =   8.3264759269111E-05
(PID.TID 0000.0001) %MON vort_p_mean                  =  -1.1142650816333E-20
(PID.TID 0000.0001) %MON vort_p_sd                    =   8.6550987133258E-05
(PID.TID 0000.0001) %MON surfExpan_theta_mean         =  -2.4478797320478E-06
(PID.TID 0000.0001) %MON surfExpan_salt_mean          =  -2.7508910857475E-22
(PID.TID 0000.0001) // =======================================================
(PID.TID 0000.0001) // End MONITOR dynamic field statistics
(PID.TID 0000.0001) // =======================================================
 cg2d: Sum(rhs),rhsMax =   5.44009282066327E-15  1.47780668049567E+00
(PID.TID 0000.0001)                    cg2d_init_res =    3.16142997739886E-03
(PID.TID 0000.0001)                       cg2d_iters =    27
(PID.TID 0000.0001)                         cg2d_res =    1.26646378269141E-17
(PID.TID 0000.0001) // =======================================================
(PID.TID 0000.0001) // Begin MONITOR dynamic field statistics
(PID.TID 0000.0001) // =======================================================
(PID.TID 0000.0001) %MON time_tsnumber                =                 36012
(PID.TID 0000.0001) %MON time_secondsf                =   3.1114368000000E+09
(PID.TID 0000.0001) %MON dynstat_eta_max              =   1.6140285267960E+00
(PID.TID 0000.0001) %MON dynstat_eta_min              =  -3.9175617651146E+00
(PID.TID 0000.0001) %MON dynstat_eta_mean             =  -2.2065411618170E-16
(PID.TID 0000.0001) %MON dynstat_eta_sd               =   1.6461798112366E+00
(PID.TID 0000.0001) %MON dynstat_eta_del2             =   1.3951552569104E-02
(PID.TID 0000.0001) %MON dynstat_uvel_max             =   1.4303097612706E-01
(PID.TID 0000.0001) %MON dynstat_uvel_min             =  -3.8630982773343E-01
(PID.TID 0000.0001) %MON dynstat_uvel_mean            =   1.2821591838917E-02
(PID.TID 0000.0001) %MON dynstat_uvel_sd              =   3.8763392771244E-02
(PID.TID 0000.0001) %MON dynstat_uvel_del2            =   6.1922411294985E-04
(PID.TID 0000.0001) %MON dynstat_vvel_max             =   2.3075491650633E-02
(PID.TID 0000.0001) %MON dynstat_vvel_min             =  -2.3075491650602E-02
(PID.TID 0000.0001) %MON dynstat_vvel_mean            =   2.6651571134056E-15
(PID.TID 0000.0001) %MON dynstat_vvel_sd              =   1.5526543664870E-03
(PID.TID 0000.0001) %MON dynstat_vvel_del2            =   7.2910282997610E-05
(PID.TID 0000.0001) %MON dynstat_wvel_max             =   1.1258380538766E-06
(PID.TID 0000.0001) %MON dynstat_wvel_min             =  -8.8433488963514E-07
(PID.TID 0000.0001) %MON dynstat_wvel_mean            =  -1.7331168802595E-23
(PID.TID 0000.0001) %MON dynstat_wvel_sd              =   2.7665916959034E-07
(PID.TID 0000.0001) %MON dynstat_wvel_del2            =   3.6831317165705E-08
(PID.TID 0000.0001) %MON dynstat_theta_max            =   2.6677264704575E+01
(PID.TID 0000.0001) %MON dynstat_theta_min            =  -9.3076668597135E-01
(PID.TID 0000.0001) %MON dynstat_theta_mean           =   2.2243637082840E+00
(PID.TID 0000.0001) %MON dynstat_theta_sd             =   3.9281510173061E+00
(PID.TID 0000.0001) %MON dynstat_theta_del2           =   4.1664438481824E-02
(PID.TID 0000.0001) %MON dynstat_salt_max             =   3.4700000000000E+01
(PID.TID 0000.0001) %MON dynstat_salt_min             =   3.4700000000000E+01
(PID.TID 0000.0001) %MON dynstat_salt_mean            =   3.4700000000000E+01
(PID.TID 0000.0001) %MON dynstat_salt_sd              =   5.6843418860808E-14
(PID.TID 0000.0001) %MON dynstat_salt_del2            =   0.0000000000000E+00
(PID.TID 0000.0001) %MON advcfl_uvel_max              =   1.0010604232563E-01
(PID.TID 0000.0001) %MON advcfl_vvel_max              =   5.9775972551011E-03
(PID.TID 0000.0001) %MON advcfl_wvel_max              =   1.6212067975822E-03
(PID.TID 0000.0001) %MON advcfl_W_hf_max              =   4.8636203927467E-03
(PID.TID 0000.0001) %MON pe_b_mean                    =   2.5561728071879E-03
(PID.TID 0000.0001) %MON ke_max                       =   7.4646937933000E-02
(PID.TID 0000.0001) %MON ke_mean                      =   8.3479223179967E-04
(PID.TID 0000.0001) %MON ke_vol                       =   2.1823819113454E+16
(PID.TID 0000.0001) %MON vort_r_min                   =  -1.7703846497470E-07
(PID.TID 0000.0001) %MON vort_r_max                   =   1.7703846497452E-07
(PID.TID 0000.0001) %MON vort_a_mean                  =  -1.0135394356674E-20
(PID.TID 0000.0001) %MON vort_a_sd                    =   8.3264761186517E-05
(PID.TID 0000.0001) %MON vort_p_mean                  =  -1.0198579333155E-20
(PID.TID 0000.0001) %MON vort_p_sd                    =   8.6550989370458E-05
(PID.TID 0000.0001) %MON surfExpan_theta_mean         =  -1.8169820196988E-06
(PID.TID 0000.0001) %MON surfExpan_salt_mean          =   1.5142395479509E-21
(PID.TID 0000.0001) // =======================================================
(PID.TID 0000.0001) // End MONITOR dynamic field statistics
(PID.TID 0000.0001) // =======================================================
 cg2d: Sum(rhs),rhsMax =   4.66293670342566E-15  1.47763547641448E+00
(PID.TID 0000.0001)                    cg2d_init_res =    1.95212602453830E-03
(PID.TID 0000.0001)                       cg2d_iters =    27
(PID.TID 0000.0001)                         cg2d_res =    1.23487788643027E-17
(PID.TID 0000.0001) // =======================================================
(PID.TID 0000.0001) // Begin MONITOR dynamic field statistics
(PID.TID 0000.0001) // =======================================================
(PID.TID 0000.0001) %MON time_tsnumber                =                 36013
(PID.TID 0000.0001) %MON time_secondsf                =   3.1115232000000E+09
(PID.TID 0000.0001) %MON dynstat_eta_max              =   1.6138344023772E+00
(PID.TID 0000.0001) %MON dynstat_eta_min              =  -3.9168576581468E+00
(PID.TID 0000.0001) %MON dynstat_eta_mean             =  -2.2624520055848E-16
(PID.TID 0000.0001) %MON dynstat_eta_sd               =   1.6458492125556E+00
(PID.TID 0000.0001) %MON dynstat_eta_del2             =   1.3951008182760E-02
(PID.TID 0000.0001) %MON dynstat_uvel_max             =   1.4304240395644E-01
(PID.TID 0000.0001) %MON dynstat_uvel_min             =  -3.8630975735828E-01
(PID.TID 0000.0001) %MON dynstat_uvel_mean            =   1.2828043955948E-02
(PID.TID 0000.0001) %MON dynstat_uvel_sd              =   3.8765300169399E-02
(PID.TID 0000.0001) %MON dynstat_uvel_del2            =   6.1925181964860E-04
(PID.TID 0000.0001) %MON dynstat_vvel_max             =   2.3055994335233E-02
(PID.TID 0000.0001) %MON dynstat_vvel_min             =  -2.3055994335203E-02
(PID.TID 0000.0001) %MON dynstat_vvel_mean            =   2.3031216841813E-15
(PID.TID 0000.0001) %MON dynstat_vvel_sd              =   1.5513257943017E-03
(PID.TID 0000.0001) %MON dynstat_vvel_del2            =   7.2917218551809E-05
(PID.TID 0000.0001) %MON dynstat_wvel_max             =   1.2290876702241E-06
(PID.TID 0000.0001) %MON dynstat_wvel_min             =  -8.4388604251637E-07
(PID.TID 0000.0001) %MON dynstat_wvel_mean            =  -7.1563771452990E-24
(PID.TID 0000.0001) %MON dynstat_wvel_sd              =   2.6283349961377E-07
(PID.TID 0000.0001) %MON dynstat_wvel_del2            =   3.6833863236197E-08
(PID.TID 0000.0001) %MON dynstat_theta_max            =   2.6678022168204E+01
(PID.TID 0000.0001) %MON dynstat_theta_min            =  -9.3076733724338E-01
(PID.TID 0000.0001) %MON dynstat_theta_mean           =   2.2243831731847E+00
(PID.TID 0000.0001) %MON dynstat_theta_sd             =   3.9282366475018E+00
(PID.TID 0000.0001) %MON dynstat_theta_del2           =   4.1661647699015E-02
(PID.TID 0000.0001) %MON dynstat_salt_max             =   3.4700000000000E+01
(PID.TID 0000.0001) %MON dynstat_salt_min             =   3.4700000000000E+01
(PID.TID 0000.0001) %MON dynstat_salt_mean            =   3.4700000000000E+01
(PID.TID 0000.0001) %MON dynstat_salt_sd              =   5.6843418860808E-14
(PID.TID 0000.0001) %MON dynstat_salt_del2            =   0.0000000000000E+00
(PID.TID 0000.0001) %MON advcfl_uvel_max              =   1.0010602408903E-01
(PID.TID 0000.0001) %MON advcfl_vvel_max              =   5.9725465675240E-03
(PID.TID 0000.0001) %MON advcfl_wvel_max              =   1.7698862451227E-03
(PID.TID 0000.0001) %MON advcfl_W_hf_max              =   5.3096587353681E-03
(PID.TID 0000.0001) %MON pe_b_mean                    =   2.5551462091258E-03
(PID.TID 0000.0001) %MON ke_max                       =   7.4646859856866E-02
(PID.TID 0000.0001) %MON ke_mean                      =   8.3494688305856E-04
(PID.TID 0000.0001) %MON ke_vol                       =   2.1823819113454E+16
(PID.TID 0000.0001) %MON vort_r_min                   =  -1.7704343339416E-07
(PID.TID 0000.0001) %MON vort_r_max                   =   1.7704343339398E-07
(PID.TID 0000.0001) %MON vort_a_mean                  =   8.7616165434152E-21
(PID.TID 0000.0001) %MON vort_a_sd                    =   8.3264762472107E-05
(PID.TID 0000.0001) %MON vort_p_mean                  =   8.8162372632168E-21
(PID.TID 0000.0001) %MON vort_p_sd                    =   8.6550990864550E-05
(PID.TID 0000.0001) %MON surfExpan_theta_mean         =  -1.1223708423554E-06
(PID.TID 0000.0001) %MON surfExpan_salt_mean          =  -5.2015076564855E-22
(PID.TID 0000.0001) // =======================================================
(PID.TID 0000.0001) // End MONITOR dynamic field statistics
(PID.TID 0000.0001) // =======================================================
 cg2d: Sum(rhs),rhsMax =   9.10382880192628E-15  1.47751210716668E+00
(PID.TID 0000.0001)                    cg2d_init_res =    7.74736394703888E-04
(PID.TID 0000.0001)                       cg2d_iters =    27
(PID.TID 0000.0001)                         cg2d_res =    8.55760275050386E-18
(PID.TID 0000.0001) // =======================================================
(PID.TID 0000.0001) // Begin MONITOR dynamic field statistics
(PID.TID 0000.0001) // =======================================================
(PID.TID 0000.0001) %MON time_tsnumber                =                 36014
(PID.TID 0000.0001) %MON time_secondsf                =   3.1116096000000E+09
(PID.TID 0000.0001) %MON dynstat_eta_max              =   1.6137063164315E+00
(PID.TID 0000.0001) %MON dynstat_eta_min              =  -3.9167820142520E+00
(PID.TID 0000.0001) %MON dynstat_eta_mean             =  -2.9373359966045E-16
(PID.TID 0000.0001) %MON dynstat_eta_sd               =   1.6457319537357E+00
(PID.TID 0000.0001) %MON dynstat_eta_del2             =   1.3949884014732E-02
(PID.TID 0000.0001) %MON dynstat_uvel_max             =   1.4304794793526E-01
(PID.TID 0000.0001) %MON dynstat_uvel_min             =  -3.8630958700386E-01
(PID.TID 0000.0001) %MON dynstat_uvel_mean            =   1.2831010069885E-02
(PID.TID 0000.0001) %MON dynstat_uvel_sd              =   3.8766034733514E-02
(PID.TID 0000.0001) %MON dynstat_uvel_del2            =   6.1926085298474E-04
(PID.TID 0000.0001) %MON dynstat_vvel_max             =   2.3036854998972E-02
(PID.TID 0000.0001) %MON dynstat_vvel_min             =  -2.3036854998944E-02
(PID.TID 0000.0001) %MON dynstat_vvel_mean            =   1.7645242918708E-15
(PID.TID 0000.0001) %MON dynstat_vvel_sd              =   1.5507685506680E-03
(PID.TID 0000.0001) %MON dynstat_vvel_del2            =   7.2930700874791E-05
(PID.TID 0000.0001) %MON dynstat_wvel_max             =   1.3297855138950E-06
(PID.TID 0000.0001) %MON dynstat_wvel_min             =  -8.3933199284263E-07
(PID.TID 0000.0001) %MON dynstat_wvel_mean            =  -8.0512649874726E-24
(PID.TID 0000.0001) %MON dynstat_wvel_sd              =   2.5566101057396E-07
(PID.TID 0000.0001) %MON dynstat_wvel_del2            =   3.6863646963714E-08
(PID.TID 0000.0001) %MON dynstat_theta_max            =   2.6678169100796E+01
(PID.TID 0000.0001) %MON dynstat_theta_min            =  -9.3076798985949E-01
(PID.TID 0000.0001) %MON dynstat_theta_mean           =   2.2243910077139E+00
(PID.TID 0000.0001) %MON dynstat_theta_sd             =   3.9282847996960E+00
(PID.TID 0000.0001) %MON dynstat_theta_del2           =   4.1660735646707E-02
(PID.TID 0000.0001) %MON dynstat_salt_max             =   3.4700000000000E+01
(PID.TID 0000.0001) %MON dynstat_salt_min             =   3.4700000000000E+01
(PID.TID 0000.0001) %MON dynstat_salt_mean            =   3.4700000000000E+01
(PID.TID 0000.0001) %MON dynstat_salt_sd              =   5.6843418860808E-14
(PID.TID 0000.0001) %MON dynstat_salt_del2            =   0.0000000000000E+00
(PID.TID 0000.0001) %MON advcfl_uvel_max              =   1.0010597994440E-01
(PID.TID 0000.0001) %MON advcfl_vvel_max              =   5.9675886127542E-03
(PID.TID 0000.0001) %MON advcfl_wvel_max              =   1.9148911400088E-03
(PID.TID 0000.0001) %MON advcfl_W_hf_max              =   5.7446734200264E-03
(PID.TID 0000.0001) %MON pe_b_mean                    =   2.5547821384031E-03
(PID.TID 0000.0001) %MON ke_max                       =   7.4646743443892E-02
(PID.TID 0000.0001) %MON ke_mean                      =   8.3501255983621E-04
(PID.TID 0000.0001) %MON ke_vol                       =   2.1823819113454E+16
(PID.TID 0000.0001) %MON vort_r_min                   =  -1.7704722126266E-07
(PID.TID 0000.0001) %MON vort_r_max                   =   1.7704722126248E-07
(PID.TID 0000.0001) %MON vort_a_mean                  =   6.7273189815537E-20
(PID.TID 0000.0001) %MON vort_a_sd                    =   8.3264763091028E-05
(PID.TID 0000.0001) %MON vort_p_mean                  =   6.7692577040813E-20
(PID.TID 0000.0001) %MON vort_p_sd                    =   8.6550991573836E-05
(PID.TID 0000.0001) %MON surfExpan_theta_mean         =  -3.9538142123224E-07
(PID.TID 0000.0001) %MON surfExpan_salt_mean          =   2.7211044667328E-22
(PID.TID 0000.0001) // =======================================================
(PID.TID 0000.0001) // End MONITOR dynamic field statistics
(PID.TID 0000.0001) // =======================================================
 cg2d: Sum(rhs),rhsMax =   1.09912079437890E-14  1.47746537583740E+00
(PID.TID 0000.0001)                    cg2d_init_res =    7.12246375383209E-04
(PID.TID 0000.0001)                       cg2d_iters =    27
(PID.TID 0000.0001)                         cg2d_res =    3.20236428438406E-17
(PID.TID 0000.0001) // =======================================================
(PID.TID 0000.0001) // Begin MONITOR dynamic field statistics
(PID.TID 0000.0001) // =======================================================
(PID.TID 0000.0001) %MON time_tsnumber                =                 36015
(PID.TID 0000.0001) %MON time_secondsf                =   3.1116960000000E+09
(PID.TID 0000.0001) %MON dynstat_eta_max              =   1.6136717837867E+00
(PID.TID 0000.0001) %MON dynstat_eta_min              =  -3.9172760824255E+00
(PID.TID 0000.0001) %MON dynstat_eta_mean             =  -3.3001031843025E-16
(PID.TID 0000.0001) %MON dynstat_eta_sd               =   1.6458304806770E+00
(PID.TID 0000.0001) %MON dynstat_eta_del2             =   1.3948578775135E-02
(PID.TID 0000.0001) %MON dynstat_uvel_max             =   1.4304740763137E-01
(PID.TID 0000.0001) %MON dynstat_uvel_min             =  -3.8630932622068E-01
(PID.TID 0000.0001) %MON dynstat_uvel_mean            =   1.2830488336839E-02
(PID.TID 0000.0001) %MON dynstat_uvel_sd              =   3.8765583123841E-02
(PID.TID 0000.0001) %MON dynstat_uvel_del2            =   6.1925209220030E-04
(PID.TID 0000.0001) %MON dynstat_vvel_max             =   2.3019145905686E-02
(PID.TID 0000.0001) %MON dynstat_vvel_min             =  -2.3019145905658E-02
(PID.TID 0000.0001) %MON dynstat_vvel_mean            =   1.9130080651320E-15
(PID.TID 0000.0001) %MON dynstat_vvel_sd              =   1.5510445666904E-03
(PID.TID 0000.0001) %MON dynstat_vvel_del2            =   7.2945654131062E-05
(PID.TID 0000.0001) %MON dynstat_wvel_max             =   1.4227049208331E-06
(PID.TID 0000.0001) %MON dynstat_wvel_min             =  -8.2727782014362E-07
(PID.TID 0000.0001) %MON dynstat_wvel_mean            =  -6.4226120092807E-24
(PID.TID 0000.0001) %MON dynstat_wvel_sd              =   2.5590229459945E-07
(PID.TID 0000.0001) %MON dynstat_wvel_del2            =   3.6899170045447E-08
(PID.TID 0000.0001) %MON dynstat_theta_max            =   2.6677728756535E+01
(PID.TID 0000.0001) %MON dynstat_theta_min            =  -9.3076864363752E-01
(PID.TID 0000.0001) %MON dynstat_theta_mean           =   2.2243867409190E+00
(PID.TID 0000.0001) %MON dynstat_theta_sd             =   3.9282943379599E+00
(PID.TID 0000.0001) %MON dynstat_theta_del2           =   4.1661503505553E-02
(PID.TID 0000.0001) %MON dynstat_salt_max             =   3.4700000000000E+01
(PID.TID 0000.0001) %MON dynstat_salt_min             =   3.4700000000000E+01
(PID.TID 0000.0001) %MON dynstat_salt_mean            =   3.4700000000000E+01
(PID.TID 0000.0001) %MON dynstat_salt_sd              =   5.6843418860808E-14
(PID.TID 0000.0001) %MON dynstat_salt_del2            =   0.0000000000000E+00
(PID.TID 0000.0001) %MON advcfl_uvel_max              =   1.0010591236659E-01
(PID.TID 0000.0001) %MON advcfl_vvel_max              =   5.9630011556796E-03
(PID.TID 0000.0001) %MON advcfl_wvel_max              =   2.0486950859997E-03
(PID.TID 0000.0001) %MON advcfl_W_hf_max              =   6.1460852579992E-03
(PID.TID 0000.0001) %MON pe_b_mean                    =   2.5550880477636E-03
(PID.TID 0000.0001) %MON ke_max                       =   7.4646594316391E-02
(PID.TID 0000.0001) %MON ke_mean                      =   8.3498878203356E-04
(PID.TID 0000.0001) %MON ke_vol                       =   2.1823819113454E+16
(PID.TID 0000.0001) %MON vort_r_min                   =  -1.7704983297114E-07
(PID.TID 0000.0001) %MON vort_r_max                   =   1.7704983297096E-07
(PID.TID 0000.0001) %MON vort_a_mean                  =   6.0523597262521E-21
(PID.TID 0000.0001) %MON vort_a_sd                    =   8.3264763039866E-05
(PID.TID 0000.0001) %MON vort_p_mean                  =   6.0900906909786E-21
(PID.TID 0000.0001) %MON vort_p_sd                    =   8.6550991499949E-05
(PID.TID 0000.0001) %MON surfExpan_theta_mean         =   3.3073964019726E-07
(PID.TID 0000.0001) %MON surfExpan_salt_mean          =   2.4543920114713E-22
(PID.TID 0000.0001) // =======================================================
(PID.TID 0000.0001) // End MONITOR dynamic field statistics
(PID.TID 0000.0001) // =======================================================
 cg2d: Sum(rhs),rhsMax =   5.66213742558830E-15  1.47751648327173E+00
(PID.TID 0000.0001)                    cg2d_init_res =    1.78897567346546E-03
(PID.TID 0000.0001)                       cg2d_iters =    27
(PID.TID 0000.0001)                         cg2d_res =    2.60081384659703E-17
(PID.TID 0000.0001) // =======================================================
(PID.TID 0000.0001) // Begin MONITOR dynamic field statistics
(PID.TID 0000.0001) // =======================================================
(PID.TID 0000.0001) %MON time_tsnumber                =                 36016
(PID.TID 0000.0001) %MON time_secondsf                =   3.1117824000000E+09
(PID.TID 0000.0001) %MON dynstat_eta_max              =   1.6137506186555E+00
(PID.TID 0000.0001) %MON dynstat_eta_min              =  -3.9182467753976E+00
(PID.TID 0000.0001) %MON dynstat_eta_mean             =  -2.1412796526518E-16
(PID.TID 0000.0001) %MON dynstat_eta_sd               =   1.6461368903424E+00
(PID.TID 0000.0001) %MON dynstat_eta_del2             =   1.3947510775164E-02
(PID.TID 0000.0001) %MON dynstat_uvel_max             =   1.4304083089916E-01
(PID.TID 0000.0001) %MON dynstat_uvel_min             =  -3.8630898843927E-01
(PID.TID 0000.0001) %MON dynstat_uvel_mean            =   1.2826639618637E-02
(PID.TID 0000.0001) %MON dynstat_uvel_sd              =   3.8763986558819E-02
(PID.TID 0000.0001) %MON dynstat_uvel_del2            =   6.1922730723056E-04
(PID.TID 0000.0001) %MON dynstat_vvel_max             =   2.3003602495391E-02
(PID.TID 0000.0001) %MON dynstat_vvel_min             =  -2.3003602495363E-02
(PID.TID 0000.0001) %MON dynstat_vvel_mean            =   1.5492656421852E-15
(PID.TID 0000.0001) %MON dynstat_vvel_sd              =   1.5520619565904E-03
(PID.TID 0000.0001) %MON dynstat_vvel_del2            =   7.2964690944075E-05
(PID.TID 0000.0001) %MON dynstat_wvel_max             =   1.5045272218994E-06
(PID.TID 0000.0001) %MON dynstat_wvel_min             =  -8.0893749372772E-07
(PID.TID 0000.0001) %MON dynstat_wvel_mean            =   2.5796835492296E-24
(PID.TID 0000.0001) %MON dynstat_wvel_sd              =   2.6256248180390E-07
(PID.TID 0000.0001) %MON dynstat_wvel_del2            =   3.6917807879792E-08
(PID.TID 0000.0001) %MON dynstat_theta_max            =   2.6676753193829E+01
(PID.TID 0000.0001) %MON dynstat_theta_min            =  -9.3076929826459E-01
(PID.TID 0000.0001) %MON dynstat_theta_mean           =   2.2243704521064E+00
(PID.TID 0000.0001) %MON dynstat_theta_sd             =   3.9282659254814E+00
(PID.TID 0000.0001) %MON dynstat_theta_del2           =   4.1663647687447E-02
(PID.TID 0000.0001) %MON dynstat_salt_max             =   3.4700000000000E+01
(PID.TID 0000.0001) %MON dynstat_salt_min             =   3.4700000000000E+01
(PID.TID 0000.0001) %MON dynstat_salt_mean            =   3.4700000000000E+01
(PID.TID 0000.0001) %MON dynstat_salt_sd              =   5.6843418860808E-14
(PID.TID 0000.0001) %MON dynstat_salt_del2            =   0.0000000000000E+00
(PID.TID 0000.0001) %MON advcfl_uvel_max              =   1.0010582483591E-01
(PID.TID 0000.0001) %MON advcfl_vvel_max              =   5.9589747085677E-03
(PID.TID 0000.0001) %MON advcfl_wvel_max              =   2.1665191995352E-03
(PID.TID 0000.0001) %MON advcfl_W_hf_max              =   6.4995575986056E-03
(PID.TID 0000.0001) %MON pe_b_mean                    =   2.5560395145893E-03
(PID.TID 0000.0001) %MON ke_max                       =   7.4646419049234E-02
(PID.TID 0000.0001) %MON ke_mean                      =   8.3487907692399E-04
(PID.TID 0000.0001) %MON ke_vol                       =   2.1823819113454E+16
(PID.TID 0000.0001) %MON vort_r_min                   =  -1.7705133142310E-07
(PID.TID 0000.0001) %MON vort_r_max                   =   1.7705133142292E-07
(PID.TID 0000.0001) %MON vort_a_mean                  =   1.9312946491617E-20
(PID.TID 0000.0001) %MON vort_a_sd                    =   8.3264762345614E-05
(PID.TID 0000.0001) %MON vort_p_mean                  =   1.9433345168463E-20
(PID.TID 0000.0001) %MON vort_p_sd                    =   8.6550990683596E-05
(PID.TID 0000.0001) %MON surfExpan_theta_mean         =   1.0224476951356E-06
(PID.TID 0000.0001) %MON surfExpan_salt_mean          =   3.5896484167469E-22
(PID.TID 0000.0001) // =======================================================
(PID.TID 0000.0001) // End MONITOR dynamic field statistics
(PID.TID 0000.0001) // =======================================================
 cg2d: Sum(rhs),rhsMax =   8.43769498715119E-15  1.47767481164710E+00
(PID.TID 0000.0001)                    cg2d_init_res =    2.82277784468742E-03
(PID.TID 0000.0001)                       cg2d_iters =    27
(PID.TID 0000.0001)                         cg2d_res =    1.49715284707652E-17
(PID.TID 0000.0001) // =======================================================
(PID.TID 0000.0001) // Begin MONITOR dynamic field statistics
(PID.TID 0000.0001) // =======================================================
(PID.TID 0000.0001) %MON time_tsnumber                =                 36017
(PID.TID 0000.0001) %MON time_secondsf                =   3.1118688000000E+09
(PID.TID 0000.0001) %MON dynstat_eta_max              =   1.6139504962824E+00
(PID.TID 0000.0001) %MON dynstat_eta_min              =  -3.9195857258578E+00
(PID.TID 0000.0001) %MON dynstat_eta_mean             =  -1.9526302623001E-16
(PID.TID 0000.0001) %MON dynstat_eta_sd               =   1.6466328060616E+00
(PID.TID 0000.0001) %MON dynstat_eta_del2             =   1.3947012677218E-02
(PID.TID 0000.0001) %MON dynstat_uvel_max             =   1.4302854747790E-01
(PID.TID 0000.0001) %MON dynstat_uvel_min             =  -3.8630858892714E-01
(PID.TID 0000.0001) %MON dynstat_uvel_mean            =   1.2819769725952E-02
(PID.TID 0000.0001) %MON dynstat_uvel_sd              =   3.8761339023655E-02
(PID.TID 0000.0001) %MON dynstat_uvel_del2            =   6.1918892580055E-04
(PID.TID 0000.0001) %MON dynstat_vvel_max             =   2.2990677625972E-02
(PID.TID 0000.0001) %MON dynstat_vvel_min             =  -2.2990677625945E-02
(PID.TID 0000.0001) %MON dynstat_vvel_mean            =   1.4699071513767E-15
(PID.TID 0000.0001) %MON dynstat_vvel_sd              =   1.5536020634446E-03
(PID.TID 0000.0001) %MON dynstat_vvel_del2            =   7.2980598450577E-05
(PID.TID 0000.0001) %MON dynstat_wvel_max             =   1.5734837475356E-06
(PID.TID 0000.0001) %MON dynstat_wvel_min             =  -8.1248453445426E-07
(PID.TID 0000.0001) %MON dynstat_wvel_mean            =   1.0432784587229E-23
(PID.TID 0000.0001) %MON dynstat_wvel_sd              =   2.7343666538428E-07
(PID.TID 0000.0001) %MON dynstat_wvel_del2            =   3.6916932806951E-08
(PID.TID 0000.0001) %MON dynstat_theta_max            =   2.6675314136998E+01
(PID.TID 0000.0001) %MON dynstat_theta_min            =  -9.3076995342356E-01
(PID.TID 0000.0001) %MON dynstat_theta_mean           =   2.2243427714967E+00
(PID.TID 0000.0001) %MON dynstat_theta_sd             =   3.9282019329805E+00
(PID.TID 0000.0001) %MON dynstat_theta_del2           =   4.1666868754234E-02
(PID.TID 0000.0001) %MON dynstat_salt_max             =   3.4700000000000E+01
(PID.TID 0000.0001) %MON dynstat_salt_min             =   3.4700000000000E+01
(PID.TID 0000.0001) %MON dynstat_salt_mean            =   3.4700000000000E+01
(PID.TID 0000.0001) %MON dynstat_salt_sd              =   5.6843418860808E-14
(PID.TID 0000.0001) %MON dynstat_salt_del2            =   0.0000000000000E+00
(PID.TID 0000.0001) %MON advcfl_uvel_max              =   1.0010572130870E-01
(PID.TID 0000.0001) %MON advcfl_vvel_max              =   5.9556265821169E-03
(PID.TID 0000.0001) %MON advcfl_wvel_max              =   2.2658165964512E-03
(PID.TID 0000.0001) %MON advcfl_W_hf_max              =   6.7974497893537E-03
(PID.TID 0000.0001) %MON pe_b_mean                    =   2.5575798131117E-03
(PID.TID 0000.0001) %MON ke_max                       =   7.4646224466250E-02
(PID.TID 0000.0001) %MON ke_mean                      =   8.3469071664767E-04
(PID.TID 0000.0001) %MON ke_vol                       =   2.1823819113454E+16
(PID.TID 0000.0001) %MON vort_r_min                   =  -1.7705182735170E-07
(PID.TID 0000.0001) %MON vort_r_max                   =   1.7705182735152E-07
(PID.TID 0000.0001) %MON vort_a_mean                  =  -2.0448184419447E-20
(PID.TID 0000.0001) %MON vort_a_sd                    =   8.3264761063261E-05
(PID.TID 0000.0001) %MON vort_p_mean                  =  -2.0575660273485E-20
(PID.TID 0000.0001) %MON vort_p_sd                    =   8.6550989198237E-05
(PID.TID 0000.0001) %MON surfExpan_theta_mean         =   1.6477814938846E-06
(PID.TID 0000.0001) %MON surfExpan_salt_mean          =   5.2950979541272E-23
(PID.TID 0000.0001) // =======================================================
(PID.TID 0000.0001) // End MONITOR dynamic field statistics
(PID.TID 0000.0001) // =======================================================
 cg2d: Sum(rhs),rhsMax =   7.88258347483861E-15  1.47793645911362E+00
(PID.TID 0000.0001)                    cg2d_init_res =    3.71586217824262E-03
(PID.TID 0000.0001)                       cg2d_iters =    27
(PID.TID 0000.0001)                         cg2d_res =    8.79806636418909E-18
(PID.TID 0000.0001) // =======================================================
(PID.TID 0000.0001) // Begin MONITOR dynamic field statistics
(PID.TID 0000.0001) // =======================================================
(PID.TID 0000.0001) %MON time_tsnumber                =                 36018
(PID.TID 0000.0001) %MON time_secondsf                =   3.1119552000000E+09
(PID.TID 0000.0001) %MON dynstat_eta_max              =   1.6142653134262E+00
(PID.TID 0000.0001) %MON dynstat_eta_min              =  -3.9211850574246E+00
(PID.TID 0000.0001) %MON dynstat_eta_mean             =  -3.2332624011515E-16
(PID.TID 0000.0001) %MON dynstat_eta_sd               =   1.6472901459073E+00
(PID.TID 0000.0001) %MON dynstat_eta_del2             =   1.3947261944233E-02
(PID.TID 0000.0001) %MON dynstat_uvel_max             =   1.4301117610882E-01
(PID.TID 0000.0001) %MON dynstat_uvel_min             =  -3.8630814336508E-01
(PID.TID 0000.0001) %MON dynstat_uvel_mean            =   1.2810306511315E-02
(PID.TID 0000.0001) %MON dynstat_uvel_sd              =   3.8757782347010E-02
(PID.TID 0000.0001) %MON dynstat_uvel_del2            =   6.1913980943969E-04
(PID.TID 0000.0001) %MON dynstat_vvel_max             =   2.2980620833674E-02
(PID.TID 0000.0001) %MON dynstat_vvel_min             =  -2.2980620833646E-02
(PID.TID 0000.0001) %MON dynstat_vvel_mean            =   1.0606924240621E-15
(PID.TID 0000.0001) %MON dynstat_vvel_sd              =   1.5553659737200E-03
(PID.TID 0000.0001) %MON dynstat_vvel_del2            =   7.2995044703984E-05
(PID.TID 0000.0001) %MON dynstat_wvel_max             =   1.6288507114363E-06
(PID.TID 0000.0001) %MON dynstat_wvel_min             =  -8.1371265675062E-07
(PID.TID 0000.0001) %MON dynstat_wvel_mean            =  -2.3195012092567E-23
(PID.TID 0000.0001) %MON dynstat_wvel_sd              =   2.8589055140431E-07
(PID.TID 0000.0001) %MON dynstat_wvel_del2            =   3.6912423847215E-08
(PID.TID 0000.0001) %MON dynstat_theta_max            =   2.6673495138212E+01
(PID.TID 0000.0001) %MON dynstat_theta_min            =  -9.3077060876311E-01
(PID.TID 0000.0001) %MON dynstat_theta_mean           =   2.2243048519588E+00
(PID.TID 0000.0001) %MON dynstat_theta_sd             =   3.9281062552849E+00
(PID.TID 0000.0001) %MON dynstat_theta_del2           =   4.1670880528457E-02
(PID.TID 0000.0001) %MON dynstat_salt_max             =   3.4700000000000E+01
(PID.TID 0000.0001) %MON dynstat_salt_min             =   3.4700000000000E+01
(PID.TID 0000.0001) %MON dynstat_salt_mean            =   3.4700000000000E+01
(PID.TID 0000.0001) %MON dynstat_salt_sd              =   5.6843418860808E-14
(PID.TID 0000.0001) %MON dynstat_salt_del2            =   0.0000000000000E+00
(PID.TID 0000.0001) %MON advcfl_uvel_max              =   1.0010560584839E-01
(PID.TID 0000.0001) %MON advcfl_vvel_max              =   5.9530214175142E-03
(PID.TID 0000.0001) %MON advcfl_wvel_max              =   2.3455450244683E-03
(PID.TID 0000.0001) %MON advcfl_W_hf_max              =   7.0366350734048E-03
(PID.TID 0000.0001) %MON pe_b_mean                    =   2.5596222049346E-03
(PID.TID 0000.0001) %MON ke_max                       =   7.4646017217816E-02
(PID.TID 0000.0001) %MON ke_mean                      =   8.3443429033862E-04
(PID.TID 0000.0001) %MON ke_vol                       =   2.1823819113454E+16
(PID.TID 0000.0001) %MON vort_r_min                   =  -1.7705146850230E-07
(PID.TID 0000.0001) %MON vort_r_max                   =   1.7705146850212E-07
(PID.TID 0000.0001) %MON vort_a_mean                  =  -3.1803922216897E-20
(PID.TID 0000.0001) %MON vort_a_sd                    =   8.3264759272203E-05
(PID.TID 0000.0001) %MON vort_p_mean                  =  -3.2002190780169E-20
(PID.TID 0000.0001) %MON vort_p_sd                    =   8.6550987142873E-05
(PID.TID 0000.0001) %MON surfExpan_theta_mean         =   2.1782810867543E-06
(PID.TID 0000.0001) %MON surfExpan_salt_mean          =  -2.9896072935529E-22
(PID.TID 0000.0001) // =======================================================
(PID.TID 0000.0001) // End MONITOR dynamic field statistics
(PID.TID 0000.0001) // =======================================================
 cg2d: Sum(rhs),rhsMax =   2.66453525910038E-15  1.47828517972249E+00
(PID.TID 0000.0001)                    cg2d_init_res =    4.42243194575244E-03
(PID.TID 0000.0001)                       cg2d_iters =    27
(PID.TID 0000.0001)                         cg2d_res =    9.53933559228925E-18
(PID.TID 0000.0001) // =======================================================
(PID.TID 0000.0001) // Begin MONITOR dynamic field statistics
(PID.TID 0000.0001) // =======================================================
(PID.TID 0000.0001) %MON time_tsnumber                =                 36019
(PID.TID 0000.0001) %MON time_secondsf                =   3.1120416000000E+09
(PID.TID 0000.0001) %MON dynstat_eta_max              =   1.6146761365794E+00
(PID.TID 0000.0001) %MON dynstat_eta_min              =  -3.9229473681276E+00
(PID.TID 0000.0001) %MON dynstat_eta_mean             =  -3.2540770050497E-16
(PID.TID 0000.0001) %MON dynstat_eta_sd               =   1.6480727371734E+00
(PID.TID 0000.0001) %MON dynstat_eta_del2             =   1.3948260216081E-02
(PID.TID 0000.0001) %MON dynstat_uvel_max             =   1.4298960044952E-01
(PID.TID 0000.0001) %MON dynstat_uvel_min             =  -3.8630766707796E-01
(PID.TID 0000.0001) %MON dynstat_uvel_mean            =   1.2798773802196E-02
(PID.TID 0000.0001) %MON dynstat_uvel_sd              =   3.8753498274011E-02
(PID.TID 0000.0001) %MON dynstat_uvel_del2            =   6.1908305592927E-04
(PID.TID 0000.0001) %MON dynstat_vvel_max             =   2.2973558679598E-02
(PID.TID 0000.0001) %MON dynstat_vvel_min             =  -2.2973558679570E-02
(PID.TID 0000.0001) %MON dynstat_vvel_mean            =   9.0878813103470E-16
(PID.TID 0000.0001) %MON dynstat_vvel_sd              =   1.5570317277649E-03
(PID.TID 0000.0001) %MON dynstat_vvel_del2            =   7.3007074075895E-05
(PID.TID 0000.0001) %MON dynstat_wvel_max             =   1.6704552449129E-06
(PID.TID 0000.0001) %MON dynstat_wvel_min             =  -8.2032614716731E-07
(PID.TID 0000.0001) %MON dynstat_wvel_mean            =  -2.3817050293827E-23
(PID.TID 0000.0001) %MON dynstat_wvel_sd              =   2.9746459484506E-07
(PID.TID 0000.0001) %MON dynstat_wvel_del2            =   3.6912576808616E-08
(PID.TID 0000.0001) %MON dynstat_theta_max            =   2.6671385790021E+01
(PID.TID 0000.0001) %MON dynstat_theta_min            =  -9.3077126400171E-01
(PID.TID 0000.0001) %MON dynstat_theta_mean           =   2.2242583096944E+00
(PID.TID 0000.0001) %MON dynstat_theta_sd             =   3.9279841200666E+00
(PID.TID 0000.0001) %MON dynstat_theta_del2           =   4.1675439174767E-02
(PID.TID 0000.0001) %MON dynstat_salt_max             =   3.4700000000000E+01
(PID.TID 0000.0001) %MON dynstat_salt_min             =   3.4700000000000E+01
(PID.TID 0000.0001) %MON dynstat_salt_mean            =   3.4700000000000E+01
(PID.TID 0000.0001) %MON dynstat_salt_sd              =   5.6843418860808E-14
(PID.TID 0000.0001) %MON dynstat_salt_del2            =   0.0000000000000E+00
(PID.TID 0000.0001) %MON advcfl_uvel_max              =   1.0010548242616E-01
(PID.TID 0000.0001) %MON advcfl_vvel_max              =   5.9511919998161E-03
(PID.TID 0000.0001) %MON advcfl_wvel_max              =   2.4054555526745E-03
(PID.TID 0000.0001) %MON advcfl_W_hf_max              =   7.2163666580236E-03
(PID.TID 0000.0001) %MON pe_b_mean                    =   2.5620548229048E-03
(PID.TID 0000.0001) %MON ke_max                       =   7.4645803610917E-02
(PID.TID 0000.0001) %MON ke_mean                      =   8.3412313237524E-04
(PID.TID 0000.0001) %MON ke_vol                       =   2.1823819113454E+16
(PID.TID 0000.0001) %MON vort_r_min                   =  -1.7705042966687E-07
(PID.TID 0000.0001) %MON vort_r_max                   =   1.7705042966669E-07
(PID.TID 0000.0001) %MON vort_a_mean                  =  -4.3876183069771E-21
(PID.TID 0000.0001) %MON vort_a_sd                    =   8.3264757071707E-05
(PID.TID 0000.0001) %MON vort_p_mean                  =  -4.4149711212613E-21
(PID.TID 0000.0001) %MON vort_p_sd                    =   8.6550984634923E-05
(PID.TID 0000.0001) %MON surfExpan_theta_mean         =   2.5907126813502E-06
(PID.TID 0000.0001) %MON surfExpan_salt_mean          =  -4.2799615129919E-23
(PID.TID 0000.0001) // =======================================================
(PID.TID 0000.0001) // End MONITOR dynamic field statistics
(PID.TID 0000.0001) // =======================================================
 cg2d: Sum(rhs),rhsMax =   9.65894031423886E-15  1.47869532361812E+00
(PID.TID 0000.0001)                    cg2d_init_res =    4.90881046714147E-03
(PID.TID 0000.0001)                       cg2d_iters =    27
(PID.TID 0000.0001)                         cg2d_res =    6.29800495683743E-18
(PID.TID 0000.0001) // =======================================================
(PID.TID 0000.0001) // Begin MONITOR dynamic field statistics
(PID.TID 0000.0001) // =======================================================
(PID.TID 0000.0001) %MON time_tsnumber                =                 36020
(PID.TID 0000.0001) %MON time_secondsf                =   3.1121280000000E+09
(PID.TID 0000.0001) %MON dynstat_eta_max              =   1.6151541905832E+00
(PID.TID 0000.0001) %MON dynstat_eta_min              =  -3.9247893916006E+00
(PID.TID 0000.0001) %MON dynstat_eta_mean             =  -1.6414905637467E-16
(PID.TID 0000.0001) %MON dynstat_eta_sd               =   1.6489385964954E+00
(PID.TID 0000.0001) %MON dynstat_eta_del2             =   1.3949855546888E-02
(PID.TID 0000.0001) %MON dynstat_uvel_max             =   1.4296491657701E-01
(PID.TID 0000.0001) %MON dynstat_uvel_min             =  -3.8630717479450E-01
(PID.TID 0000.0001) %MON dynstat_uvel_mean            =   1.2785763696181E-02
(PID.TID 0000.0001) %MON dynstat_uvel_sd              =   3.8748698074802E-02
(PID.TID 0000.0001) %MON dynstat_uvel_del2            =   6.1902183670063E-04
(PID.TID 0000.0001) %MON dynstat_vvel_max             =   2.2969557217453E-02
(PID.TID 0000.0001) %MON dynstat_vvel_min             =  -2.2969557217426E-02
(PID.TID 0000.0001) %MON dynstat_vvel_mean            =   2.0072390225002E-16
(PID.TID 0000.0001) %MON dynstat_vvel_sd              =   1.5583122450820E-03
(PID.TID 0000.0001) %MON dynstat_vvel_del2            =   7.3013888133289E-05
(PID.TID 0000.0001) %MON dynstat_wvel_max             =   1.6982985254049E-06
(PID.TID 0000.0001) %MON dynstat_wvel_min             =  -8.2755999826289E-07
(PID.TID 0000.0001) %MON dynstat_wvel_mean            =  -2.5973864932614E-23
(PID.TID 0000.0001) %MON dynstat_wvel_sd              =   3.0621338404084E-07
(PID.TID 0000.0001) %MON dynstat_wvel_del2            =   3.6912672809495E-08
(PID.TID 0000.0001) %MON dynstat_theta_max            =   2.6669077978176E+01
(PID.TID 0000.0001) %MON dynstat_theta_min            =  -9.3077191887990E-01
(PID.TID 0000.0001) %MON dynstat_theta_mean           =   2.2242051370043E+00
(PID.TID 0000.0001) %MON dynstat_theta_sd             =   3.9278418130363E+00
(PID.TID 0000.0001) %MON dynstat_theta_del2           =   4.1680335492335E-02
(PID.TID 0000.0001) %MON dynstat_salt_max             =   3.4700000000000E+01
(PID.TID 0000.0001) %MON dynstat_salt_min             =   3.4700000000000E+01
(PID.TID 0000.0001) %MON dynstat_salt_mean            =   3.4700000000000E+01
(PID.TID 0000.0001) %MON dynstat_salt_sd              =   5.6843418860808E-14
(PID.TID 0000.0001) %MON dynstat_salt_del2            =   0.0000000000000E+00
(PID.TID 0000.0001) %MON advcfl_uvel_max              =   1.0010535485874E-01
(PID.TID 0000.0001) %MON advcfl_vvel_max              =   5.9501554399242E-03
(PID.TID 0000.0001) %MON advcfl_wvel_max              =   2.4455498765830E-03
(PID.TID 0000.0001) %MON advcfl_W_hf_max              =   7.3366496297491E-03
(PID.TID 0000.0001) %MON pe_b_mean                    =   2.5647476188530E-03
(PID.TID 0000.0001) %MON ke_max                       =   7.4645589610792E-02
(PID.TID 0000.0001) %MON ke_mean                      =   8.3377263624819E-04
(PID.TID 0000.0001) %MON ke_vol                       =   2.1823819113454E+16
(PID.TID 0000.0001) %MON vort_r_min                   =  -1.7704890386724E-07
(PID.TID 0000.0001) %MON vort_r_max                   =   1.7704890386706E-07
(PID.TID 0000.0001) %MON vort_a_mean                  =   9.3846537303562E-21
(PID.TID 0000.0001) %MON vort_a_sd                    =   8.3264754575681E-05
(PID.TID 0000.0001) %MON vort_p_mean                  =   9.4431585210305E-21
(PID.TID 0000.0001) %MON vort_p_sd                    =   8.6550981803766E-05
(PID.TID 0000.0001) %MON surfExpan_theta_mean         =   2.8684097081497E-06
(PID.TID 0000.0001) %MON surfExpan_salt_mean          =   4.6862869730861E-24
(PID.TID 0000.0001) // =======================================================
(PID.TID 0000.0001) // End MONITOR dynamic field statistics
(PID.TID 0000.0001) // =======================================================
(PID.TID 0000.0001) %CHECKPOINT     36020 ckptA
(PID.TID 0000.0001)   Seconds in section "ALL                    [THE_MODEL_MAIN]":
(PID.TID 0000.0001)           User time:  1.60000001
(PID.TID 0000.0001)         System time:  0.100000001
(PID.TID 0000.0001)     Wall clock time:  2.00807595
(PID.TID 0000.0001)          No. starts: 1
(PID.TID 0000.0001)           No. stops: 1
(PID.TID 0000.0001)   Seconds in section "INITIALISE_FIXED       [THE_MODEL_MAIN]":
(PID.TID 0000.0001)           User time:  0.0299999993
(PID.TID 0000.0001)         System time:  0.0199999996
(PID.TID 0000.0001)     Wall clock time:  0.193881989
(PID.TID 0000.0001)          No. starts: 1
(PID.TID 0000.0001)           No. stops: 1
(PID.TID 0000.0001)   Seconds in section "THE_MAIN_LOOP          [THE_MODEL_MAIN]":
(PID.TID 0000.0001)           User time:  1.53000005
(PID.TID 0000.0001)         System time:  0.0399999991
(PID.TID 0000.0001)     Wall clock time:  1.66650498
(PID.TID 0000.0001)          No. starts: 1
(PID.TID 0000.0001)           No. stops: 1
(PID.TID 0000.0001)   Seconds in section "INITIALISE_VARIA    [THE_MAIN_LOOP]":
(PID.TID 0000.0001)           User time:  0.0300000012
(PID.TID 0000.0001)         System time:  0.0199999996
(PID.TID 0000.0001)     Wall clock time:  0.0475420952
(PID.TID 0000.0001)          No. starts: 1
(PID.TID 0000.0001)           No. stops: 1
(PID.TID 0000.0001)   Seconds in section "WRITE_STATE         [THE_MAIN_LOOP]":
(PID.TID 0000.0001)           User time:  0.00999999791
(PID.TID 0000.0001)         System time:  0.
(PID.TID 0000.0001)     Wall clock time:  0.0621670485
(PID.TID 0000.0001)          No. starts: 1
(PID.TID 0000.0001)           No. stops: 1
(PID.TID 0000.0001)   Seconds in section "MONITOR             [THE_MAIN_LOOP]":
(PID.TID 0000.0001)           User time:  0.
(PID.TID 0000.0001)         System time:  0.
(PID.TID 0000.0001)     Wall clock time:  0.00355899334
(PID.TID 0000.0001)          No. starts: 1
(PID.TID 0000.0001)           No. stops: 1
(PID.TID 0000.0001)   Seconds in section "MAIN LOOP           [THE_MAIN_LOOP]":
(PID.TID 0000.0001)           User time:  1.49000005
(PID.TID 0000.0001)         System time:  0.0199999996
(PID.TID 0000.0001)     Wall clock time:  1.5531249
(PID.TID 0000.0001)          No. starts: 1
(PID.TID 0000.0001)           No. stops: 1
(PID.TID 0000.0001)   Seconds in section "FORWARD_STEP        [THE_MAIN_LOOP]":
(PID.TID 0000.0001)           User time:  1.49000005
(PID.TID 0000.0001)         System time:  0.0199999996
(PID.TID 0000.0001)     Wall clock time:  1.55268681
(PID.TID 0000.0001)          No. starts: 20
(PID.TID 0000.0001)           No. stops: 20
(PID.TID 0000.0001)   Seconds in section "UPDATE_ETAH        [FORWARD_STEP]":
(PID.TID 0000.0001)           User time:  0.
(PID.TID 0000.0001)         System time:  0.
(PID.TID 0000.0001)     Wall clock time:  0.000702023506
(PID.TID 0000.0001)          No. starts: 20
(PID.TID 0000.0001)           No. stops: 20
(PID.TID 0000.0001)   Seconds in section "EXTERNAL_FIELDS_LOAD[FORWARD_STEP]":
(PID.TID 0000.0001)           User time:  0.
(PID.TID 0000.0001)         System time:  0.
(PID.TID 0000.0001)     Wall clock time:  0.000423073769
(PID.TID 0000.0001)          No. starts: 20
(PID.TID 0000.0001)           No. stops: 20
(PID.TID 0000.0001)   Seconds in section "THERMODYNAMICS      [FORWARD_STEP]":
(PID.TID 0000.0001)           User time:  0.760000102
(PID.TID 0000.0001)         System time:  0.
(PID.TID 0000.0001)     Wall clock time:  0.780136108
(PID.TID 0000.0001)          No. starts: 20
(PID.TID 0000.0001)           No. stops: 20
(PID.TID 0000.0001)   Seconds in section "BLOCKING_EXCHANGES  [FORWARD_STEP]":
(PID.TID 0000.0001)           User time:  0.0899999812
(PID.TID 0000.0001)         System time:  0.
(PID.TID 0000.0001)     Wall clock time:  0.0775460005
(PID.TID 0000.0001)          No. starts: 40
(PID.TID 0000.0001)           No. stops: 40
(PID.TID 0000.0001)   Seconds in section "DYNAMICS            [FORWARD_STEP]":
(PID.TID 0000.0001)           User time:  0.409999833
(PID.TID 0000.0001)         System time:  0.
(PID.TID 0000.0001)     Wall clock time:  0.412968159
(PID.TID 0000.0001)          No. starts: 20
(PID.TID 0000.0001)           No. stops: 20
(PID.TID 0000.0001)   Seconds in section "SOLVE_FOR_PRESSURE  [FORWARD_STEP]":
(PID.TID 0000.0001)           User time:  0.0700000823
(PID.TID 0000.0001)         System time:  0.
(PID.TID 0000.0001)     Wall clock time:  0.0699142218
(PID.TID 0000.0001)          No. starts: 20
(PID.TID 0000.0001)           No. stops: 20
(PID.TID 0000.0001)   Seconds in section "THE_CORRECTION_STEP [FORWARD_STEP]":
(PID.TID 0000.0001)           User time:  0.0499999672
(PID.TID 0000.0001)         System time:  0.
(PID.TID 0000.0001)     Wall clock time:  0.0495631695
(PID.TID 0000.0001)          No. starts: 20
(PID.TID 0000.0001)           No. stops: 20
(PID.TID 0000.0001)   Seconds in section "MONITOR             [FORWARD_STEP]":
(PID.TID 0000.0001)           User time:  0.0699999928
(PID.TID 0000.0001)         System time:  0.
(PID.TID 0000.0001)     Wall clock time:  0.0731518269
(PID.TID 0000.0001)          No. starts: 20
(PID.TID 0000.0001)           No. stops: 20
(PID.TID 0000.0001)   Seconds in section "DO_THE_MODEL_IO     [FORWARD_STEP]":
(PID.TID 0000.0001)           User time:  0.0200001001
(PID.TID 0000.0001)         System time:  0.00999999791
(PID.TID 0000.0001)     Wall clock time:  0.0826963186
(PID.TID 0000.0001)          No. starts: 20
(PID.TID 0000.0001)           No. stops: 20
(PID.TID 0000.0001)   Seconds in section "WRITE_CHECKPOINT    [FORWARD_STEP]":
(PID.TID 0000.0001)           User time:  0.
(PID.TID 0000.0001)         System time:  0.
(PID.TID 0000.0001)     Wall clock time:  0.000427126884
(PID.TID 0000.0001)          No. starts: 20
(PID.TID 0000.0001)           No. stops: 20
(PID.TID 0000.0001)   Seconds in section "WRITE_CHECKPOINT       [THE_MODEL_MAIN]":
(PID.TID 0000.0001)           User time:  0.0399999619
(PID.TID 0000.0001)         System time:  0.0400000028
(PID.TID 0000.0001)     Wall clock time:  0.147587061
(PID.TID 0000.0001)          No. starts: 1
(PID.TID 0000.0001)           No. stops: 1
(PID.TID 0000.0001) // ======================================================
(PID.TID 0000.0001) // Tile <-> Tile communication statistics
(PID.TID 0000.0001) // ======================================================
(PID.TID 0000.0001) // o Tile number: 000001
(PID.TID 0000.0001) //         No. X exchanges =              0
(PID.TID 0000.0001) //            Max. X spins =              0
(PID.TID 0000.0001) //            Min. X spins =     1000000000
(PID.TID 0000.0001) //          Total. X spins =              0
(PID.TID 0000.0001) //            Avg. X spins =       0.00E+00
(PID.TID 0000.0001) //         No. Y exchanges =              0
(PID.TID 0000.0001) //            Max. Y spins =              0
(PID.TID 0000.0001) //            Min. Y spins =     1000000000
(PID.TID 0000.0001) //          Total. Y spins =              0
(PID.TID 0000.0001) //            Avg. Y spins =       0.00E+00
(PID.TID 0000.0001) // o Tile number: 000002
(PID.TID 0000.0001) //         No. X exchanges =              0
(PID.TID 0000.0001) //            Max. X spins =              0
(PID.TID 0000.0001) //            Min. X spins =     1000000000
(PID.TID 0000.0001) //          Total. X spins =              0
(PID.TID 0000.0001) //            Avg. X spins =       0.00E+00
(PID.TID 0000.0001) //         No. Y exchanges =              0
(PID.TID 0000.0001) //            Max. Y spins =              0
(PID.TID 0000.0001) //            Min. Y spins =     1000000000
(PID.TID 0000.0001) //          Total. Y spins =              0
(PID.TID 0000.0001) //            Avg. Y spins =       0.00E+00
(PID.TID 0000.0001) // o Tile number: 000003
(PID.TID 0000.0001) //         No. X exchanges =              0
(PID.TID 0000.0001) //            Max. X spins =              0
(PID.TID 0000.0001) //            Min. X spins =     1000000000
(PID.TID 0000.0001) //          Total. X spins =              0
(PID.TID 0000.0001) //            Avg. X spins =       0.00E+00
(PID.TID 0000.0001) //         No. Y exchanges =              0
(PID.TID 0000.0001) //            Max. Y spins =              0
(PID.TID 0000.0001) //            Min. Y spins =     1000000000
(PID.TID 0000.0001) //          Total. Y spins =              0
(PID.TID 0000.0001) //            Avg. Y spins =       0.00E+00
(PID.TID 0000.0001) // o Tile number: 000004
(PID.TID 0000.0001) //         No. X exchanges =              0
(PID.TID 0000.0001) //            Max. X spins =              0
(PID.TID 0000.0001) //            Min. X spins =     1000000000
(PID.TID 0000.0001) //          Total. X spins =              0
(PID.TID 0000.0001) //            Avg. X spins =       0.00E+00
(PID.TID 0000.0001) //         No. Y exchanges =              0
(PID.TID 0000.0001) //            Max. Y spins =              0
(PID.TID 0000.0001) //            Min. Y spins =     1000000000
(PID.TID 0000.0001) //          Total. Y spins =              0
(PID.TID 0000.0001) //            Avg. Y spins =       0.00E+00
(PID.TID 0000.0001) // o Thread number: 000001
(PID.TID 0000.0001) //            No. barriers =          13866
(PID.TID 0000.0001) //      Max. barrier spins =              1
(PID.TID 0000.0001) //      Min. barrier spins =              1
(PID.TID 0000.0001) //     Total barrier spins =          13866
(PID.TID 0000.0001) //      Avg. barrier spins =       1.00E+00
