(PID.TID 0000.0001) 
(PID.TID 0000.0001) // ======================================================
(PID.TID 0000.0001) //                      MITgcm UV
(PID.TID 0000.0001) //                      =========
(PID.TID 0000.0001) // ======================================================
(PID.TID 0000.0001) // execution environment starting up...
(PID.TID 0000.0001) // Run starting Wed Apr  1 14:19:48 1998
(PID.TID 0000.0001) // on melville.lcs.mit.edu
(PID.TID 0000.0001) // account cnh
(PID.TID 0000.0001) // MITgcm UV Release: $Name:  $
(PID.TID 0000.0001) 
(PID.TID 0000.0001) // =======================================================
(PID.TID 0000.0001) // Execution Environment parameter file "eedata"
(PID.TID 0000.0001) // =======================================================
(PID.TID 0000.0001) ># Example "eedata" file
(PID.TID 0000.0001) ># Lines beginning "#" are comments
(PID.TID 0000.0001) ># nTx - No. threads per process in X
(PID.TID 0000.0001) ># nTy - No. threads per process in Y
(PID.TID 0000.0001) > &EEPARMS
(PID.TID 0000.0001) > nTx=1,nTy=1
(PID.TID 0000.0001) > &
(PID.TID 0000.0001) ># Note: Some systems use & as the
(PID.TID 0000.0001) ># namelist terminator. Other systems
(PID.TID 0000.0001) ># use a / character (as shown here).
(PID.TID 0000.0001) 
(PID.TID 0000.0001) // =======================================================
(PID.TID 0000.0001) // Computational Grid Specification ( see files "SIZE.h" )
(PID.TID 0000.0001) //                                  ( and "eedata"       )
(PID.TID 0000.0001) // =======================================================
(PID.TID 0000.0001)      nPx =    1 ; /* No. processes in X */
(PID.TID 0000.0001)      nPy =    1 ; /* No. processes in Y */
(PID.TID 0000.0001)      nSx =    1 ; /* No. tiles in X per process */
(PID.TID 0000.0001)      nSy =    4 ; /* No. tiles in Y per process */
(PID.TID 0000.0001)      sNx =    1 ; /* Tile size in X */
(PID.TID 0000.0001)      sNy =   14 ; /* Tile size in Y */
(PID.TID 0000.0001)      OLx =    3 ; /* Tile overlap distance in X */
(PID.TID 0000.0001)      OLy =    3 ; /* Tile overlap distance in Y */
(PID.TID 0000.0001)      nTx =    1 ; /* No. threads in X per process */
(PID.TID 0000.0001)      nTy =    1 ; /* No. threads in Y per process */
(PID.TID 0000.0001)       Nr =   15 ; /* No. levels in the vertical   */
(PID.TID 0000.0001)       nX =    1 ; /* Total domain size in X ( = nPx*nSx*sNx ) */
(PID.TID 0000.0001)       nY =   56 ; /* Total domain size in Y ( = nPy*nSy*sNy ) */
(PID.TID 0000.0001)   nTiles =    4 ; /* Total no. tiles per process ( = nSx*nSy ) */
(PID.TID 0000.0001)   nProcs =    1 ; /* Total no. processes ( = nPx*nPy ) */
(PID.TID 0000.0001) nThreads =    1 ; /* Total no. threads per process ( = nTx*nTy ) */
(PID.TID 0000.0001) usingMPI =    F ; /* Flag used to control whether MPI is in use */
(PID.TID 0000.0001)                   /*  note: To execute a program with MPI calls */
(PID.TID 0000.0001)                   /*  it must be launched appropriately e.g     */
(PID.TID 0000.0001)                   /*  "mpirun -np 64 ......"                    */
(PID.TID 0000.0001) 
(PID.TID 0000.0001) // ======================================================
(PID.TID 0000.0001) // Mapping of tiles to threads
(PID.TID 0000.0001) // ======================================================
(PID.TID 0000.0001) // -o- Thread   1, tiles (   1:   1,   1:   4)
(PID.TID 0000.0001) 
(PID.TID 0000.0001) // ======================================================
(PID.TID 0000.0001) // Tile <-> Tile connectvity table
(PID.TID 0000.0001) // ======================================================
(PID.TID 0000.0001) // Tile number: 000001 (process no. = 000001)
(PID.TID 0000.0001) //        WEST: Tile = 000001, Process = 000001, Comm = put
(PID.TID 0000.0001) //                bi = 000001, bj = 000001
(PID.TID 0000.0001) //        EAST: Tile = 000001, Process = 000001, Comm = put
(PID.TID 0000.0001) //                bi = 000001, bj = 000001
(PID.TID 0000.0001) //       SOUTH: Tile = 000004, Process = 000001, Comm = put
(PID.TID 0000.0001) //                bi = 000001, bj = 000004
(PID.TID 0000.0001) //       NORTH: Tile = 000002, Process = 000001, Comm = put
(PID.TID 0000.0001) //                bi = 000001, bj = 000002
(PID.TID 0000.0001) // Tile number: 000002 (process no. = 000001)
(PID.TID 0000.0001) //        WEST: Tile = 000002, Process = 000001, Comm = put
(PID.TID 0000.0001) //                bi = 000001, bj = 000002
(PID.TID 0000.0001) //        EAST: Tile = 000002, Process = 000001, Comm = put
(PID.TID 0000.0001) //                bi = 000001, bj = 000002
(PID.TID 0000.0001) //       SOUTH: Tile = 000001, Process = 000001, Comm = put
(PID.TID 0000.0001) //                bi = 000001, bj = 000001
(PID.TID 0000.0001) //       NORTH: Tile = 000003, Process = 000001, Comm = put
(PID.TID 0000.0001) //                bi = 000001, bj = 000003
(PID.TID 0000.0001) // Tile number: 000003 (process no. = 000001)
(PID.TID 0000.0001) //        WEST: Tile = 000003, Process = 000001, Comm = put
(PID.TID 0000.0001) //                bi = 000001, bj = 000003
(PID.TID 0000.0001) //        EAST: Tile = 000003, Process = 000001, Comm = put
(PID.TID 0000.0001) //                bi = 000001, bj = 000003
(PID.TID 0000.0001) //       SOUTH: Tile = 000002, Process = 000001, Comm = put
(PID.TID 0000.0001) //                bi = 000001, bj = 000002
(PID.TID 0000.0001) //       NORTH: Tile = 000004, Process = 000001, Comm = put
(PID.TID 0000.0001) //                bi = 000001, bj = 000004
(PID.TID 0000.0001) // Tile number: 000004 (process no. = 000001)
(PID.TID 0000.0001) //        WEST: Tile = 000004, Process = 000001, Comm = put
(PID.TID 0000.0001) //                bi = 000001, bj = 000004
(PID.TID 0000.0001) //        EAST: Tile = 000004, Process = 000001, Comm = put
(PID.TID 0000.0001) //                bi = 000001, bj = 000004
(PID.TID 0000.0001) //       SOUTH: Tile = 000003, Process = 000001, Comm = put
(PID.TID 0000.0001) //                bi = 000001, bj = 000003
(PID.TID 0000.0001) //       NORTH: Tile = 000001, Process = 000001, Comm = put
(PID.TID 0000.0001) //                bi = 000001, bj = 000001
(PID.TID 0000.0001) 
(PID.TID 0000.0001) // =======================================================
(PID.TID 0000.0001) // Model parameter file "data"
(PID.TID 0000.0001) // =======================================================
(PID.TID 0000.0001) ># ====================
(PID.TID 0000.0001) ># | Model parameters |
(PID.TID 0000.0001) ># ====================
(PID.TID 0000.0001) >#
(PID.TID 0000.0001) ># Continuous equation parameters
(PID.TID 0000.0001) > &PARM01
(PID.TID 0000.0001) > tRef= 18.8, 16.3, 13.1, 10.4, 8.1, 6.0, 4.5,
(PID.TID 0000.0001) >      3.4, 2.7, 2.2, 1.8, 1.5, 1.2, 1.0, 0.9,
(PID.TID 0000.0001) > sRef= 15*34.7,
(PID.TID 0000.0001) > cosPower=1.,
(PID.TID 0000.0001) > viscAz=1.E-3,
(PID.TID 0000.0001) > viscAh=12.E5,
(PID.TID 0000.0001) > no_slip_sides=.FALSE.,
(PID.TID 0000.0001) > no_slip_bottom=.TRUE.,
(PID.TID 0000.0001) > bottomDragLinear=1.E-3,
(PID.TID 0000.0001) >#diffK4T=2.E12,
(PID.TID 0000.0001) > diffKhT=0.E3,
(PID.TID 0000.0001) > diffKzT=1.E-5,
(PID.TID 0000.0001) > ivdc_kappa=100.,
(PID.TID 0000.0001) > implicitDiffusion=.TRUE.,
(PID.TID 0000.0001) > eosType='LINEAR',
(PID.TID 0000.0001) > tAlpha=2.E-4,
(PID.TID 0000.0001) > sBeta =0.E-4,
(PID.TID 0000.0001) > saltStepping=.FALSE.,
(PID.TID 0000.0001) > gravity=9.81,
(PID.TID 0000.0001) > rhonil=1035.,
(PID.TID 0000.0001) > implicitFreeSurface=.TRUE.,
(PID.TID 0000.0001) > exactConserv=.TRUE.,
(PID.TID 0000.0001) > staggerTimeStep=.TRUE.,
(PID.TID 0000.0001) > useCDscheme=.TRUE.,
(PID.TID 0000.0001) > readBinaryPrec=64,
(PID.TID 0000.0001) > tempAdvScheme=77,
(PID.TID 0000.0001) > &
(PID.TID 0000.0001) >
(PID.TID 0000.0001) ># Elliptic solver parameters
(PID.TID 0000.0001) > &PARM02
(PID.TID 0000.0001) > cg2dMaxIters=1000,
(PID.TID 0000.0001) >#cg2dTargetResidual=1.E-13,
(PID.TID 0000.0001) > cg2dTargetResWunit=1.E-17,
(PID.TID 0000.0001) > &
(PID.TID 0000.0001) >
(PID.TID 0000.0001) ># Time stepping parameters
(PID.TID 0000.0001) > &PARM03
(PID.TID 0000.0001) > niter0=36000,
(PID.TID 0000.0001) > nTimeSteps=20,
(PID.TID 0000.0001) >#endTime=3110400000.,
(PID.TID 0000.0001) > deltaTmom=1200.0,
(PID.TID 0000.0001) > deltaTfreesurf=3600.0,
(PID.TID 0000.0001) > deltaTtracer=86400.0,
(PID.TID 0000.0001) > deltaTClock =86400.0,
(PID.TID 0000.0001) > abEps=0.1,
(PID.TID 0000.0001) > tauCD=321428.,
(PID.TID 0000.0001) > tauThetaClimRelax=2592000.0,
(PID.TID 0000.0001) > chkptFreq=0.0,
(PID.TID 0000.0001) > pChkptFreq=3110400000.0,
(PID.TID 0000.0001) > taveFreq=1555200000.0,
(PID.TID 0000.0001) > dumpFreq=1555200000.0,
(PID.TID 0000.0001) > diagFreq=1555200000.0,
(PID.TID 0000.0001) >#monitorFreq=31104000.0,
(PID.TID 0000.0001) > monitorFreq=1.0,
(PID.TID 0000.0001) > &
(PID.TID 0000.0001) >
(PID.TID 0000.0001) ># Gridding parameters
(PID.TID 0000.0001) > &PARM04
(PID.TID 0000.0001) > usingCartesianGrid=.FALSE.,
(PID.TID 0000.0001) > usingSphericalPolarGrid=.TRUE.,
(PID.TID 0000.0001) > delRc= 20.,  60.,  85., 120., 165., 215., 265., 315.,
(PID.TID 0000.0001) >       365., 415., 465., 515., 565., 615., 665., 350.,
(PID.TID 0000.0001) > phiMin=-84.,
(PID.TID 0000.0001) > delY=56*3,
(PID.TID 0000.0001) > delX=1*3,
(PID.TID 0000.0001) > &
(PID.TID 0000.0001) >
(PID.TID 0000.0001) ># Input datasets
(PID.TID 0000.0001) > &PARM05
(PID.TID 0000.0001) > bathyFile='topo_sl.bin',
(PID.TID 0000.0001) > zonalWindFile='taux_sl.bin',
(PID.TID 0000.0001) > thetaClimFile='sst_sl.bin',
(PID.TID 0000.0001) > &
(PID.TID 0000.0001) 
(PID.TID 0000.0001) S/R INI_PARMS ; read PARM01 : OK
(PID.TID 0000.0001) S/R INI_PARMS ; read PARM02 : OK
(PID.TID 0000.0001) S/R INI_PARMS ; read PARM03 : OK
(PID.TID 0000.0001) S/R INI_PARMS ; read PARM04 : OK
(PID.TID 0000.0001) S/R INI_PARMS ; read PARM05 : OK
(PID.TID 0000.0001) %MON XC_max                       =   1.5000000000000E+00
(PID.TID 0000.0001) %MON XC_min                       =   1.5000000000000E+00
(PID.TID 0000.0001) %MON XC_mean                      =   1.5000000000000E+00
(PID.TID 0000.0001) %MON XC_sd                        =   0.0000000000000E+00
(PID.TID 0000.0001) %MON XG_max                       =   0.0000000000000E+00
(PID.TID 0000.0001) %MON XG_min                       =   0.0000000000000E+00
(PID.TID 0000.0001) %MON XG_mean                      =   0.0000000000000E+00
(PID.TID 0000.0001) %MON XG_sd                        =   0.0000000000000E+00
(PID.TID 0000.0001) %MON DXC_max                      =   3.3341812682592E+05
(PID.TID 0000.0001) %MON DXC_min                      =   4.3534716771864E+04
(PID.TID 0000.0001) %MON DXC_mean                     =   2.2627957857351E+05
(PID.TID 0000.0001) %MON DXC_sd                       =   9.1462046601761E+04
(PID.TID 0000.0001) %MON DXF_max                      =   3.3341812682592E+05
(PID.TID 0000.0001) %MON DXF_min                      =   4.3534716771864E+04
(PID.TID 0000.0001) %MON DXF_mean                     =   2.2627957857351E+05
(PID.TID 0000.0001) %MON DXF_sd                       =   9.1462046601761E+04
(PID.TID 0000.0001) %MON DXG_max                      =   3.3353242005612E+05
(PID.TID 0000.0001) %MON DXG_min                      =   3.4863631318407E+04
(PID.TID 0000.0001) %MON DXG_mean                     =   2.2620203821339E+05
(PID.TID 0000.0001) %MON DXG_sd                       =   9.1624145029333E+04
(PID.TID 0000.0001) %MON DXV_max                      =   3.3353242005612E+05
(PID.TID 0000.0001) %MON DXV_min                      =   3.4863631318407E+04
(PID.TID 0000.0001) %MON DXV_mean                     =   2.2620203821339E+05
(PID.TID 0000.0001) %MON DXV_sd                       =   9.1624145029333E+04
(PID.TID 0000.0001) %MON YC_max                       =   8.2500000000000E+01
(PID.TID 0000.0001) %MON YC_min                       =  -8.2500000000000E+01
(PID.TID 0000.0001) %MON YC_mean                      =   0.0000000000000E+00
(PID.TID 0000.0001) %MON YC_sd                        =   4.8489689625734E+01
(PID.TID 0000.0001) %MON YG_max                       =   8.1000000000000E+01
(PID.TID 0000.0001) %MON YG_min                       =  -8.4000000000000E+01
(PID.TID 0000.0001) %MON YG_mean                      =  -1.5272727272727E+00
(PID.TID 0000.0001) %MON YG_sd                        =   4.8928093638598E+01
(PID.TID 0000.0001) %MON DYC_max                      =   3.3353242005612E+05
(PID.TID 0000.0001) %MON DYC_min                      =   3.3353242005612E+05
(PID.TID 0000.0001) %MON DYC_mean                     =   3.3353242005612E+05
(PID.TID 0000.0001) %MON DYC_sd                       =   2.3283064365387E-10
(PID.TID 0000.0001) %MON DYF_max                      =   3.3353242005612E+05
(PID.TID 0000.0001) %MON DYF_min                      =   3.3353242005612E+05
(PID.TID 0000.0001) %MON DYF_mean                     =   3.3353242005612E+05
(PID.TID 0000.0001) %MON DYF_sd                       =   2.3283064365387E-10
(PID.TID 0000.0001) %MON DYG_max                      =   3.3353242005612E+05
(PID.TID 0000.0001) %MON DYG_min                      =   3.3353242005612E+05
(PID.TID 0000.0001) %MON DYG_mean                     =   3.3353242005612E+05
(PID.TID 0000.0001) %MON DYG_sd                       =   2.3283064365387E-10
(PID.TID 0000.0001) %MON DYU_max                      =   3.3353242005612E+05
(PID.TID 0000.0001) %MON DYU_min                      =   3.3353242005612E+05
(PID.TID 0000.0001) %MON DYU_mean                     =   3.3353242005612E+05
(PID.TID 0000.0001) %MON DYU_sd                       =   2.3283064365387E-10
(PID.TID 0000.0001) %MON RA_max                       =   1.1119305196237E+11
(PID.TID 0000.0001) %MON RA_min                       =   1.4518580829016E+10
(PID.TID 0000.0001) %MON RA_mean                      =   7.5462954512622E+10
(PID.TID 0000.0001) %MON RA_sd                        =   3.0502073169179E+10
(PID.TID 0000.0001) %MON RAW_max                      =   1.1119305196237E+11
(PID.TID 0000.0001) %MON RAW_min                      =   1.4518580829016E+10
(PID.TID 0000.0001) %MON RAW_mean                     =   7.5462954512622E+10
(PID.TID 0000.0001) %MON RAW_sd                       =   3.0502073169179E+10
(PID.TID 0000.0001) %MON RAS_max                      =   1.1123116810562E+11
(PID.TID 0000.0001) %MON RAS_min                      =   1.1626823069547E+10
(PID.TID 0000.0001) %MON RAS_mean                     =   7.5437095242840E+10
(PID.TID 0000.0001) %MON RAS_sd                       =   3.0556132074289E+10
(PID.TID 0000.0001) %MON RAZ_max                      =   1.1123116810562E+11
(PID.TID 0000.0001) %MON RAZ_min                      =   1.1626823069547E+10
(PID.TID 0000.0001) %MON RAZ_mean                     =   7.5437095242840E+10
(PID.TID 0000.0001) %MON RAZ_sd                       =   3.0556132074289E+10
(PID.TID 0000.0001)  MDSREADFIELD: opening global file: topo_sl.bin
(PID.TID 0000.0001) // =======================================================
(PID.TID 0000.0001) // Field Model R_low (ini_masks_etc) at iteration          1
(PID.TID 0000.0001) // CMIN =         -5.200000000000000E+03
(PID.TID 0000.0001) // CMAX =         -5.200000000000000E+03
(PID.TID 0000.0001) // CINT =          0.000000000000000E+00
(PID.TID 0000.0001) // SYMBOLS (CMIN->CMAX): -abcdefghijklmnopqrstuvwxyz+
(PID.TID 0000.0001) //                  0.0: .
(PID.TID 0000.0001) // RANGE I (Lo:Hi:Step):(  -2:   4:   1)
(PID.TID 0000.0001) // RANGE J (Lo:Hi:Step):(  59:  -2:  -1)
(PID.TID 0000.0001) // RANGE K (Lo:Hi:Step):(   1:   1:   1)
(PID.TID 0000.0001) // =======================================================
(PID.TID 0000.0001) K =   1
(PID.TID 0000.0001) //
(PID.TID 0000.0001) // |--J--|**01234
(PID.TID 0000.0001) //     59 .......
(PID.TID 0000.0001) //     58 -------
(PID.TID 0000.0001) //     57 .......
(PID.TID 0000.0001) //     56 .......
(PID.TID 0000.0001) //     55 -------
(PID.TID 0000.0001) //     54 -------
(PID.TID 0000.0001) //     53 -------
(PID.TID 0000.0001) //     52 -------
(PID.TID 0000.0001) //     51 -------
(PID.TID 0000.0001) //     50 -------
(PID.TID 0000.0001) //     49 -------
(PID.TID 0000.0001) //     48 -------
(PID.TID 0000.0001) //     47 -------
(PID.TID 0000.0001) //     46 -------
(PID.TID 0000.0001) //     45 -------
(PID.TID 0000.0001) //     44 -------
(PID.TID 0000.0001) //     43 -------
(PID.TID 0000.0001) //     42 -------
(PID.TID 0000.0001) //     41 -------
(PID.TID 0000.0001) //     40 -------
(PID.TID 0000.0001) //     45 -------
(PID.TID 0000.0001) //     44 -------
(PID.TID 0000.0001) //     43 -------
(PID.TID 0000.0001) //     42 -------
(PID.TID 0000.0001) //     41 -------
(PID.TID 0000.0001) //     40 -------
(PID.TID 0000.0001) //     39 -------
(PID.TID 0000.0001) //     38 -------
(PID.TID 0000.0001) //     37 -------
(PID.TID 0000.0001) //     36 -------
(PID.TID 0000.0001) //     35 -------
(PID.TID 0000.0001) //     34 -------
(PID.TID 0000.0001) //     33 -------
(PID.TID 0000.0001) //     32 -------
(PID.TID 0000.0001) //     31 -------
(PID.TID 0000.0001) //     30 -------
(PID.TID 0000.0001) //     29 -------
(PID.TID 0000.0001) //     28 -------
(PID.TID 0000.0001) //     27 -------
(PID.TID 0000.0001) //     26 -------
(PID.TID 0000.0001) //     31 -------
(PID.TID 0000.0001) //     30 -------
(PID.TID 0000.0001) //     29 -------
(PID.TID 0000.0001) //     28 -------
(PID.TID 0000.0001) //     27 -------
(PID.TID 0000.0001) //     26 -------
(PID.TID 0000.0001) //     25 -------
(PID.TID 0000.0001) //     24 -------
(PID.TID 0000.0001) //     23 -------
(PID.TID 0000.0001) //     22 -------
(PID.TID 0000.0001) //     21 -------
(PID.TID 0000.0001) //     20 -------
(PID.TID 0000.0001) //     19 -------
(PID.TID 0000.0001) //     18 -------
(PID.TID 0000.0001) //     17 -------
(PID.TID 0000.0001) //     16 -------
(PID.TID 0000.0001) //     15 -------
(PID.TID 0000.0001) //     14 -------
(PID.TID 0000.0001) //     13 -------
(PID.TID 0000.0001) //     12 -------
(PID.TID 0000.0001) //     17 -------
(PID.TID 0000.0001) //     16 -------
(PID.TID 0000.0001) //     15 -------
(PID.TID 0000.0001) //     14 -------
(PID.TID 0000.0001) //     13 -------
(PID.TID 0000.0001) //     12 -------
(PID.TID 0000.0001) //     11 -------
(PID.TID 0000.0001) //     10 -------
(PID.TID 0000.0001) //      9 -------
(PID.TID 0000.0001) //      8 -------
(PID.TID 0000.0001) //      7 -------
(PID.TID 0000.0001) //      6 -------
(PID.TID 0000.0001) //      5 -------
(PID.TID 0000.0001) //      4 -------
(PID.TID 0000.0001) //      3 -------
(PID.TID 0000.0001) //      2 -------
(PID.TID 0000.0001) //      1 .......
(PID.TID 0000.0001) //      0 .......
(PID.TID 0000.0001) //     -1 -------
(PID.TID 0000.0001) //     -2 .......
(PID.TID 0000.0001) // =======================================================
(PID.TID 0000.0001) // END OF FIELD                                          =
(PID.TID 0000.0001) // =======================================================
(PID.TID 0000.0001) 
(PID.TID 0000.0001) // =======================================================
(PID.TID 0000.0001) // Field Model Ro_surf (ini_masks_etc) at iteration          1
(PID.TID 0000.0001) // CMIN =          1.000000000000000E+32
(PID.TID 0000.0001) // CMAX =         -1.000000000000000E+32
(PID.TID 0000.0001) // CINT =          0.000000000000000E+00
(PID.TID 0000.0001) // SYMBOLS (CMIN->CMAX): -abcdefghijklmnopqrstuvwxyz+
(PID.TID 0000.0001) //                  0.0: .
(PID.TID 0000.0001) // RANGE I (Lo:Hi:Step):(  -2:   4:   1)
(PID.TID 0000.0001) // RANGE J (Lo:Hi:Step):(  59:  -2:  -1)
(PID.TID 0000.0001) // RANGE K (Lo:Hi:Step):(   1:   1:   1)
(PID.TID 0000.0001) // =======================================================
(PID.TID 0000.0001) K =   1
(PID.TID 0000.0001) //
(PID.TID 0000.0001) // |--J--|**01234
(PID.TID 0000.0001) //     59 .......
(PID.TID 0000.0001) //     58 .......
(PID.TID 0000.0001) //     57 .......
(PID.TID 0000.0001) //     56 .......
(PID.TID 0000.0001) //     55 .......
(PID.TID 0000.0001) //     54 .......
(PID.TID 0000.0001) //     53 .......
(PID.TID 0000.0001) //     52 .......
(PID.TID 0000.0001) //     51 .......
(PID.TID 0000.0001) //     50 .......
(PID.TID 0000.0001) //     49 .......
(PID.TID 0000.0001) //     48 .......
(PID.TID 0000.0001) //     47 .......
(PID.TID 0000.0001) //     46 .......
(PID.TID 0000.0001) //     45 .......
(PID.TID 0000.0001) //     44 .......
(PID.TID 0000.0001) //     43 .......
(PID.TID 0000.0001) //     42 .......
(PID.TID 0000.0001) //     41 .......
(PID.TID 0000.0001) //     40 .......
(PID.TID 0000.0001) //     45 .......
(PID.TID 0000.0001) //     44 .......
(PID.TID 0000.0001) //     43 .......
(PID.TID 0000.0001) //     42 .......
(PID.TID 0000.0001) //     41 .......
(PID.TID 0000.0001) //     40 .......
(PID.TID 0000.0001) //     39 .......
(PID.TID 0000.0001) //     38 .......
(PID.TID 0000.0001) //     37 .......
(PID.TID 0000.0001) //     36 .......
(PID.TID 0000.0001) //     35 .......
(PID.TID 0000.0001) //     34 .......
(PID.TID 0000.0001) //     33 .......
(PID.TID 0000.0001) //     32 .......
(PID.TID 0000.0001) //     31 .......
(PID.TID 0000.0001) //     30 .......
(PID.TID 0000.0001) //     29 .......
(PID.TID 0000.0001) //     28 .......
(PID.TID 0000.0001) //     27 .......
(PID.TID 0000.0001) //     26 .......
(PID.TID 0000.0001) //     31 .......
(PID.TID 0000.0001) //     30 .......
(PID.TID 0000.0001) //     29 .......
(PID.TID 0000.0001) //     28 .......
(PID.TID 0000.0001) //     27 .......
(PID.TID 0000.0001) //     26 .......
(PID.TID 0000.0001) //     25 .......
(PID.TID 0000.0001) //     24 .......
(PID.TID 0000.0001) //     23 .......
(PID.TID 0000.0001) //     22 .......
(PID.TID 0000.0001) //     21 .......
(PID.TID 0000.0001) //     20 .......
(PID.TID 0000.0001) //     19 .......
(PID.TID 0000.0001) //     18 .......
(PID.TID 0000.0001) //     17 .......
(PID.TID 0000.0001) //     16 .......
(PID.TID 0000.0001) //     15 .......
(PID.TID 0000.0001) //     14 .......
(PID.TID 0000.0001) //     13 .......
(PID.TID 0000.0001) //     12 .......
(PID.TID 0000.0001) //     17 .......
(PID.TID 0000.0001) //     16 .......
(PID.TID 0000.0001) //     15 .......
(PID.TID 0000.0001) //     14 .......
(PID.TID 0000.0001) //     13 .......
(PID.TID 0000.0001) //     12 .......
(PID.TID 0000.0001) //     11 .......
(PID.TID 0000.0001) //     10 .......
(PID.TID 0000.0001) //      9 .......
(PID.TID 0000.0001) //      8 .......
(PID.TID 0000.0001) //      7 .......
(PID.TID 0000.0001) //      6 .......
(PID.TID 0000.0001) //      5 .......
(PID.TID 0000.0001) //      4 .......
(PID.TID 0000.0001) //      3 .......
(PID.TID 0000.0001) //      2 .......
(PID.TID 0000.0001) //      1 .......
(PID.TID 0000.0001) //      0 .......
(PID.TID 0000.0001) //     -1 .......
(PID.TID 0000.0001) //     -2 .......
(PID.TID 0000.0001) // =======================================================
(PID.TID 0000.0001) // END OF FIELD                                          =
(PID.TID 0000.0001) // =======================================================
(PID.TID 0000.0001) 
(PID.TID 0000.0001) // =======================================================
(PID.TID 0000.0001) // Field hFacC at iteration          1
(PID.TID 0000.0001) // CMIN =          1.000000000000000E+00
(PID.TID 0000.0001) // CMAX =          1.000000000000000E+00
(PID.TID 0000.0001) // CINT =          0.000000000000000E+00
(PID.TID 0000.0001) // SYMBOLS (CMIN->CMAX): -abcdefghijklmnopqrstuvwxyz+
(PID.TID 0000.0001) //                  0.0: .
(PID.TID 0000.0001) // RANGE I (Lo:Hi:Step):(  -2:   4:   1)
(PID.TID 0000.0001) // RANGE J (Lo:Hi:Step):(  59:  -2:  -1)
(PID.TID 0000.0001) // RANGE K (Lo:Hi:Step):(   1:   1:   1)
(PID.TID 0000.0001) // =======================================================
(PID.TID 0000.0001) K =   1
(PID.TID 0000.0001) //
(PID.TID 0000.0001) // |--J--|**01234
(PID.TID 0000.0001) //     59 .......
(PID.TID 0000.0001) //     58 -------
(PID.TID 0000.0001) //     57 .......
(PID.TID 0000.0001) //     56 .......
(PID.TID 0000.0001) //     55 -------
(PID.TID 0000.0001) //     54 -------
(PID.TID 0000.0001) //     53 -------
(PID.TID 0000.0001) //     52 -------
(PID.TID 0000.0001) //     51 -------
(PID.TID 0000.0001) //     50 -------
(PID.TID 0000.0001) //     49 -------
(PID.TID 0000.0001) //     48 -------
(PID.TID 0000.0001) //     47 -------
(PID.TID 0000.0001) //     46 -------
(PID.TID 0000.0001) //     45 -------
(PID.TID 0000.0001) //     44 -------
(PID.TID 0000.0001) //     43 -------
(PID.TID 0000.0001) //     42 -------
(PID.TID 0000.0001) //     41 -------
(PID.TID 0000.0001) //     40 -------
(PID.TID 0000.0001) //     45 -------
(PID.TID 0000.0001) //     44 -------
(PID.TID 0000.0001) //     43 -------
(PID.TID 0000.0001) //     42 -------
(PID.TID 0000.0001) //     41 -------
(PID.TID 0000.0001) //     40 -------
(PID.TID 0000.0001) //     39 -------
(PID.TID 0000.0001) //     38 -------
(PID.TID 0000.0001) //     37 -------
(PID.TID 0000.0001) //     36 -------
(PID.TID 0000.0001) //     35 -------
(PID.TID 0000.0001) //     34 -------
(PID.TID 0000.0001) //     33 -------
(PID.TID 0000.0001) //     32 -------
(PID.TID 0000.0001) //     31 -------
(PID.TID 0000.0001) //     30 -------
(PID.TID 0000.0001) //     29 -------
(PID.TID 0000.0001) //     28 -------
(PID.TID 0000.0001) //     27 -------
(PID.TID 0000.0001) //     26 -------
(PID.TID 0000.0001) //     31 -------
(PID.TID 0000.0001) //     30 -------
(PID.TID 0000.0001) //     29 -------
(PID.TID 0000.0001) //     28 -------
(PID.TID 0000.0001) //     27 -------
(PID.TID 0000.0001) //     26 -------
(PID.TID 0000.0001) //     25 -------
(PID.TID 0000.0001) //     24 -------
(PID.TID 0000.0001) //     23 -------
(PID.TID 0000.0001) //     22 -------
(PID.TID 0000.0001) //     21 -------
(PID.TID 0000.0001) //     20 -------
(PID.TID 0000.0001) //     19 -------
(PID.TID 0000.0001) //     18 -------
(PID.TID 0000.0001) //     17 -------
(PID.TID 0000.0001) //     16 -------
(PID.TID 0000.0001) //     15 -------
(PID.TID 0000.0001) //     14 -------
(PID.TID 0000.0001) //     13 -------
(PID.TID 0000.0001) //     12 -------
(PID.TID 0000.0001) //     17 -------
(PID.TID 0000.0001) //     16 -------
(PID.TID 0000.0001) //     15 -------
(PID.TID 0000.0001) //     14 -------
(PID.TID 0000.0001) //     13 -------
(PID.TID 0000.0001) //     12 -------
(PID.TID 0000.0001) //     11 -------
(PID.TID 0000.0001) //     10 -------
(PID.TID 0000.0001) //      9 -------
(PID.TID 0000.0001) //      8 -------
(PID.TID 0000.0001) //      7 -------
(PID.TID 0000.0001) //      6 -------
(PID.TID 0000.0001) //      5 -------
(PID.TID 0000.0001) //      4 -------
(PID.TID 0000.0001) //      3 -------
(PID.TID 0000.0001) //      2 -------
(PID.TID 0000.0001) //      1 .......
(PID.TID 0000.0001) //      0 .......
(PID.TID 0000.0001) //     -1 -------
(PID.TID 0000.0001) //     -2 .......
(PID.TID 0000.0001) // =======================================================
(PID.TID 0000.0001) // END OF FIELD                                          =
(PID.TID 0000.0001) // =======================================================
(PID.TID 0000.0001) 
(PID.TID 0000.0001) // =======================================================
(PID.TID 0000.0001) // Field hFacW at iteration          1
(PID.TID 0000.0001) // CMIN =          1.000000000000000E+00
(PID.TID 0000.0001) // CMAX =          1.000000000000000E+00
(PID.TID 0000.0001) // CINT =          0.000000000000000E+00
(PID.TID 0000.0001) // SYMBOLS (CMIN->CMAX): -abcdefghijklmnopqrstuvwxyz+
(PID.TID 0000.0001) //                  0.0: .
(PID.TID 0000.0001) // RANGE I (Lo:Hi:Step):(  -2:   4:   1)
(PID.TID 0000.0001) // RANGE J (Lo:Hi:Step):(  59:  -2:  -1)
(PID.TID 0000.0001) // RANGE K (Lo:Hi:Step):(   1:   1:   1)
(PID.TID 0000.0001) // =======================================================
(PID.TID 0000.0001) K =   1
(PID.TID 0000.0001) //
(PID.TID 0000.0001) // |--J--|**01234
(PID.TID 0000.0001) //     59 -------
(PID.TID 0000.0001) //     58 -------
(PID.TID 0000.0001) //     57 .......
(PID.TID 0000.0001) //     56 .......
(PID.TID 0000.0001) //     55 -------
(PID.TID 0000.0001) //     54 -------
(PID.TID 0000.0001) //     53 -------
(PID.TID 0000.0001) //     52 -------
(PID.TID 0000.0001) //     51 -------
(PID.TID 0000.0001) //     50 -------
(PID.TID 0000.0001) //     49 -------
(PID.TID 0000.0001) //     48 -------
(PID.TID 0000.0001) //     47 -------
(PID.TID 0000.0001) //     46 -------
(PID.TID 0000.0001) //     45 -------
(PID.TID 0000.0001) //     44 -------
(PID.TID 0000.0001) //     43 -------
(PID.TID 0000.0001) //     42 -------
(PID.TID 0000.0001) //     41 -------
(PID.TID 0000.0001) //     40 -------
(PID.TID 0000.0001) //     45 -------
(PID.TID 0000.0001) //     44 -------
(PID.TID 0000.0001) //     43 -------
(PID.TID 0000.0001) //     42 -------
(PID.TID 0000.0001) //     41 -------
(PID.TID 0000.0001) //     40 -------
(PID.TID 0000.0001) //     39 -------
(PID.TID 0000.0001) //     38 -------
(PID.TID 0000.0001) //     37 -------
(PID.TID 0000.0001) //     36 -------
(PID.TID 0000.0001) //     35 -------
(PID.TID 0000.0001) //     34 -------
(PID.TID 0000.0001) //     33 -------
(PID.TID 0000.0001) //     32 -------
(PID.TID 0000.0001) //     31 -------
(PID.TID 0000.0001) //     30 -------
(PID.TID 0000.0001) //     29 -------
(PID.TID 0000.0001) //     28 -------
(PID.TID 0000.0001) //     27 -------
(PID.TID 0000.0001) //     26 -------
(PID.TID 0000.0001) //     31 -------
(PID.TID 0000.0001) //     30 -------
(PID.TID 0000.0001) //     29 -------
(PID.TID 0000.0001) //     28 -------
(PID.TID 0000.0001) //     27 -------
(PID.TID 0000.0001) //     26 -------
(PID.TID 0000.0001) //     25 -------
(PID.TID 0000.0001) //     24 -------
(PID.TID 0000.0001) //     23 -------
(PID.TID 0000.0001) //     22 -------
(PID.TID 0000.0001) //     21 -------
(PID.TID 0000.0001) //     20 -------
(PID.TID 0000.0001) //     19 -------
(PID.TID 0000.0001) //     18 -------
(PID.TID 0000.0001) //     17 -------
(PID.TID 0000.0001) //     16 -------
(PID.TID 0000.0001) //     15 -------
(PID.TID 0000.0001) //     14 -------
(PID.TID 0000.0001) //     13 -------
(PID.TID 0000.0001) //     12 -------
(PID.TID 0000.0001) //     17 -------
(PID.TID 0000.0001) //     16 -------
(PID.TID 0000.0001) //     15 -------
(PID.TID 0000.0001) //     14 -------
(PID.TID 0000.0001) //     13 -------
(PID.TID 0000.0001) //     12 -------
(PID.TID 0000.0001) //     11 -------
(PID.TID 0000.0001) //     10 -------
(PID.TID 0000.0001) //      9 -------
(PID.TID 0000.0001) //      8 -------
(PID.TID 0000.0001) //      7 -------
(PID.TID 0000.0001) //      6 -------
(PID.TID 0000.0001) //      5 -------
(PID.TID 0000.0001) //      4 -------
(PID.TID 0000.0001) //      3 -------
(PID.TID 0000.0001) //      2 -------
(PID.TID 0000.0001) //      1 .......
(PID.TID 0000.0001) //      0 .......
(PID.TID 0000.0001) //     -1 -------
(PID.TID 0000.0001) //     -2 -------
(PID.TID 0000.0001) // =======================================================
(PID.TID 0000.0001) // END OF FIELD                                          =
(PID.TID 0000.0001) // =======================================================
(PID.TID 0000.0001) 
(PID.TID 0000.0001) // =======================================================
(PID.TID 0000.0001) // Field hFacS at iteration          1
(PID.TID 0000.0001) // CMIN =          1.000000000000000E+00
(PID.TID 0000.0001) // CMAX =          1.000000000000000E+00
(PID.TID 0000.0001) // CINT =          0.000000000000000E+00
(PID.TID 0000.0001) // SYMBOLS (CMIN->CMAX): -abcdefghijklmnopqrstuvwxyz+
(PID.TID 0000.0001) //                  0.0: .
(PID.TID 0000.0001) // RANGE I (Lo:Hi:Step):(  -2:   4:   1)
(PID.TID 0000.0001) // RANGE J (Lo:Hi:Step):(  59:  -2:  -1)
(PID.TID 0000.0001) // RANGE K (Lo:Hi:Step):(   1:   1:   1)
(PID.TID 0000.0001) // =======================================================
(PID.TID 0000.0001) K =   1
(PID.TID 0000.0001) //
(PID.TID 0000.0001) // |--J--|**01234
(PID.TID 0000.0001) //     59 .......
(PID.TID 0000.0001) //     58 .......
(PID.TID 0000.0001) //     57 .......
(PID.TID 0000.0001) //     56 .......
(PID.TID 0000.0001) //     55 -------
(PID.TID 0000.0001) //     54 -------
(PID.TID 0000.0001) //     53 -------
(PID.TID 0000.0001) //     52 -------
(PID.TID 0000.0001) //     51 -------
(PID.TID 0000.0001) //     50 -------
(PID.TID 0000.0001) //     49 -------
(PID.TID 0000.0001) //     48 -------
(PID.TID 0000.0001) //     47 -------
(PID.TID 0000.0001) //     46 -------
(PID.TID 0000.0001) //     45 -------
(PID.TID 0000.0001) //     44 -------
(PID.TID 0000.0001) //     43 -------
(PID.TID 0000.0001) //     42 -------
(PID.TID 0000.0001) //     41 -------
(PID.TID 0000.0001) //     40 -------
(PID.TID 0000.0001) //     45 -------
(PID.TID 0000.0001) //     44 -------
(PID.TID 0000.0001) //     43 -------
(PID.TID 0000.0001) //     42 -------
(PID.TID 0000.0001) //     41 -------
(PID.TID 0000.0001) //     40 -------
(PID.TID 0000.0001) //     39 -------
(PID.TID 0000.0001) //     38 -------
(PID.TID 0000.0001) //     37 -------
(PID.TID 0000.0001) //     36 -------
(PID.TID 0000.0001) //     35 -------
(PID.TID 0000.0001) //     34 -------
(PID.TID 0000.0001) //     33 -------
(PID.TID 0000.0001) //     32 -------
(PID.TID 0000.0001) //     31 -------
(PID.TID 0000.0001) //     30 -------
(PID.TID 0000.0001) //     29 -------
(PID.TID 0000.0001) //     28 -------
(PID.TID 0000.0001) //     27 -------
(PID.TID 0000.0001) //     26 -------
(PID.TID 0000.0001) //     31 -------
(PID.TID 0000.0001) //     30 -------
(PID.TID 0000.0001) //     29 -------
(PID.TID 0000.0001) //     28 -------
(PID.TID 0000.0001) //     27 -------
(PID.TID 0000.0001) //     26 -------
(PID.TID 0000.0001) //     25 -------
(PID.TID 0000.0001) //     24 -------
(PID.TID 0000.0001) //     23 -------
(PID.TID 0000.0001) //     22 -------
(PID.TID 0000.0001) //     21 -------
(PID.TID 0000.0001) //     20 -------
(PID.TID 0000.0001) //     19 -------
(PID.TID 0000.0001) //     18 -------
(PID.TID 0000.0001) //     17 -------
(PID.TID 0000.0001) //     16 -------
(PID.TID 0000.0001) //     15 -------
(PID.TID 0000.0001) //     14 -------
(PID.TID 0000.0001) //     13 -------
(PID.TID 0000.0001) //     12 -------
(PID.TID 0000.0001) //     17 -------
(PID.TID 0000.0001) //     16 -------
(PID.TID 0000.0001) //     15 -------
(PID.TID 0000.0001) //     14 -------
(PID.TID 0000.0001) //     13 -------
(PID.TID 0000.0001) //     12 -------
(PID.TID 0000.0001) //     11 -------
(PID.TID 0000.0001) //     10 -------
(PID.TID 0000.0001) //      9 -------
(PID.TID 0000.0001) //      8 -------
(PID.TID 0000.0001) //      7 -------
(PID.TID 0000.0001) //      6 -------
(PID.TID 0000.0001) //      5 -------
(PID.TID 0000.0001) //      4 -------
(PID.TID 0000.0001) //      3 -------
(PID.TID 0000.0001) //      2 .......
(PID.TID 0000.0001) //      1 .......
(PID.TID 0000.0001) //      0 .......
(PID.TID 0000.0001) //     -1 .......
(PID.TID 0000.0001) //     -2 .......
(PID.TID 0000.0001) // =======================================================
(PID.TID 0000.0001) // END OF FIELD                                          =
(PID.TID 0000.0001) // =======================================================
(PID.TID 0000.0001) 
(PID.TID 0000.0001)  PACKAGES_BOOT: opening data.pkg
(PID.TID 0000.0001)  OPEN_COPY_DATA_FILE: opening file data.pkg
(PID.TID 0000.0001) // =======================================================
(PID.TID 0000.0001) // Parameter file "data.pkg"
(PID.TID 0000.0001) // =======================================================
(PID.TID 0000.0001) ># Packages
(PID.TID 0000.0001) > &PACKAGES
(PID.TID 0000.0001) > useGMRedi=.TRUE.,
(PID.TID 0000.0001) > &
(PID.TID 0000.0001) >
(PID.TID 0000.0001) 
(PID.TID 0000.0001)  PACKAGES_BOOT: finished reading data.pkg
(PID.TID 0000.0001)  GM_READPARMS: opening data.gmredi
(PID.TID 0000.0001)  OPEN_COPY_DATA_FILE: opening file data.gmredi
(PID.TID 0000.0001) // =======================================================
(PID.TID 0000.0001) // Parameter file "data.gmredi"
(PID.TID 0000.0001) // =======================================================
(PID.TID 0000.0001) ># from MOM
(PID.TID 0000.0001) ># GM_background_K: 	isopycnal diffusion coefficien
(PID.TID 0000.0001) ># GM_maxSlope:		max slope of isopycnals
(PID.TID 0000.0001) ># GM_Scrit:		transition for scaling diffusion coefficient
(PID.TID 0000.0001) ># GM_Sd:		half width scaling for diffusion coefficient
(PID.TID 0000.0001) ># real background diff:	horizontal diffusion
(PID.TID 0000.0001) >
(PID.TID 0000.0001) ># ifdef GM_VISBECK_VARIABLE_K, include following in GM_PARM01
(PID.TID 0000.0001) ># GM_Visbeck_alpha   = 0.,
(PID.TID 0000.0001) ># GM_Visbeck_length  = 2.e+5,
(PID.TID 0000.0001) ># GM_Visbeck_depth   = 1.e+3,
(PID.TID 0000.0001) ># GM_Visbeck_maxval_K= 2.5e+3,
(PID.TID 0000.0001) >
(PID.TID 0000.0001) > &GM_PARM01
(PID.TID 0000.0001) >  GM_AdvForm=.TRUE.,
(PID.TID 0000.0001) ># GM_AdvSeparate=.TRUE.,
(PID.TID 0000.0001) ># GM_background_K=1000.,
(PID.TID 0000.0001) >  GM_background_K=10.,
(PID.TID 0000.0001) ># GM_isopycK=1000.,
(PID.TID 0000.0001) ># GM_taper_scheme    = 'clipping',
(PID.TID 0000.0001) >  GM_taper_scheme    = 'linear',
(PID.TID 0000.0001) ># GM_taper_scheme    = 'gkw91',
(PID.TID 0000.0001) ># GM_taper_scheme    = 'ldd97',
(PID.TID 0000.0001) >  GM_maxSlope        = 1.e-2,
(PID.TID 0000.0001) >  GM_Scrit           = 4.e-3,
(PID.TID 0000.0001) >  GM_Sd              = 1.e-3,
(PID.TID 0000.0001) >  GM_Visbeck_alpha   = 1.e-2,
(PID.TID 0000.0001) >  GM_Visbeck_length  = 2.e+5,
(PID.TID 0000.0001) >  GM_Visbeck_depth   = 1.e+3,
(PID.TID 0000.0001) >  GM_Visbeck_maxval_K= 2.5e+3,
(PID.TID 0000.0001) > &end
(PID.TID 0000.0001) >
(PID.TID 0000.0001) >
(PID.TID 0000.0001) 
(PID.TID 0000.0001)  GM_READPARMS: finished reading data.gmredi
(PID.TID 0000.0001) GMREDI_CHECK: #define GMREDI
(PID.TID 0000.0001) GM_AdvForm =  /* if FALSE => use SkewFlux Form */
(PID.TID 0000.0001)                   T
(PID.TID 0000.0001)     ;
(PID.TID 0000.0001) GM_AdvSeparate = /* Calc Bolus & Euler Adv. separately */
(PID.TID 0000.0001)                   F
(PID.TID 0000.0001)     ;
(PID.TID 0000.0001) GM_ExtraDiag =  /* Tensor Extra Diag (line 1&2) non 0 */
(PID.TID 0000.0001)                   T
(PID.TID 0000.0001)     ;
(PID.TID 0000.0001) GM_isopycK =   /* Background Isopyc. Diffusivity ( m^2/s ) */
(PID.TID 0000.0001)                 1.000000000000000E+01
(PID.TID 0000.0001)     ;
(PID.TID 0000.0001)  GM_skewflx*K =   /* Background GM_SkewFlx Diffusivity ( m^2/s ) */
(PID.TID 0000.0001)                 0.000000000000000E+00
(PID.TID 0000.0001)     ;
(PID.TID 0000.0001)  GM_advec*K =   /* Backg. GM-Advec(=Bolus) Diffusivity ( m^2/s ) */
(PID.TID 0000.0001)                 1.000000000000000E+01
(PID.TID 0000.0001)     ;
(PID.TID 0000.0001)  GM_Visbeck_alpha =   /* Visbeck alpha coeff. ( ) */
(PID.TID 0000.0001)                 1.000000000000000E-02
(PID.TID 0000.0001)     ;
(PID.TID 0000.0001)  Tapering/Cliping : linear
(PID.TID 0000.0001)  GM_Small_Number =  /* epsilon used in slope calc */
(PID.TID 0000.0001)                 1.000000000000000E-12
(PID.TID 0000.0001)     ;
(PID.TID 0000.0001)  GM_slopeSqCutoff =  /* Slope^2 cut-off value */
(PID.TID 0000.0001)                 1.000000000000000E+48
(PID.TID 0000.0001)     ;
(PID.TID 0000.0001) 
(PID.TID 0000.0001) // ===================================
(PID.TID 0000.0001) // GAD parameters :
(PID.TID 0000.0001) // ===================================
(PID.TID 0000.0001) tempAdvScheme =   /* Temp. advection scheme selector */
(PID.TID 0000.0001)                      77
(PID.TID 0000.0001)     ;
(PID.TID 0000.0001) tempMultiDimAdvec =   /* use Muti-Dim Advec method for Temp */
(PID.TID 0000.0001)                   T
(PID.TID 0000.0001)     ;
(PID.TID 0000.0001) tempAdamsBashforth =   /* use Adams-Bashforth time-stepping for Temp */
(PID.TID 0000.0001)                   F
(PID.TID 0000.0001)     ;
(PID.TID 0000.0001) saltAdvScheme =   /* Salt. advection scheme selector */
(PID.TID 0000.0001)                       2
(PID.TID 0000.0001)     ;
(PID.TID 0000.0001) saltMultiDimAdvec =   /* use Muti-Dim Advec method for Salt */
(PID.TID 0000.0001)                   F
(PID.TID 0000.0001)     ;
(PID.TID 0000.0001) saltAdamsBashforth =   /* use Adams-Bashforth time-stepping for Salt */
(PID.TID 0000.0001)                   T
(PID.TID 0000.0001)     ;
(PID.TID 0000.0001) // ===================================
(PID.TID 0000.0001) %MON fCori_max                    =   1.4419980985793E-04
(PID.TID 0000.0001) %MON fCori_min                    =  -1.4419980985793E-04
(PID.TID 0000.0001) %MON fCori_mean                   =   4.8401882700246E-22
(PID.TID 0000.0001) %MON fCori_sd                     =   9.9129524406610E-05
(PID.TID 0000.0001) %MON fCoriG_max                   =   1.4365344605787E-04
(PID.TID 0000.0001) %MON fCoriG_min                   =  -1.4464734631126E-04
(PID.TID 0000.0001) %MON fCoriG_mean                  =  -2.6299517511138E-06
(PID.TID 0000.0001) %MON fCoriG_sd                    =   9.9997297738060E-05
(PID.TID 0000.0001) %MON fCoriCos_max                 =   1.4539426427085E-04
(PID.TID 0000.0001) %MON fCoriCos_min                 =   1.8984265119424E-05
(PID.TID 0000.0001) %MON fCoriCos_mean                =   9.8674157759248E-05
(PID.TID 0000.0001) %MON fCoriCos_sd                  =   3.9884025205722E-05
(PID.TID 0000.0001) // CG2D normalisation factor =          0.3504529336387451438029547E-04
(PID.TID 0000.0001) 
 ini_cg2d: sumArea,cg2dTolerance =  4.19688829104880E+12  1.22567651146013E-12
(PID.TID 0000.0001) CONFIG_CHECK: OK
(PID.TID 0000.0001) // =======================================================
(PID.TID 0000.0001) // Model configuration
(PID.TID 0000.0001) // =======================================================
(PID.TID 0000.0001) //
(PID.TID 0000.0001) // "Physical" paramters ( PARM01 in namelist )
(PID.TID 0000.0001) //
(PID.TID 0000.0001) buoyancyRelation = OCEANIC
(PID.TID 0000.0001) tRef =   /* Reference temperature profile ( oC or oK ) */
(PID.TID 0000.0001)                 1.880000000000000E+01,      /* K =  1 */
(PID.TID 0000.0001)                 1.630000000000000E+01,      /* K =  2 */
(PID.TID 0000.0001)                 1.310000000000000E+01,      /* K =  3 */
(PID.TID 0000.0001)                 1.040000000000000E+01,      /* K =  4 */
(PID.TID 0000.0001)                 8.100000000000000E+00,      /* K =  5 */
(PID.TID 0000.0001)                 6.000000000000000E+00,      /* K =  6 */
(PID.TID 0000.0001)                 4.500000000000000E+00,      /* K =  7 */
(PID.TID 0000.0001)                 3.400000000000000E+00,      /* K =  8 */
(PID.TID 0000.0001)                 2.700000000000000E+00,      /* K =  9 */
(PID.TID 0000.0001)                 2.200000000000000E+00,      /* K = 10 */
(PID.TID 0000.0001)                 1.800000000000000E+00,      /* K = 11 */
(PID.TID 0000.0001)                 1.500000000000000E+00,      /* K = 12 */
(PID.TID 0000.0001)                 1.200000000000000E+00,      /* K = 13 */
(PID.TID 0000.0001)                 1.000000000000000E+00,      /* K = 14 */
(PID.TID 0000.0001)                 9.000000000000000E-01       /* K = 15 */
(PID.TID 0000.0001)     ;
(PID.TID 0000.0001) sRef =   /* Reference salinity profile ( ppt ) */
(PID.TID 0000.0001)    15 @  3.470000000000000E+01              /* K =  1: 15 */
(PID.TID 0000.0001)     ;
(PID.TID 0000.0001) viscAh =   /* Lateral eddy viscosity ( m^2/s ) */
(PID.TID 0000.0001)                 1.200000000000000E+06
(PID.TID 0000.0001)     ;
(PID.TID 0000.0001) viscAh =   /* Lateral biharmonic viscosity ( m^4/s ) */
(PID.TID 0000.0001)                 0.000000000000000E+00
(PID.TID 0000.0001)     ;
(PID.TID 0000.0001) no_slip_sides =  /* Viscous BCs: No-slip sides */
(PID.TID 0000.0001)                   F
(PID.TID 0000.0001)     ;
(PID.TID 0000.0001) viscAz =   /* Vertical eddy viscosity ( m^2/s ) */
(PID.TID 0000.0001)                 1.000000000000000E-03
(PID.TID 0000.0001)     ;
(PID.TID 0000.0001) viscAr =   /* Vertical eddy viscosity ( units of r^2/s ) */
(PID.TID 0000.0001)                 1.000000000000000E-03
(PID.TID 0000.0001)     ;
(PID.TID 0000.0001) diffKhT =   /* Laplacian diffusion of heat laterally ( m^2/s ) */
(PID.TID 0000.0001)                 0.000000000000000E+00
(PID.TID 0000.0001)     ;
(PID.TID 0000.0001) diffK4T =   /* Bihaarmonic diffusion of heat laterally ( m^4/s ) */
(PID.TID 0000.0001)                 0.000000000000000E+00
(PID.TID 0000.0001)     ;
(PID.TID 0000.0001) diffKzT =   /* Laplacian diffusion of heat vertically ( m^2/s ) */
(PID.TID 0000.0001)                 1.000000000000000E-05
(PID.TID 0000.0001)     ;
(PID.TID 0000.0001) diffKrT =   /* Laplacian diffusion of heat vertically ( m^2/s ) */
(PID.TID 0000.0001)                 1.000000000000000E-05
(PID.TID 0000.0001)     ;
(PID.TID 0000.0001) diffKhS =   /* Laplacian diffusion of salt laterally ( m^2/s ) */
(PID.TID 0000.0001)                 0.000000000000000E+00
(PID.TID 0000.0001)     ;
(PID.TID 0000.0001) diffK4S =   /* Bihaarmonic diffusion of salt laterally ( m^4/s ) */
(PID.TID 0000.0001)                 0.000000000000000E+00
(PID.TID 0000.0001)     ;
(PID.TID 0000.0001) diffKzS =   /* Laplacian diffusion of salt vertically ( m^2/s ) */
(PID.TID 0000.0001)                 1.234567000000000E+05
(PID.TID 0000.0001)     ;
(PID.TID 0000.0001) diffKrS =   /* Laplacian diffusion of salt vertically ( m^2/s ) */
(PID.TID 0000.0001)                 0.000000000000000E+00
(PID.TID 0000.0001)     ;
(PID.TID 0000.0001)  Equation of State : eosType = LINEAR
(PID.TID 0000.0001) tAlpha =   /* Linear EOS thermal expansion coefficient ( 1/degree ) */
(PID.TID 0000.0001)                 2.000000000000000E-04
(PID.TID 0000.0001)     ;
(PID.TID 0000.0001) sBeta =   /* Linear EOS haline contraction coefficient ( 1/ppt ) */
(PID.TID 0000.0001)                 0.000000000000000E+00
(PID.TID 0000.0001)     ;
(PID.TID 0000.0001) rhonil =   /* Reference density ( kg/m^3 ) */
(PID.TID 0000.0001)                 1.035000000000000E+03
(PID.TID 0000.0001)     ;
(PID.TID 0000.0001) rhoConst =   /* Reference density ( kg/m^3 ) */
(PID.TID 0000.0001)                 1.035000000000000E+03
(PID.TID 0000.0001)     ;
(PID.TID 0000.0001) rhoConstFresh =   /* Reference density ( kg/m^3 ) */
(PID.TID 0000.0001)                 9.998000000000000E+02
(PID.TID 0000.0001)     ;
(PID.TID 0000.0001) gravity =   /* Gravitational acceleration ( m/s^2 ) */
(PID.TID 0000.0001)                 9.810000000000000E+00
(PID.TID 0000.0001)     ;
(PID.TID 0000.0001) gBaro =   /* Barotropic gravity ( m/s^2 ) */
(PID.TID 0000.0001)                 9.810000000000000E+00
(PID.TID 0000.0001)     ;
(PID.TID 0000.0001) rotationPeriod =   /* Rotation Period ( s ) */
(PID.TID 0000.0001)                 8.640000000000000E+04
(PID.TID 0000.0001)     ;
(PID.TID 0000.0001) omega =   /* Angular velocity ( rad/s ) */
(PID.TID 0000.0001)                 7.272205216643040E-05
(PID.TID 0000.0001)     ;
(PID.TID 0000.0001) f0 =   /* Reference coriolis parameter ( 1/s ) */
(PID.TID 0000.0001)                 1.000000000000000E-04
(PID.TID 0000.0001)     ;
(PID.TID 0000.0001) beta =   /* Beta ( 1/(m.s) ) */
(PID.TID 0000.0001)                 9.999999999999999E-12
(PID.TID 0000.0001)     ;
(PID.TID 0000.0001) freeSurfFac =   /* Implicit free surface factor */
(PID.TID 0000.0001)                 1.000000000000000E+00
(PID.TID 0000.0001)     ;
(PID.TID 0000.0001) implicitFreeSurface =   /* Implicit free surface on/off flag */
(PID.TID 0000.0001)                   T
(PID.TID 0000.0001)     ;
(PID.TID 0000.0001) rigidLid =   /* Rigid lid on/off flag */
(PID.TID 0000.0001)                   F
(PID.TID 0000.0001)     ;
(PID.TID 0000.0001) implicSurfPress =   /* Surface Pressure implicit factor (0-1)*/
(PID.TID 0000.0001)                 1.000000000000000E+00
(PID.TID 0000.0001)     ;
(PID.TID 0000.0001) implicDiv2Dflow =   /* Barot. Flow Div. implicit factor (0-1)*/
(PID.TID 0000.0001)                 1.000000000000000E+00
(PID.TID 0000.0001)     ;
(PID.TID 0000.0001) exactConserv =   /* Exact Volume Conservation on/off flag*/
(PID.TID 0000.0001)                   T
(PID.TID 0000.0001)     ;
(PID.TID 0000.0001) uniformLin_PhiSurf =   /* use uniform Bo_surf on/off flag*/
(PID.TID 0000.0001)                   T
(PID.TID 0000.0001)     ;
(PID.TID 0000.0001) nonlinFreeSurf =   /* Non-linear Free Surf. options (-1,0,1,2,3)*/
(PID.TID 0000.0001)                       0
(PID.TID 0000.0001)     ;
(PID.TID 0000.0001)      -1,0= Off ; 1,2,3= On, 2=+rescale gU,gV, 3=+update cg2d solv.
(PID.TID 0000.0001) hFacInf =   /* lower threshold for hFac (nonlinFreeSurf only)*/
(PID.TID 0000.0001)                 2.000000000000000E-01
(PID.TID 0000.0001)     ;
(PID.TID 0000.0001) hFacSup =   /* upper threshold for hFac (nonlinFreeSurf only)*/
(PID.TID 0000.0001)                 2.000000000000000E+00
(PID.TID 0000.0001)     ;
(PID.TID 0000.0001) select_rStar =   /* r* Coordinate options (not yet implemented)*/
(PID.TID 0000.0001)                       0
(PID.TID 0000.0001)     ;
(PID.TID 0000.0001) useRealFreshWaterFlux =   /* Real Fresh Water Flux on/off flag*/
(PID.TID 0000.0001)                   F
(PID.TID 0000.0001)     ;
(PID.TID 0000.0001) convertFW2Salt = /* convert F.W. Flux to Salt Flux (-1=use local S)(ppt)*/
(PID.TID 0000.0001)                 3.500000000000000E+01
(PID.TID 0000.0001)     ;
(PID.TID 0000.0001) multiDimAdvection =   /* enable/disable Multi-Dim Advection */
(PID.TID 0000.0001)                   T
(PID.TID 0000.0001)     ;
(PID.TID 0000.0001) staggerTimeStep =   /* Stagger time stepping on/off flag */
(PID.TID 0000.0001)                   T
(PID.TID 0000.0001)     ;
(PID.TID 0000.0001) momStepping =  /* Momentum equation on/off flag */
(PID.TID 0000.0001)                   T
(PID.TID 0000.0001)     ;
(PID.TID 0000.0001) momAdvection =  /* Momentum advection on/off flag */
(PID.TID 0000.0001)                   T
(PID.TID 0000.0001)     ;
(PID.TID 0000.0001) momViscosity =  /* Momentum viscosity on/off flag */
(PID.TID 0000.0001)                   T
(PID.TID 0000.0001)     ;
(PID.TID 0000.0001) useCoriolis =  /* Coriolis on/off flag */
(PID.TID 0000.0001)                   T
(PID.TID 0000.0001)     ;
(PID.TID 0000.0001) momForcing =  /* Momentum forcing on/off flag */
(PID.TID 0000.0001)                   T
(PID.TID 0000.0001)     ;
(PID.TID 0000.0001) momPressureForcing =  /* Momentum pressure term on/off flag */
(PID.TID 0000.0001)                   T
(PID.TID 0000.0001)     ;
(PID.TID 0000.0001) tempStepping =  /* Temperature equation on/off flag */
(PID.TID 0000.0001)                   T
(PID.TID 0000.0001)     ;
(PID.TID 0000.0001) tempAdvection=  /* Temperature advection on/off flag */
(PID.TID 0000.0001)                   T
(PID.TID 0000.0001)     ;
(PID.TID 0000.0001) tempForcing  =  /* Temperature forcing on/off flag */
(PID.TID 0000.0001)                   T
(PID.TID 0000.0001)     ;
(PID.TID 0000.0001) saltStepping =  /* Salinity equation on/off flag */
(PID.TID 0000.0001)                   F
(PID.TID 0000.0001)     ;
(PID.TID 0000.0001) saltAdvection=  /* Salinity advection on/off flag */
(PID.TID 0000.0001)                   F
(PID.TID 0000.0001)     ;
(PID.TID 0000.0001) saltForcing  =  /* Salinity forcing on/off flag */
(PID.TID 0000.0001)                   F
(PID.TID 0000.0001)     ;
(PID.TID 0000.0001) nonHydrostatic =  /* Non-Hydrostatic on/off flag */
(PID.TID 0000.0001)                   F
(PID.TID 0000.0001)     ;
(PID.TID 0000.0001) useCDscheme =  /* CD scheme on/off flag */
(PID.TID 0000.0001)                   T
(PID.TID 0000.0001)     ;
(PID.TID 0000.0001) useJamartWetPoints= /* Coriolis WetPoints method flag */
(PID.TID 0000.0001)                   F
(PID.TID 0000.0001)     ;
(PID.TID 0000.0001) //
(PID.TID 0000.0001) // Elliptic solver(s) paramters ( PARM02 in namelist )
(PID.TID 0000.0001) //
(PID.TID 0000.0001) cg2dMaxIters =   /* Upper limit on 2d con. grad iterations  */
(PID.TID 0000.0001)                    1000
(PID.TID 0000.0001)     ;
(PID.TID 0000.0001) cg2dChkResFreq =   /* 2d con. grad convergence test frequency */
(PID.TID 0000.0001)                       1
(PID.TID 0000.0001)     ;
(PID.TID 0000.0001) cg2dTargetResidual =   /* 2d con. grad target residual  */
(PID.TID 0000.0001)                 1.000000000000000E-07
(PID.TID 0000.0001)     ;
(PID.TID 0000.0001) //
(PID.TID 0000.0001) // Time stepping paramters ( PARM03 in namelist )
(PID.TID 0000.0001) //
(PID.TID 0000.0001) nIter0 =   /* Base timestep number  */
(PID.TID 0000.0001)                   36000
(PID.TID 0000.0001)     ;
(PID.TID 0000.0001) nTimeSteps =   /* Number of timesteps */
(PID.TID 0000.0001)                      20
(PID.TID 0000.0001)     ;
(PID.TID 0000.0001) deltatTmom =   /* Momentum equation timestep ( s ) */
(PID.TID 0000.0001)                 1.200000000000000E+03
(PID.TID 0000.0001)     ;
(PID.TID 0000.0001) deltaTfreesurf =   /* FreeSurface equation timestep ( s ) */
(PID.TID 0000.0001)                 3.600000000000000E+03
(PID.TID 0000.0001)     ;
(PID.TID 0000.0001) deltatTtracer =   /* Tracer equation timestep ( s ) */
(PID.TID 0000.0001)                 8.640000000000000E+04
(PID.TID 0000.0001)     ;
(PID.TID 0000.0001) deltatTClock  =   /* Model clock timestep ( s ) */
(PID.TID 0000.0001)                 8.640000000000000E+04
(PID.TID 0000.0001)     ;
(PID.TID 0000.0001) cAdjFreq =   /* Convective adjustment interval ( s ) */
(PID.TID 0000.0001)                 0.000000000000000E+00
(PID.TID 0000.0001)     ;
(PID.TID 0000.0001) forcing_In_AB =   /* put T,S Forcing in Adams-Bash. stepping */
(PID.TID 0000.0001)                   T
(PID.TID 0000.0001)     ;
(PID.TID 0000.0001) abeps =   /* Adams-Bashforth stabilizing weight */
(PID.TID 0000.0001)                 1.000000000000000E-01
(PID.TID 0000.0001)     ;
(PID.TID 0000.0001) tauCD =   /* CD coupling time-scale ( s ) */
(PID.TID 0000.0001)                 3.214280000000000E+05
(PID.TID 0000.0001)     ;
(PID.TID 0000.0001) rCD =   /* Normalised CD coupling parameter */
(PID.TID 0000.0001)                 9.962666600296178E-01
(PID.TID 0000.0001)     ;
(PID.TID 0000.0001) startTime =   /* Run start time ( s ). */
(PID.TID 0000.0001)                 3.110400000000000E+09
(PID.TID 0000.0001)     ;
(PID.TID 0000.0001) endTime =   /* Integration ending time ( s ). */
(PID.TID 0000.0001)                 3.112128000000000E+09
(PID.TID 0000.0001)     ;
(PID.TID 0000.0001) pChkPtFreq =   /* Permanent restart/checkpoint file interval ( s ). */
(PID.TID 0000.0001)                 3.110400000000000E+09
(PID.TID 0000.0001)     ;
(PID.TID 0000.0001) chkPtFreq =   /* Rolling restart/checkpoint file interval ( s ). */
(PID.TID 0000.0001)                 0.000000000000000E+00
(PID.TID 0000.0001)     ;
(PID.TID 0000.0001) dumpFreq =   /* Model state write out interval ( s ). */
(PID.TID 0000.0001)                 1.555200000000000E+09
(PID.TID 0000.0001)     ;
(PID.TID 0000.0001) //
(PID.TID 0000.0001) // Gridding paramters ( PARM04 in namelist )
(PID.TID 0000.0001) //
(PID.TID 0000.0001) usingCartesianGrid =   /* Cartesian coordinates flag ( True / False ) */
(PID.TID 0000.0001)                   F
(PID.TID 0000.0001)     ;
(PID.TID 0000.0001) usingSphericalPolarGrid =   /* Spherical coordinates flag ( True / False ) */
(PID.TID 0000.0001)                   T
(PID.TID 0000.0001)     ;
(PID.TID 0000.0001) groundAtK1 =   /* Lower Boundary (ground) at the surface(k=1) ( T / F ) */
(PID.TID 0000.0001)                   F
(PID.TID 0000.0001)     ;
(PID.TID 0000.0001) Ro_SeaLevel =   /* r(1) ( units of r ) */
(PID.TID 0000.0001)                 0.000000000000000E+00
(PID.TID 0000.0001)     ;
(PID.TID 0000.0001) rkFac =   /* minus Vertical index orientation  */
(PID.TID 0000.0001)                 1.000000000000000E+00
(PID.TID 0000.0001)     ;
(PID.TID 0000.0001) horiVertRatio =   /* Ratio on units : Horiz - Vertical */
(PID.TID 0000.0001)                 1.000000000000000E+00
(PID.TID 0000.0001)     ;
(PID.TID 0000.0001) drC =   /* C spacing ( units of r ) */
(PID.TID 0000.0001)                 2.000000000000000E+01,      /* K =  1 */
(PID.TID 0000.0001)                 6.000000000000000E+01,      /* K =  2 */
(PID.TID 0000.0001)                 8.500000000000000E+01,      /* K =  3 */
(PID.TID 0000.0001)                 1.200000000000000E+02,      /* K =  4 */
(PID.TID 0000.0001)                 1.650000000000000E+02,      /* K =  5 */
(PID.TID 0000.0001)                 2.150000000000000E+02,      /* K =  6 */
(PID.TID 0000.0001)                 2.650000000000000E+02,      /* K =  7 */
(PID.TID 0000.0001)                 3.150000000000000E+02,      /* K =  8 */
(PID.TID 0000.0001)                 3.650000000000000E+02,      /* K =  9 */
(PID.TID 0000.0001)                 4.150000000000000E+02,      /* K = 10 */
(PID.TID 0000.0001)                 4.650000000000000E+02,      /* K = 11 */
(PID.TID 0000.0001)                 5.150000000000000E+02,      /* K = 12 */
(PID.TID 0000.0001)                 5.650000000000000E+02,      /* K = 13 */
(PID.TID 0000.0001)                 6.150000000000000E+02,      /* K = 14 */
(PID.TID 0000.0001)                 6.650000000000000E+02       /* K = 15 */
(PID.TID 0000.0001)     ;
(PID.TID 0000.0001) drF =   /* W spacing ( units of r ) */
(PID.TID 0000.0001)                 5.000000000000000E+01,      /* K =  1 */
(PID.TID 0000.0001)                 7.250000000000000E+01,      /* K =  2 */
(PID.TID 0000.0001)                 1.025000000000000E+02,      /* K =  3 */
(PID.TID 0000.0001)                 1.425000000000000E+02,      /* K =  4 */
(PID.TID 0000.0001)                 1.900000000000000E+02,      /* K =  5 */
(PID.TID 0000.0001)                 2.400000000000000E+02,      /* K =  6 */
(PID.TID 0000.0001)                 2.900000000000000E+02,      /* K =  7 */
(PID.TID 0000.0001)                 3.400000000000000E+02,      /* K =  8 */
(PID.TID 0000.0001)                 3.900000000000000E+02,      /* K =  9 */
(PID.TID 0000.0001)                 4.400000000000000E+02,      /* K = 10 */
(PID.TID 0000.0001)                 4.900000000000000E+02,      /* K = 11 */
(PID.TID 0000.0001)                 5.400000000000000E+02,      /* K = 12 */
(PID.TID 0000.0001)                 5.900000000000000E+02,      /* K = 13 */
(PID.TID 0000.0001)                 6.400000000000000E+02,      /* K = 14 */
(PID.TID 0000.0001)                 6.825000000000000E+02       /* K = 15 */
(PID.TID 0000.0001)     ;
(PID.TID 0000.0001) delX =   /* U spacing ( m - cartesian, degrees - spherical ) */
(PID.TID 0000.0001)                 3.000000000000000E+00       /* I =  1 */
(PID.TID 0000.0001)     ;
(PID.TID 0000.0001) delY =   /* V spacing ( m - cartesian, degrees - spherical ) */
(PID.TID 0000.0001)    56 @  3.000000000000000E+00              /* J =  1: 56 */
(PID.TID 0000.0001)     ;
(PID.TID 0000.0001) phiMin =    /* South edge (ignored - cartesian, degrees - spherical ) */
(PID.TID 0000.0001)                -8.400000000000000E+01
(PID.TID 0000.0001)     ;
(PID.TID 0000.0001) thetaMin =    /* West edge ( ignored - cartesian, degrees - spherical ) */
(PID.TID 0000.0001)                 0.000000000000000E+00
(PID.TID 0000.0001)     ;
(PID.TID 0000.0001) rSphere =    /* Radius ( ignored - cartesian, m - spherical ) */
(PID.TID 0000.0001)                 6.370000000000000E+06
(PID.TID 0000.0001)     ;
(PID.TID 0000.0001) xcoord =   /* P-point X coord ( m - cartesian, degrees - spherical ) */
(PID.TID 0000.0001)                 1.500000000000000E+00       /* I =  1 */
(PID.TID 0000.0001)     ;
(PID.TID 0000.0001) ycoord =   /* P-point Y coord ( m - cartesian, degrees - spherical ) */
(PID.TID 0000.0001)                -8.250000000000000E+01,      /* J =  1 */
(PID.TID 0000.0001)                -7.950000000000000E+01,      /* J =  2 */
(PID.TID 0000.0001)                -7.650000000000000E+01,      /* J =  3 */
(PID.TID 0000.0001)                -7.350000000000000E+01,      /* J =  4 */
(PID.TID 0000.0001)                -7.050000000000000E+01,      /* J =  5 */
(PID.TID 0000.0001)                -6.750000000000000E+01,      /* J =  6 */
(PID.TID 0000.0001)                -6.450000000000000E+01,      /* J =  7 */
(PID.TID 0000.0001)                -6.150000000000000E+01,      /* J =  8 */
(PID.TID 0000.0001)                -5.850000000000000E+01,      /* J =  9 */
(PID.TID 0000.0001)                -5.550000000000000E+01,      /* J = 10 */
(PID.TID 0000.0001)                -5.250000000000000E+01,      /* J = 11 */
(PID.TID 0000.0001)                -4.950000000000000E+01,      /* J = 12 */
(PID.TID 0000.0001)                -4.650000000000000E+01,      /* J = 13 */
(PID.TID 0000.0001)                -4.350000000000000E+01,      /* J = 14 */
(PID.TID 0000.0001)                -4.050000000000000E+01,      /* J = 15 */
(PID.TID 0000.0001)                -3.750000000000000E+01,      /* J = 16 */
(PID.TID 0000.0001)                -3.450000000000000E+01,      /* J = 17 */
(PID.TID 0000.0001)                -3.150000000000000E+01,      /* J = 18 */
(PID.TID 0000.0001)                -2.850000000000000E+01,      /* J = 19 */
(PID.TID 0000.0001)                -2.550000000000000E+01,      /* J = 20 */
(PID.TID 0000.0001)                -2.250000000000000E+01,      /* J = 21 */
(PID.TID 0000.0001)                -1.950000000000000E+01,      /* J = 22 */
(PID.TID 0000.0001)                -1.650000000000000E+01,      /* J = 23 */
(PID.TID 0000.0001)                -1.350000000000000E+01,      /* J = 24 */
(PID.TID 0000.0001)                -1.050000000000000E+01,      /* J = 25 */
(PID.TID 0000.0001)                -7.500000000000000E+00,      /* J = 26 */
(PID.TID 0000.0001)                -4.500000000000000E+00,      /* J = 27 */
(PID.TID 0000.0001)                -1.500000000000000E+00,      /* J = 28 */
(PID.TID 0000.0001)                 1.500000000000000E+00,      /* J = 29 */
(PID.TID 0000.0001)                 4.500000000000000E+00,      /* J = 30 */
(PID.TID 0000.0001)                 7.500000000000000E+00,      /* J = 31 */
(PID.TID 0000.0001)                 1.050000000000000E+01,      /* J = 32 */
(PID.TID 0000.0001)                 1.350000000000000E+01,      /* J = 33 */
(PID.TID 0000.0001)                 1.650000000000000E+01,      /* J = 34 */
(PID.TID 0000.0001)                 1.950000000000000E+01,      /* J = 35 */
(PID.TID 0000.0001)                 2.250000000000000E+01,      /* J = 36 */
(PID.TID 0000.0001)                 2.550000000000000E+01,      /* J = 37 */
(PID.TID 0000.0001)                 2.850000000000000E+01,      /* J = 38 */
(PID.TID 0000.0001)                 3.150000000000000E+01,      /* J = 39 */
(PID.TID 0000.0001)                 3.450000000000000E+01,      /* J = 40 */
(PID.TID 0000.0001)                 3.750000000000000E+01,      /* J = 41 */
(PID.TID 0000.0001)                 4.050000000000000E+01,      /* J = 42 */
(PID.TID 0000.0001)                 4.350000000000000E+01,      /* J = 43 */
(PID.TID 0000.0001)                 4.650000000000000E+01,      /* J = 44 */
(PID.TID 0000.0001)                 4.950000000000000E+01,      /* J = 45 */
(PID.TID 0000.0001)                 5.250000000000000E+01,      /* J = 46 */
(PID.TID 0000.0001)                 5.550000000000000E+01,      /* J = 47 */
(PID.TID 0000.0001)                 5.850000000000000E+01,      /* J = 48 */
(PID.TID 0000.0001)                 6.150000000000000E+01,      /* J = 49 */
(PID.TID 0000.0001)                 6.450000000000000E+01,      /* J = 50 */
(PID.TID 0000.0001)                 6.750000000000000E+01,      /* J = 51 */
(PID.TID 0000.0001)                 7.050000000000000E+01,      /* J = 52 */
(PID.TID 0000.0001)                 7.350000000000000E+01,      /* J = 53 */
(PID.TID 0000.0001)                 7.650000000000000E+01,      /* J = 54 */
(PID.TID 0000.0001)                 7.950000000000000E+01,      /* J = 55 */
(PID.TID 0000.0001)                 8.250000000000000E+01       /* J = 56 */
(PID.TID 0000.0001)     ;
(PID.TID 0000.0001) rcoord =   /* P-point R coordinate (  units of r ) */
(PID.TID 0000.0001)                -2.000000000000000E+01,      /* K =  1 */
(PID.TID 0000.0001)                -8.000000000000000E+01,      /* K =  2 */
(PID.TID 0000.0001)                -1.650000000000000E+02,      /* K =  3 */
(PID.TID 0000.0001)                -2.850000000000000E+02,      /* K =  4 */
(PID.TID 0000.0001)                -4.500000000000000E+02,      /* K =  5 */
(PID.TID 0000.0001)                -6.650000000000000E+02,      /* K =  6 */
(PID.TID 0000.0001)                -9.300000000000000E+02,      /* K =  7 */
(PID.TID 0000.0001)                -1.245000000000000E+03,      /* K =  8 */
(PID.TID 0000.0001)                -1.610000000000000E+03,      /* K =  9 */
(PID.TID 0000.0001)                -2.025000000000000E+03,      /* K = 10 */
(PID.TID 0000.0001)                -2.490000000000000E+03,      /* K = 11 */
(PID.TID 0000.0001)                -3.005000000000000E+03,      /* K = 12 */
(PID.TID 0000.0001)                -3.570000000000000E+03,      /* K = 13 */
(PID.TID 0000.0001)                -4.185000000000000E+03,      /* K = 14 */
(PID.TID 0000.0001)                -4.850000000000000E+03       /* K = 15 */
(PID.TID 0000.0001)     ;
(PID.TID 0000.0001) rF =   /* W-Interf. R coordinate (  units of r ) */
(PID.TID 0000.0001)                 0.000000000000000E+00,      /* K =  1 */
(PID.TID 0000.0001)                -5.000000000000000E+01,      /* K =  2 */
(PID.TID 0000.0001)                -1.225000000000000E+02,      /* K =  3 */
(PID.TID 0000.0001)                -2.250000000000000E+02,      /* K =  4 */
(PID.TID 0000.0001)                -3.675000000000000E+02,      /* K =  5 */
(PID.TID 0000.0001)                -5.575000000000000E+02,      /* K =  6 */
(PID.TID 0000.0001)                -7.975000000000000E+02,      /* K =  7 */
(PID.TID 0000.0001)                -1.087500000000000E+03,      /* K =  8 */
(PID.TID 0000.0001)                -1.427500000000000E+03,      /* K =  9 */
(PID.TID 0000.0001)                -1.817500000000000E+03,      /* K = 10 */
(PID.TID 0000.0001)                -2.257500000000000E+03,      /* K = 11 */
(PID.TID 0000.0001)                -2.747500000000000E+03,      /* K = 12 */
(PID.TID 0000.0001)                -3.287500000000000E+03,      /* K = 13 */
(PID.TID 0000.0001)                -3.877500000000000E+03,      /* K = 14 */
(PID.TID 0000.0001)                -4.517500000000000E+03,      /* K = 15 */
(PID.TID 0000.0001)                -5.200000000000000E+03       /* K = 16 */
(PID.TID 0000.0001)     ;
(PID.TID 0000.0001) dxF =  /* dxF(:,1,:,1) ( m - cartesian, degrees - spherical ) */
(PID.TID 0000.0001)                 4.353471677186368E+04       /* I =  1 */
(PID.TID 0000.0001)     ;
(PID.TID 0000.0001) dxF =  /* dxF(1,:,1,:) ( m - cartesian, degrees - spherical ) */
(PID.TID 0000.0001)                 4.353471677186368E+04,      /* J =  1 */
(PID.TID 0000.0001)                 6.078145583759403E+04,      /* J =  2 */
(PID.TID 0000.0001)                 7.786159715774079E+04,      /* J =  3 */
(PID.TID 0000.0001)                 9.472832525217145E+04,      /* J =  4 */
(PID.TID 0000.0001)                 1.113354095915710E+05,      /* J =  5 */
(PID.TID 0000.0001)                 1.276373313121095E+05,      /* J =  6 */
(PID.TID 0000.0001)                 1.435894079794837E+05,      /* J =  7 */
(PID.TID 0000.0001)                 1.591479160603634E+05,      /* J =  8 */
(PID.TID 0000.0001)                 1.742702107655578E+05,      /* J =  9 */
(PID.TID 0000.0001)                 1.889148429364175E+05,      /* J = 10 */
(PID.TID 0000.0001)                 2.030416726540983E+05,      /* J = 11 */
(PID.TID 0000.0001)                 2.166119792602878E+05,      /* J = 12 */
(PID.TID 0000.0001)                 2.295885674878389E+05,      /* J = 13 */
(PID.TID 0000.0001)                 2.419358694104115E+05,      /* J = 14 */
(PID.TID 0000.0001)                 2.536200419316863E+05,      /* J = 15 */
(PID.TID 0000.0001)                 2.646090595469393E+05,      /* J = 16 */
(PID.TID 0000.0001)                 2.748728021227244E+05,      /* J = 17 */
(PID.TID 0000.0001)                 2.843831374540652E+05,      /* J = 18 */
(PID.TID 0000.0001)                 2.931139983728740E+05,      /* J = 19 */
(PID.TID 0000.0001)                 3.010414541962469E+05,      /* J = 20 */
(PID.TID 0000.0001)                 3.081437763188029E+05,      /* J = 21 */
(PID.TID 0000.0001)                 3.144014977692803E+05,      /* J = 22 */
(PID.TID 0000.0001)                 3.197974665681523E+05,      /* J = 23 */
(PID.TID 0000.0001)                 3.243168927400103E+05,      /* J = 24 */
(PID.TID 0000.0001)                 3.279473888518588E+05,      /* J = 25 */
(PID.TID 0000.0001)                 3.306790039662078E+05,      /* J = 26 */
(PID.TID 0000.0001)                 3.325042509159012E+05,      /* J = 27 */
(PID.TID 0000.0001)     2 @  3.334181268259212E+05,             /* J = 28: 29 */
(PID.TID 0000.0001)                 3.325042509159012E+05,      /* J = 30 */
(PID.TID 0000.0001)                 3.306790039662078E+05,      /* J = 31 */
(PID.TID 0000.0001)                 3.279473888518588E+05,      /* J = 32 */
(PID.TID 0000.0001)                 3.243168927400103E+05,      /* J = 33 */
(PID.TID 0000.0001)                 3.197974665681523E+05,      /* J = 34 */
(PID.TID 0000.0001)                 3.144014977692803E+05,      /* J = 35 */
(PID.TID 0000.0001)                 3.081437763188029E+05,      /* J = 36 */
(PID.TID 0000.0001)                 3.010414541962469E+05,      /* J = 37 */
(PID.TID 0000.0001)                 2.931139983728740E+05,      /* J = 38 */
(PID.TID 0000.0001)                 2.843831374540652E+05,      /* J = 39 */
(PID.TID 0000.0001)                 2.748728021227244E+05,      /* J = 40 */
(PID.TID 0000.0001)                 2.646090595469393E+05,      /* J = 41 */
(PID.TID 0000.0001)                 2.536200419316863E+05,      /* J = 42 */
(PID.TID 0000.0001)                 2.419358694104115E+05,      /* J = 43 */
(PID.TID 0000.0001)                 2.295885674878389E+05,      /* J = 44 */
(PID.TID 0000.0001)                 2.166119792602878E+05,      /* J = 45 */
(PID.TID 0000.0001)                 2.030416726540983E+05,      /* J = 46 */
(PID.TID 0000.0001)                 1.889148429364175E+05,      /* J = 47 */
(PID.TID 0000.0001)                 1.742702107655578E+05,      /* J = 48 */
(PID.TID 0000.0001)                 1.591479160603634E+05,      /* J = 49 */
(PID.TID 0000.0001)                 1.435894079794837E+05,      /* J = 50 */
(PID.TID 0000.0001)                 1.276373313121095E+05,      /* J = 51 */
(PID.TID 0000.0001)                 1.113354095915710E+05,      /* J = 52 */
(PID.TID 0000.0001)                 9.472832525217145E+04,      /* J = 53 */
(PID.TID 0000.0001)                 7.786159715774079E+04,      /* J = 54 */
(PID.TID 0000.0001)                 6.078145583759403E+04,      /* J = 55 */
(PID.TID 0000.0001)                 4.353471677186368E+04       /* J = 56 */
(PID.TID 0000.0001)     ;
(PID.TID 0000.0001) dyF =  /* dyF(:,1,:,1) ( m - cartesian, degrees - spherical ) */
(PID.TID 0000.0001)                 3.335324200561164E+05       /* I =  1 */
(PID.TID 0000.0001)     ;
(PID.TID 0000.0001) dyF =  /* dyF(1,:,1,:) ( m - cartesian, degrees - spherical ) */
(PID.TID 0000.0001)    56 @  3.335324200561164E+05              /* J =  1: 56 */
(PID.TID 0000.0001)     ;
(PID.TID 0000.0001) dxG =  /* dxG(:,1,:,1) ( m - cartesian, degrees - spherical ) */
(PID.TID 0000.0001)                 3.486363131840732E+04       /* I =  1 */
(PID.TID 0000.0001)     ;
(PID.TID 0000.0001) dxG =  /* dxG(1,:,1,:) ( m - cartesian, degrees - spherical ) */
(PID.TID 0000.0001)                 3.486363131840732E+04,      /* J =  1 */
(PID.TID 0000.0001)                 5.217596570505215E+04,      /* J =  2 */
(PID.TID 0000.0001)                 6.934528939640634E+04,      /* J =  3 */
(PID.TID 0000.0001)                 8.632454246965688E+04,      /* J =  4 */
(PID.TID 0000.0001)                 1.030671859723435E+05,      /* J =  5 */
(PID.TID 0000.0001)                 1.195273294823922E+05,      /* J =  6 */
(PID.TID 0000.0001)                 1.356598568905725E+05,      /* J =  7 */
(PID.TID 0000.0001)                 1.514205500606167E+05,      /* J =  8 */
(PID.TID 0000.0001)                 1.667662100280582E+05,      /* J =  9 */
(PID.TID 0000.0001)                 1.816547754055899E+05,      /* J = 10 */
(PID.TID 0000.0001)                 1.960454376704035E+05,      /* J = 11 */
(PID.TID 0000.0001)                 2.098987530175138E+05,      /* J = 12 */
(PID.TID 0000.0001)                 2.231767504724865E+05,      /* J = 13 */
(PID.TID 0000.0001)                 2.358430359672399E+05,      /* J = 14 */
(PID.TID 0000.0001)                 2.478628920936555E+05,      /* J = 15 */
(PID.TID 0000.0001)                 2.592033732615809E+05,      /* J = 16 */
(PID.TID 0000.0001)                 2.698333960004017E+05,      /* J = 17 */
(PID.TID 0000.0001)                 2.797238241566748E+05,      /* J = 18 */
(PID.TID 0000.0001)                 2.888475487542992E+05,      /* J = 19 */
(PID.TID 0000.0001)                 2.971795622983349E+05,      /* J = 20 */
(PID.TID 0000.0001)                 3.046970273188090E+05,      /* J = 21 */
(PID.TID 0000.0001)                 3.113793389666330E+05,      /* J = 22 */
(PID.TID 0000.0001)                 3.172081814900619E+05,      /* J = 23 */
(PID.TID 0000.0001)                 3.221675784368968E+05,      /* J = 24 */
(PID.TID 0000.0001)                 3.262439364448301E+05,      /* J = 25 */
(PID.TID 0000.0001)                 3.294260824999060E+05,      /* J = 26 */
(PID.TID 0000.0001)                 3.317052945609760E+05,      /* J = 27 */
(PID.TID 0000.0001)                 3.330753254662066E+05,      /* J = 28 */
(PID.TID 0000.0001)                 3.335324200561164E+05,      /* J = 29 */
(PID.TID 0000.0001)                 3.330753254662066E+05,      /* J = 30 */
(PID.TID 0000.0001)                 3.317052945609760E+05,      /* J = 31 */
(PID.TID 0000.0001)                 3.294260824999060E+05,      /* J = 32 */
(PID.TID 0000.0001)                 3.262439364448301E+05,      /* J = 33 */
(PID.TID 0000.0001)                 3.221675784368968E+05,      /* J = 34 */
(PID.TID 0000.0001)                 3.172081814900619E+05,      /* J = 35 */
(PID.TID 0000.0001)                 3.113793389666330E+05,      /* J = 36 */
(PID.TID 0000.0001)                 3.046970273188090E+05,      /* J = 37 */
(PID.TID 0000.0001)                 2.971795622983349E+05,      /* J = 38 */
(PID.TID 0000.0001)                 2.888475487542992E+05,      /* J = 39 */
(PID.TID 0000.0001)                 2.797238241566748E+05,      /* J = 40 */
(PID.TID 0000.0001)                 2.698333960004017E+05,      /* J = 41 */
(PID.TID 0000.0001)                 2.592033732615809E+05,      /* J = 42 */
(PID.TID 0000.0001)                 2.478628920936555E+05,      /* J = 43 */
(PID.TID 0000.0001)                 2.358430359672399E+05,      /* J = 44 */
(PID.TID 0000.0001)                 2.231767504724865E+05,      /* J = 45 */
(PID.TID 0000.0001)                 2.098987530175138E+05,      /* J = 46 */
(PID.TID 0000.0001)                 1.960454376704035E+05,      /* J = 47 */
(PID.TID 0000.0001)                 1.816547754055899E+05,      /* J = 48 */
(PID.TID 0000.0001)                 1.667662100280582E+05,      /* J = 49 */
(PID.TID 0000.0001)                 1.514205500606167E+05,      /* J = 50 */
(PID.TID 0000.0001)                 1.356598568905725E+05,      /* J = 51 */
(PID.TID 0000.0001)                 1.195273294823922E+05,      /* J = 52 */
(PID.TID 0000.0001)                 1.030671859723435E+05,      /* J = 53 */
(PID.TID 0000.0001)                 8.632454246965688E+04,      /* J = 54 */
(PID.TID 0000.0001)                 6.934528939640634E+04,      /* J = 55 */
(PID.TID 0000.0001)                 5.217596570505215E+04       /* J = 56 */
(PID.TID 0000.0001)     ;
(PID.TID 0000.0001) dyG =  /* dyG(:,1,:,1) ( m - cartesian, degrees - spherical ) */
(PID.TID 0000.0001)                 3.335324200561164E+05       /* I =  1 */
(PID.TID 0000.0001)     ;
(PID.TID 0000.0001) dyG =  /* dyG(1,:,1,:) ( m - cartesian, degrees - spherical ) */
(PID.TID 0000.0001)    56 @  3.335324200561164E+05              /* J =  1: 56 */
(PID.TID 0000.0001)     ;
(PID.TID 0000.0001) dxC =  /* dxC(:,1,:,1) ( m - cartesian, degrees - spherical ) */
(PID.TID 0000.0001)                 4.353471677186368E+04       /* I =  1 */
(PID.TID 0000.0001)     ;
(PID.TID 0000.0001) dxC =  /* dxC(1,:,1,:) ( m - cartesian, degrees - spherical ) */
(PID.TID 0000.0001)                 4.353471677186368E+04,      /* J =  1 */
(PID.TID 0000.0001)                 6.078145583759403E+04,      /* J =  2 */
(PID.TID 0000.0001)                 7.786159715774079E+04,      /* J =  3 */
(PID.TID 0000.0001)                 9.472832525217145E+04,      /* J =  4 */
(PID.TID 0000.0001)                 1.113354095915710E+05,      /* J =  5 */
(PID.TID 0000.0001)                 1.276373313121095E+05,      /* J =  6 */
(PID.TID 0000.0001)                 1.435894079794837E+05,      /* J =  7 */
(PID.TID 0000.0001)                 1.591479160603634E+05,      /* J =  8 */
(PID.TID 0000.0001)                 1.742702107655578E+05,      /* J =  9 */
(PID.TID 0000.0001)                 1.889148429364175E+05,      /* J = 10 */
(PID.TID 0000.0001)                 2.030416726540983E+05,      /* J = 11 */
(PID.TID 0000.0001)                 2.166119792602878E+05,      /* J = 12 */
(PID.TID 0000.0001)                 2.295885674878389E+05,      /* J = 13 */
(PID.TID 0000.0001)                 2.419358694104115E+05,      /* J = 14 */
(PID.TID 0000.0001)                 2.536200419316863E+05,      /* J = 15 */
(PID.TID 0000.0001)                 2.646090595469393E+05,      /* J = 16 */
(PID.TID 0000.0001)                 2.748728021227244E+05,      /* J = 17 */
(PID.TID 0000.0001)                 2.843831374540652E+05,      /* J = 18 */
(PID.TID 0000.0001)                 2.931139983728740E+05,      /* J = 19 */
(PID.TID 0000.0001)                 3.010414541962469E+05,      /* J = 20 */
(PID.TID 0000.0001)                 3.081437763188029E+05,      /* J = 21 */
(PID.TID 0000.0001)                 3.144014977692803E+05,      /* J = 22 */
(PID.TID 0000.0001)                 3.197974665681523E+05,      /* J = 23 */
(PID.TID 0000.0001)                 3.243168927400103E+05,      /* J = 24 */
(PID.TID 0000.0001)                 3.279473888518588E+05,      /* J = 25 */
(PID.TID 0000.0001)                 3.306790039662078E+05,      /* J = 26 */
(PID.TID 0000.0001)                 3.325042509159012E+05,      /* J = 27 */
(PID.TID 0000.0001)     2 @  3.334181268259212E+05,             /* J = 28: 29 */
(PID.TID 0000.0001)                 3.325042509159012E+05,      /* J = 30 */
(PID.TID 0000.0001)                 3.306790039662078E+05,      /* J = 31 */
(PID.TID 0000.0001)                 3.279473888518588E+05,      /* J = 32 */
(PID.TID 0000.0001)                 3.243168927400103E+05,      /* J = 33 */
(PID.TID 0000.0001)                 3.197974665681523E+05,      /* J = 34 */
(PID.TID 0000.0001)                 3.144014977692803E+05,      /* J = 35 */
(PID.TID 0000.0001)                 3.081437763188029E+05,      /* J = 36 */
(PID.TID 0000.0001)                 3.010414541962469E+05,      /* J = 37 */
(PID.TID 0000.0001)                 2.931139983728740E+05,      /* J = 38 */
(PID.TID 0000.0001)                 2.843831374540652E+05,      /* J = 39 */
(PID.TID 0000.0001)                 2.748728021227244E+05,      /* J = 40 */
(PID.TID 0000.0001)                 2.646090595469393E+05,      /* J = 41 */
(PID.TID 0000.0001)                 2.536200419316863E+05,      /* J = 42 */
(PID.TID 0000.0001)                 2.419358694104115E+05,      /* J = 43 */
(PID.TID 0000.0001)                 2.295885674878389E+05,      /* J = 44 */
(PID.TID 0000.0001)                 2.166119792602878E+05,      /* J = 45 */
(PID.TID 0000.0001)                 2.030416726540983E+05,      /* J = 46 */
(PID.TID 0000.0001)                 1.889148429364175E+05,      /* J = 47 */
(PID.TID 0000.0001)                 1.742702107655578E+05,      /* J = 48 */
(PID.TID 0000.0001)                 1.591479160603634E+05,      /* J = 49 */
(PID.TID 0000.0001)                 1.435894079794837E+05,      /* J = 50 */
(PID.TID 0000.0001)                 1.276373313121095E+05,      /* J = 51 */
(PID.TID 0000.0001)                 1.113354095915710E+05,      /* J = 52 */
(PID.TID 0000.0001)                 9.472832525217145E+04,      /* J = 53 */
(PID.TID 0000.0001)                 7.786159715774079E+04,      /* J = 54 */
(PID.TID 0000.0001)                 6.078145583759403E+04,      /* J = 55 */
(PID.TID 0000.0001)                 4.353471677186368E+04       /* J = 56 */
(PID.TID 0000.0001)     ;
(PID.TID 0000.0001) dyC =  /* dyC(:,1,:,1) ( m - cartesian, degrees - spherical ) */
(PID.TID 0000.0001)                 3.335324200561164E+05       /* I =  1 */
(PID.TID 0000.0001)     ;
(PID.TID 0000.0001) dyC =  /* dyC(1,:,1,:) ( m - cartesian, degrees - spherical ) */
(PID.TID 0000.0001)    56 @  3.335324200561164E+05              /* J =  1: 56 */
(PID.TID 0000.0001)     ;
(PID.TID 0000.0001) dxV =  /* dxV(:,1,:,1) ( m - cartesian, degrees - spherical ) */
(PID.TID 0000.0001)                 3.486363131840732E+04       /* I =  1 */
(PID.TID 0000.0001)     ;
(PID.TID 0000.0001) dxV =  /* dxV(1,:,1,:) ( m - cartesian, degrees - spherical ) */
(PID.TID 0000.0001)                 3.486363131840732E+04,      /* J =  1 */
(PID.TID 0000.0001)                 5.217596570505215E+04,      /* J =  2 */
(PID.TID 0000.0001)                 6.934528939640634E+04,      /* J =  3 */
(PID.TID 0000.0001)                 8.632454246965688E+04,      /* J =  4 */
(PID.TID 0000.0001)                 1.030671859723435E+05,      /* J =  5 */
(PID.TID 0000.0001)                 1.195273294823922E+05,      /* J =  6 */
(PID.TID 0000.0001)                 1.356598568905725E+05,      /* J =  7 */
(PID.TID 0000.0001)                 1.514205500606167E+05,      /* J =  8 */
(PID.TID 0000.0001)                 1.667662100280582E+05,      /* J =  9 */
(PID.TID 0000.0001)                 1.816547754055899E+05,      /* J = 10 */
(PID.TID 0000.0001)                 1.960454376704035E+05,      /* J = 11 */
(PID.TID 0000.0001)                 2.098987530175138E+05,      /* J = 12 */
(PID.TID 0000.0001)                 2.231767504724865E+05,      /* J = 13 */
(PID.TID 0000.0001)                 2.358430359672399E+05,      /* J = 14 */
(PID.TID 0000.0001)                 2.478628920936555E+05,      /* J = 15 */
(PID.TID 0000.0001)                 2.592033732615809E+05,      /* J = 16 */
(PID.TID 0000.0001)                 2.698333960004017E+05,      /* J = 17 */
(PID.TID 0000.0001)                 2.797238241566748E+05,      /* J = 18 */
(PID.TID 0000.0001)                 2.888475487542992E+05,      /* J = 19 */
(PID.TID 0000.0001)                 2.971795622983349E+05,      /* J = 20 */
(PID.TID 0000.0001)                 3.046970273188090E+05,      /* J = 21 */
(PID.TID 0000.0001)                 3.113793389666330E+05,      /* J = 22 */
(PID.TID 0000.0001)                 3.172081814900619E+05,      /* J = 23 */
(PID.TID 0000.0001)                 3.221675784368968E+05,      /* J = 24 */
(PID.TID 0000.0001)                 3.262439364448301E+05,      /* J = 25 */
(PID.TID 0000.0001)                 3.294260824999060E+05,      /* J = 26 */
(PID.TID 0000.0001)                 3.317052945609760E+05,      /* J = 27 */
(PID.TID 0000.0001)                 3.330753254662066E+05,      /* J = 28 */
(PID.TID 0000.0001)                 3.335324200561164E+05,      /* J = 29 */
(PID.TID 0000.0001)                 3.330753254662066E+05,      /* J = 30 */
(PID.TID 0000.0001)                 3.317052945609760E+05,      /* J = 31 */
(PID.TID 0000.0001)                 3.294260824999060E+05,      /* J = 32 */
(PID.TID 0000.0001)                 3.262439364448301E+05,      /* J = 33 */
(PID.TID 0000.0001)                 3.221675784368968E+05,      /* J = 34 */
(PID.TID 0000.0001)                 3.172081814900619E+05,      /* J = 35 */
(PID.TID 0000.0001)                 3.113793389666330E+05,      /* J = 36 */
(PID.TID 0000.0001)                 3.046970273188090E+05,      /* J = 37 */
(PID.TID 0000.0001)                 2.971795622983349E+05,      /* J = 38 */
(PID.TID 0000.0001)                 2.888475487542992E+05,      /* J = 39 */
(PID.TID 0000.0001)                 2.797238241566748E+05,      /* J = 40 */
(PID.TID 0000.0001)                 2.698333960004017E+05,      /* J = 41 */
(PID.TID 0000.0001)                 2.592033732615809E+05,      /* J = 42 */
(PID.TID 0000.0001)                 2.478628920936555E+05,      /* J = 43 */
(PID.TID 0000.0001)                 2.358430359672399E+05,      /* J = 44 */
(PID.TID 0000.0001)                 2.231767504724865E+05,      /* J = 45 */
(PID.TID 0000.0001)                 2.098987530175138E+05,      /* J = 46 */
(PID.TID 0000.0001)                 1.960454376704035E+05,      /* J = 47 */
(PID.TID 0000.0001)                 1.816547754055899E+05,      /* J = 48 */
(PID.TID 0000.0001)                 1.667662100280582E+05,      /* J = 49 */
(PID.TID 0000.0001)                 1.514205500606167E+05,      /* J = 50 */
(PID.TID 0000.0001)                 1.356598568905725E+05,      /* J = 51 */
(PID.TID 0000.0001)                 1.195273294823922E+05,      /* J = 52 */
(PID.TID 0000.0001)                 1.030671859723435E+05,      /* J = 53 */
(PID.TID 0000.0001)                 8.632454246965688E+04,      /* J = 54 */
(PID.TID 0000.0001)                 6.934528939640634E+04,      /* J = 55 */
(PID.TID 0000.0001)                 5.217596570505215E+04       /* J = 56 */
(PID.TID 0000.0001)     ;
(PID.TID 0000.0001) dyU =  /* dyU(:,1,:,1) ( m - cartesian, degrees - spherical ) */
(PID.TID 0000.0001)                 3.335324200561164E+05       /* I =  1 */
(PID.TID 0000.0001)     ;
(PID.TID 0000.0001) dyU =  /* dyU(1,:,1,:) ( m - cartesian, degrees - spherical ) */
(PID.TID 0000.0001)    56 @  3.335324200561164E+05              /* J =  1: 56 */
(PID.TID 0000.0001)     ;
(PID.TID 0000.0001) rA =  /* rA(:,1,:,1) ( m - cartesian, degrees - spherical ) */
(PID.TID 0000.0001)                 1.451858082901558E+10       /* I =  1 */
(PID.TID 0000.0001)     ;
(PID.TID 0000.0001) rA =  /* rA(1,:,1,:) ( m - cartesian, degrees - spherical ) */
(PID.TID 0000.0001)                 1.451858082901558E+10,      /* J =  1 */
(PID.TID 0000.0001)                 2.027027037083382E+10,      /* J =  2 */
(PID.TID 0000.0001)                 2.596640051053471E+10,      /* J =  3 */
(PID.TID 0000.0001)                 3.159135855133881E+10,      /* J =  4 */
(PID.TID 0000.0001)                 3.712972687424201E+10,      /* J =  5 */
(PID.TID 0000.0001)                 4.256632519663838E+10,      /* J =  6 */
(PID.TID 0000.0001)                 4.788625218042012E+10,      /* J =  7 */
(PID.TID 0000.0001)                 5.307492627550774E+10,      /* J =  8 */
(PID.TID 0000.0001)                 5.811812568686682E+10,      /* J =  9 */
(PID.TID 0000.0001)                 6.300202735546008E+10,      /* J = 10 */
(PID.TID 0000.0001)                 6.771324484628886E+10,      /* J = 11 */
(PID.TID 0000.0001)                 7.223886503968404E+10,      /* J = 12 */
(PID.TID 0000.0001)                 7.656648352526755E+10,      /* J = 13 */
(PID.TID 0000.0001)                 8.068423860157899E+10,      /* J = 14 */
(PID.TID 0000.0001)                 8.458084378817651E+10,      /* J = 15 */
(PID.TID 0000.0001)                 8.824561876109265E+10,      /* J = 16 */
(PID.TID 0000.0001)                 9.166851862686256E+10,      /* J = 17 */
(PID.TID 0000.0001)                 9.484016145487706E+10,      /* J = 18 */
(PID.TID 0000.0001)                 9.775185399260213E+10,      /* J = 19 */
(PID.TID 0000.0001)                 1.003956154931817E+11,      /* J = 20 */
(PID.TID 0000.0001)                 1.027641995901083E+11,      /* J = 21 */
(PID.TID 0000.0001)                 1.048511141590102E+11,      /* J = 22 */
(PID.TID 0000.0001)                 1.066506391121139E+11,      /* J = 23 */
(PID.TID 0000.0001)                 1.081578420766061E+11,      /* J = 24 */
(PID.TID 0000.0001)                 1.093685919139261E+11,      /* J = 25 */
(PID.TID 0000.0001)                 1.102795700429274E+11,      /* J = 26 */
(PID.TID 0000.0001)                 1.108882795358801E+11,      /* J = 27 */
(PID.TID 0000.0001)     2 @  1.111930519623746E+11,             /* J = 28: 29 */
(PID.TID 0000.0001)                 1.108882795358801E+11,      /* J = 30 */
(PID.TID 0000.0001)                 1.102795700429274E+11,      /* J = 31 */
(PID.TID 0000.0001)                 1.093685919139261E+11,      /* J = 32 */
(PID.TID 0000.0001)                 1.081578420766061E+11,      /* J = 33 */
(PID.TID 0000.0001)                 1.066506391121139E+11,      /* J = 34 */
(PID.TID 0000.0001)                 1.048511141590102E+11,      /* J = 35 */
(PID.TID 0000.0001)                 1.027641995901083E+11,      /* J = 36 */
(PID.TID 0000.0001)                 1.003956154931817E+11,      /* J = 37 */
(PID.TID 0000.0001)                 9.775185399260213E+10,      /* J = 38 */
(PID.TID 0000.0001)                 9.484016145487706E+10,      /* J = 39 */
(PID.TID 0000.0001)                 9.166851862686256E+10,      /* J = 40 */
(PID.TID 0000.0001)                 8.824561876109265E+10,      /* J = 41 */
(PID.TID 0000.0001)                 8.458084378817651E+10,      /* J = 42 */
(PID.TID 0000.0001)                 8.068423860157899E+10,      /* J = 43 */
(PID.TID 0000.0001)                 7.656648352526755E+10,      /* J = 44 */
(PID.TID 0000.0001)                 7.223886503968404E+10,      /* J = 45 */
(PID.TID 0000.0001)                 6.771324484628886E+10,      /* J = 46 */
(PID.TID 0000.0001)                 6.300202735546008E+10,      /* J = 47 */
(PID.TID 0000.0001)                 5.811812568686682E+10,      /* J = 48 */
(PID.TID 0000.0001)                 5.307492627550774E+10,      /* J = 49 */
(PID.TID 0000.0001)                 4.788625218042012E+10,      /* J = 50 */
(PID.TID 0000.0001)                 4.256632519663838E+10,      /* J = 51 */
(PID.TID 0000.0001)                 3.712972687424201E+10,      /* J = 52 */
(PID.TID 0000.0001)                 3.159135855133881E+10,      /* J = 53 */
(PID.TID 0000.0001)                 2.596640051053471E+10,      /* J = 54 */
(PID.TID 0000.0001)                 2.027027037083382E+10,      /* J = 55 */
(PID.TID 0000.0001)                 1.451858082901558E+10       /* J = 56 */
(PID.TID 0000.0001)     ;
(PID.TID 0000.0001) rAw =  /* rAw(:,1,:,1) ( m - cartesian, degrees - spherical ) */
(PID.TID 0000.0001)                 1.451858082901558E+10       /* I =  1 */
(PID.TID 0000.0001)     ;
(PID.TID 0000.0001) rAw =  /* rAw(1,:,1,:) ( m - cartesian, degrees - spherical ) */
(PID.TID 0000.0001)                 1.451858082901558E+10,      /* J =  1 */
(PID.TID 0000.0001)                 2.027027037083382E+10,      /* J =  2 */
(PID.TID 0000.0001)                 2.596640051053471E+10,      /* J =  3 */
(PID.TID 0000.0001)                 3.159135855133881E+10,      /* J =  4 */
(PID.TID 0000.0001)                 3.712972687424201E+10,      /* J =  5 */
(PID.TID 0000.0001)                 4.256632519663838E+10,      /* J =  6 */
(PID.TID 0000.0001)                 4.788625218042012E+10,      /* J =  7 */
(PID.TID 0000.0001)                 5.307492627550774E+10,      /* J =  8 */
(PID.TID 0000.0001)                 5.811812568686682E+10,      /* J =  9 */
(PID.TID 0000.0001)                 6.300202735546008E+10,      /* J = 10 */
(PID.TID 0000.0001)                 6.771324484628886E+10,      /* J = 11 */
(PID.TID 0000.0001)                 7.223886503968404E+10,      /* J = 12 */
(PID.TID 0000.0001)                 7.656648352526755E+10,      /* J = 13 */
(PID.TID 0000.0001)                 8.068423860157899E+10,      /* J = 14 */
(PID.TID 0000.0001)                 8.458084378817651E+10,      /* J = 15 */
(PID.TID 0000.0001)                 8.824561876109265E+10,      /* J = 16 */
(PID.TID 0000.0001)                 9.166851862686256E+10,      /* J = 17 */
(PID.TID 0000.0001)                 9.484016145487706E+10,      /* J = 18 */
(PID.TID 0000.0001)                 9.775185399260213E+10,      /* J = 19 */
(PID.TID 0000.0001)                 1.003956154931817E+11,      /* J = 20 */
(PID.TID 0000.0001)                 1.027641995901083E+11,      /* J = 21 */
(PID.TID 0000.0001)                 1.048511141590102E+11,      /* J = 22 */
(PID.TID 0000.0001)                 1.066506391121139E+11,      /* J = 23 */
(PID.TID 0000.0001)                 1.081578420766061E+11,      /* J = 24 */
(PID.TID 0000.0001)                 1.093685919139261E+11,      /* J = 25 */
(PID.TID 0000.0001)                 1.102795700429274E+11,      /* J = 26 */
(PID.TID 0000.0001)                 1.108882795358801E+11,      /* J = 27 */
(PID.TID 0000.0001)     2 @  1.111930519623746E+11,             /* J = 28: 29 */
(PID.TID 0000.0001)                 1.108882795358801E+11,      /* J = 30 */
(PID.TID 0000.0001)                 1.102795700429274E+11,      /* J = 31 */
(PID.TID 0000.0001)                 1.093685919139261E+11,      /* J = 32 */
(PID.TID 0000.0001)                 1.081578420766061E+11,      /* J = 33 */
(PID.TID 0000.0001)                 1.066506391121139E+11,      /* J = 34 */
(PID.TID 0000.0001)                 1.048511141590102E+11,      /* J = 35 */
(PID.TID 0000.0001)                 1.027641995901083E+11,      /* J = 36 */
(PID.TID 0000.0001)                 1.003956154931817E+11,      /* J = 37 */
(PID.TID 0000.0001)                 9.775185399260213E+10,      /* J = 38 */
(PID.TID 0000.0001)                 9.484016145487706E+10,      /* J = 39 */
(PID.TID 0000.0001)                 9.166851862686256E+10,      /* J = 40 */
(PID.TID 0000.0001)                 8.824561876109265E+10,      /* J = 41 */
(PID.TID 0000.0001)                 8.458084378817651E+10,      /* J = 42 */
(PID.TID 0000.0001)                 8.068423860157899E+10,      /* J = 43 */
(PID.TID 0000.0001)                 7.656648352526755E+10,      /* J = 44 */
(PID.TID 0000.0001)                 7.223886503968404E+10,      /* J = 45 */
(PID.TID 0000.0001)                 6.771324484628886E+10,      /* J = 46 */
(PID.TID 0000.0001)                 6.300202735546008E+10,      /* J = 47 */
(PID.TID 0000.0001)                 5.811812568686682E+10,      /* J = 48 */
(PID.TID 0000.0001)                 5.307492627550774E+10,      /* J = 49 */
(PID.TID 0000.0001)                 4.788625218042012E+10,      /* J = 50 */
(PID.TID 0000.0001)                 4.256632519663838E+10,      /* J = 51 */
(PID.TID 0000.0001)                 3.712972687424201E+10,      /* J = 52 */
(PID.TID 0000.0001)                 3.159135855133881E+10,      /* J = 53 */
(PID.TID 0000.0001)                 2.596640051053471E+10,      /* J = 54 */
(PID.TID 0000.0001)                 2.027027037083382E+10,      /* J = 55 */
(PID.TID 0000.0001)                 1.451858082901558E+10       /* J = 56 */
(PID.TID 0000.0001)     ;
(PID.TID 0000.0001) rAs =  /* rAs(:,1,:,1) ( m - cartesian, degrees - spherical ) */
(PID.TID 0000.0001)                 1.162682306954694E+10       /* I =  1 */
(PID.TID 0000.0001)     ;
(PID.TID 0000.0001) rAs =  /* rAs(1,:,1,:) ( m - cartesian, degrees - spherical ) */
(PID.TID 0000.0001)                 1.162682306954694E+10,      /* J =  1 */
(PID.TID 0000.0001)                 1.740038827840324E+10,      /* J =  2 */
(PID.TID 0000.0001)                 2.312626023247475E+10,      /* J =  3 */
(PID.TID 0000.0001)                 2.878874471473562E+10,      /* J =  4 */
(PID.TID 0000.0001)                 3.437232124881435E+10,      /* J =  5 */
(PID.TID 0000.0001)                 3.986168563954114E+10,      /* J =  6 */
(PID.TID 0000.0001)                 4.524179192068160E+10,      /* J =  7 */
(PID.TID 0000.0001)                 5.049789359488565E+10,      /* J =  8 */
(PID.TID 0000.0001)                 5.561558405281209E+10,      /* J =  9 */
(PID.TID 0000.0001)                 6.058083606064128E+10,      /* J = 10 */
(PID.TID 0000.0001)                 6.538004020775066E+10,      /* J = 11 */
(PID.TID 0000.0001)                 7.000004220916162E+10,      /* J = 12 */
(PID.TID 0000.0001)                 7.442817896052023E+10,      /* J = 13 */
(PID.TID 0000.0001)                 7.865231324678767E+10,      /* J = 14 */
(PID.TID 0000.0001)                 8.266086700950061E+10,      /* J = 15 */
(PID.TID 0000.0001)                 8.644285308142708E+10,      /* J = 16 */
(PID.TID 0000.0001)                 8.998790530162659E+10,      /* J = 17 */
(PID.TID 0000.0001)                 9.328630692837657E+10,      /* J = 18 */
(PID.TID 0000.0001)                 9.632901727208775E+10,      /* J = 19 */
(PID.TID 0000.0001)                 9.910769647520413E+10,      /* J = 20 */
(PID.TID 0000.0001)                 1.016147283711734E+11,      /* J = 21 */
(PID.TID 0000.0001)                 1.038432413598305E+11,      /* J = 22 */
(PID.TID 0000.0001)                 1.057871272419753E+11,      /* J = 23 */
(PID.TID 0000.0001)                 1.074410579615232E+11,      /* J = 24 */
(PID.TID 0000.0001)                 1.088005002093347E+11,      /* J = 25 */
(PID.TID 0000.0001)                 1.098617278487026E+11,      /* J = 26 */
(PID.TID 0000.0001)                 1.106218321284322E+11,      /* J = 27 */
(PID.TID 0000.0001)                 1.110787296555271E+11,      /* J = 28 */
(PID.TID 0000.0001)                 1.112311681056240E+11,      /* J = 29 */
(PID.TID 0000.0001)                 1.110787296555271E+11,      /* J = 30 */
(PID.TID 0000.0001)                 1.106218321284322E+11,      /* J = 31 */
(PID.TID 0000.0001)                 1.098617278487026E+11,      /* J = 32 */
(PID.TID 0000.0001)                 1.088005002093347E+11,      /* J = 33 */
(PID.TID 0000.0001)                 1.074410579615232E+11,      /* J = 34 */
(PID.TID 0000.0001)                 1.057871272419753E+11,      /* J = 35 */
(PID.TID 0000.0001)                 1.038432413598305E+11,      /* J = 36 */
(PID.TID 0000.0001)                 1.016147283711734E+11,      /* J = 37 */
(PID.TID 0000.0001)                 9.910769647520413E+10,      /* J = 38 */
(PID.TID 0000.0001)                 9.632901727208775E+10,      /* J = 39 */
(PID.TID 0000.0001)                 9.328630692837657E+10,      /* J = 40 */
(PID.TID 0000.0001)                 8.998790530162659E+10,      /* J = 41 */
(PID.TID 0000.0001)                 8.644285308142708E+10,      /* J = 42 */
(PID.TID 0000.0001)                 8.266086700950061E+10,      /* J = 43 */
(PID.TID 0000.0001)                 7.865231324678767E+10,      /* J = 44 */
(PID.TID 0000.0001)                 7.442817896052023E+10,      /* J = 45 */
(PID.TID 0000.0001)                 7.000004220916162E+10,      /* J = 46 */
(PID.TID 0000.0001)                 6.538004020775066E+10,      /* J = 47 */
(PID.TID 0000.0001)                 6.058083606064128E+10,      /* J = 48 */
(PID.TID 0000.0001)                 5.561558405281209E+10,      /* J = 49 */
(PID.TID 0000.0001)                 5.049789359488565E+10,      /* J = 50 */
(PID.TID 0000.0001)                 4.524179192068160E+10,      /* J = 51 */
(PID.TID 0000.0001)                 3.986168563954114E+10,      /* J = 52 */
(PID.TID 0000.0001)                 3.437232124881435E+10,      /* J = 53 */
(PID.TID 0000.0001)                 2.878874471473562E+10,      /* J = 54 */
(PID.TID 0000.0001)                 2.312626023247475E+10,      /* J = 55 */
(PID.TID 0000.0001)                 1.740038827840324E+10       /* J = 56 */
(PID.TID 0000.0001)     ;
(PID.TID 0000.0001) 
(PID.TID 0000.0001)  MDSREADFIELD: opening global file: pickup.0000036000
(PID.TID 0000.0001)  MDSREADFIELD: opening global file: pickup.0000036000
(PID.TID 0000.0001)  MDSREADFIELD: opening global file: pickup.0000036000
(PID.TID 0000.0001)  MDSREADFIELD: opening global file: pickup.0000036000
(PID.TID 0000.0001)  MDSREADFIELD: opening global file: pickup.0000036000
(PID.TID 0000.0001)  MDSREADFIELD: opening global file: pickup.0000036000
(PID.TID 0000.0001)  MDSREADFIELD: opening global file: pickup.0000036000
(PID.TID 0000.0001)  MDSREADFIELD: opening global file: pickup.0000036000
(PID.TID 0000.0001)  MDSREADFIELD: opening global file: pickup.0000036000
(PID.TID 0000.0001)  MDSREADFIELD: opening global file: pickup.0000036000
(PID.TID 0000.0001)  MDSREADFIELD: opening global file: pickup.0000036000
(PID.TID 0000.0001)  MDSREADFIELD: opening global file: pickup.0000036000
(PID.TID 0000.0001)  MDSREADFIELD: opening global file: pickup.0000036000
(PID.TID 0000.0001)  MDSREADFIELD: opening global file: pickup_cd.0000036000
(PID.TID 0000.0001)  MDSREADFIELD: opening global file: pickup_cd.0000036000
(PID.TID 0000.0001)  MDSREADFIELD: opening global file: pickup_cd.0000036000
(PID.TID 0000.0001)  MDSREADFIELD: opening global file: pickup_cd.0000036000
(PID.TID 0000.0001)  MDSREADFIELD: opening global file: pickup_cd.0000036000
(PID.TID 0000.0001)  MDSREADFIELD: opening global file: taux_sl.bin
(PID.TID 0000.0001)  MDSREADFIELD: opening global file: sst_sl.bin
(PID.TID 0000.0001) // =======================================================
(PID.TID 0000.0001) // Model current state
(PID.TID 0000.0001) // =======================================================
(PID.TID 0000.0001) 
(PID.TID 0000.0001) // =======================================================
(PID.TID 0000.0001) // Begin MONITOR dynamic field statistics
(PID.TID 0000.0001) // =======================================================
(PID.TID 0000.0001) %MON time_tsnumber                =                 36000
(PID.TID 0000.0001) %MON time_secondsf                =   3.1104000000000E+09
(PID.TID 0000.0001) %MON dynstat_eta_max              =   1.6201005177854E+00
(PID.TID 0000.0001) %MON dynstat_eta_min              =  -3.9377441396023E+00
(PID.TID 0000.0001) %MON dynstat_eta_mean             =   4.4711632489218E-17
(PID.TID 0000.0001) %MON dynstat_eta_sd               =   1.6563991723224E+00
(PID.TID 0000.0001) %MON dynstat_eta_del2             =   1.3977066220033E-02
(PID.TID 0000.0001) %MON dynstat_uvel_max             =   1.4272657430544E-01
(PID.TID 0000.0001) %MON dynstat_uvel_min             =  -3.8630916679110E-01
(PID.TID 0000.0001) %MON dynstat_uvel_mean            =   1.2659893360806E-02
(PID.TID 0000.0001) %MON dynstat_uvel_sd              =   3.8710511996223E-02
(PID.TID 0000.0001) %MON dynstat_uvel_del2            =   6.1842820168116E-04
(PID.TID 0000.0001) %MON dynstat_vvel_max             =   2.2999750655636E-02
(PID.TID 0000.0001) %MON dynstat_vvel_min             =  -2.2999750655604E-02
(PID.TID 0000.0001) %MON dynstat_vvel_mean            =   1.0386416238937E-15
(PID.TID 0000.0001) %MON dynstat_vvel_sd              =   1.5486266626369E-03
(PID.TID 0000.0001) %MON dynstat_vvel_del2            =   7.2795151559418E-05
(PID.TID 0000.0001) %MON dynstat_wvel_max             =   1.3691712526229E-06
(PID.TID 0000.0001) %MON dynstat_wvel_min             =  -8.1261601801594E-07
(PID.TID 0000.0001) %MON dynstat_wvel_mean            =   4.9424144363026E-24
(PID.TID 0000.0001) %MON dynstat_wvel_sd              =   2.5358259198888E-07
(PID.TID 0000.0001) %MON dynstat_wvel_del2            =   3.6741344623394E-08
(PID.TID 0000.0001) %MON dynstat_theta_max            =   2.6657021468384E+01
(PID.TID 0000.0001) %MON dynstat_theta_min            =  -9.3075890930299E-01
(PID.TID 0000.0001) %MON dynstat_theta_mean           =   2.2239378147708E+00
(PID.TID 0000.0001) %MON dynstat_theta_sd             =   3.9264791989428E+00
(PID.TID 0000.0001) %MON dynstat_theta_del2           =   4.1714222085658E-02
(PID.TID 0000.0001) %MON dynstat_salt_max             =   3.4700000000000E+01
(PID.TID 0000.0001) %MON dynstat_salt_min             =   3.4700000000000E+01
(PID.TID 0000.0001) %MON dynstat_salt_mean            =   3.4700000000000E+01
(PID.TID 0000.0001) %MON dynstat_salt_sd              =   4.9737991503207E-14
(PID.TID 0000.0001) %MON dynstat_salt_del2            =   0.0000000000000E+00
(PID.TID 0000.0001) %MON advcfl_uvel_max              =   1.0010587105295E-01
(PID.TID 0000.0001) %MON advcfl_vvel_max              =   5.9579769076500E-03
(PID.TID 0000.0001) %MON advcfl_wvel_max              =   1.9716066037770E-03
(PID.TID 0000.0001) %MON advcfl_W_hf_max              =   5.9148198113310E-03
(PID.TID 0000.0001) %MON ke_max                       =   7.4646746291426E-02
(PID.TID 0000.0001) %MON ke_mean                      =   2.4045665119895E-03
(PID.TID 0000.0001) %MON ke_volint                    =   1.8128543399903E+13
(PID.TID 0000.0001) %MON ke_volmean                   =   8.3067694548141E-04
(PID.TID 0000.0001) %MON ke_vol                       =   2.1823819113454E+16
(PID.TID 0000.0001) %MON surfExpan_theta_mean         =   8.7743901385973E-09
(PID.TID 0000.0001) %MON surfExpan_salt_mean          =  -2.4817111820948E-22
(PID.TID 0000.0001) // =======================================================
(PID.TID 0000.0001) // End MONITOR dynamic field statistics
(PID.TID 0000.0001) // =======================================================
 cg2d: Sum(rhs),rhsMax =   2.44249065417534E-15  1.48268847436274E+00
(PID.TID 0000.0001)                    cg2d_init_res =    2.44501306364942E-03
(PID.TID 0000.0001)                       cg2d_iters =    27
(PID.TID 0000.0001)                         cg2d_res =    3.79826359915224E-18
(PID.TID 0000.0001) // =======================================================
(PID.TID 0000.0001) // Begin MONITOR dynamic field statistics
(PID.TID 0000.0001) // =======================================================
(PID.TID 0000.0001) %MON time_tsnumber                =                 36001
(PID.TID 0000.0001) %MON time_secondsf                =   3.1104864000000E+09
(PID.TID 0000.0001) %MON dynstat_eta_max              =   1.6196963215581E+00
(PID.TID 0000.0001) %MON dynstat_eta_min              =  -3.9375471158325E+00
(PID.TID 0000.0001) %MON dynstat_eta_mean             =  -5.0706056624941E-17
(PID.TID 0000.0001) %MON dynstat_eta_sd               =   1.6560833271561E+00
(PID.TID 0000.0001) %MON dynstat_eta_del2             =   1.3973331915988E-02
(PID.TID 0000.0001) %MON dynstat_uvel_max             =   1.4273584335358E-01
(PID.TID 0000.0001) %MON dynstat_uvel_min             =  -3.8630889357644E-01
(PID.TID 0000.0001) %MON dynstat_uvel_mean            =   1.2664018021597E-02
(PID.TID 0000.0001) %MON dynstat_uvel_sd              =   3.8711845484586E-02
(PID.TID 0000.0001) %MON dynstat_uvel_del2            =   6.1844490834085E-04
(PID.TID 0000.0001) %MON dynstat_vvel_max             =   2.3013469069285E-02
(PID.TID 0000.0001) %MON dynstat_vvel_min             =  -2.3013469069253E-02
(PID.TID 0000.0001) %MON dynstat_vvel_mean            =   8.3126639184877E-16
(PID.TID 0000.0001) %MON dynstat_vvel_sd              =   1.5493090604180E-03
(PID.TID 0000.0001) %MON dynstat_vvel_del2            =   7.2807415496367E-05
(PID.TID 0000.0001) %MON dynstat_wvel_max             =   1.4062127922597E-06
(PID.TID 0000.0001) %MON dynstat_wvel_min             =  -8.9649299629091E-07
(PID.TID 0000.0001) %MON dynstat_wvel_mean            =  -2.6219212902525E-23
(PID.TID 0000.0001) %MON dynstat_wvel_sd              =   2.6253888894156E-07
(PID.TID 0000.0001) %MON dynstat_wvel_del2            =   3.6990195448614E-08
(PID.TID 0000.0001) %MON dynstat_theta_max            =   2.6657021048099E+01
(PID.TID 0000.0001) %MON dynstat_theta_min            =  -9.3075955906215E-01
(PID.TID 0000.0001) %MON dynstat_theta_mean           =   2.2239290524752E+00
(PID.TID 0000.0001) %MON dynstat_theta_sd             =   3.9264801273832E+00
(PID.TID 0000.0001) %MON dynstat_theta_del2           =   4.1714249845538E-02
(PID.TID 0000.0001) %MON dynstat_salt_max             =   3.4700000000000E+01
(PID.TID 0000.0001) %MON dynstat_salt_min             =   3.4700000000000E+01
(PID.TID 0000.0001) %MON dynstat_salt_mean            =   3.4700000000000E+01
(PID.TID 0000.0001) %MON dynstat_salt_sd              =   4.9737991503207E-14
(PID.TID 0000.0001) %MON dynstat_salt_del2            =   0.0000000000000E+00
(PID.TID 0000.0001) %MON advcfl_uvel_max              =   1.0010580025372E-01
(PID.TID 0000.0001) %MON advcfl_vvel_max              =   5.9615305979901E-03
(PID.TID 0000.0001) %MON advcfl_wvel_max              =   2.0249464208539E-03
(PID.TID 0000.0001) %MON advcfl_W_hf_max              =   6.0748392625618E-03
(PID.TID 0000.0001) %MON ke_max                       =   7.4646629739304E-02
(PID.TID 0000.0001) %MON ke_mean                      =   2.4047237413095E-03
(PID.TID 0000.0001) %MON ke_volint                    =   1.8130832967972E+13
(PID.TID 0000.0001) %MON ke_volmean                   =   8.3078185691135E-04
(PID.TID 0000.0001) %MON ke_vol                       =   2.1823819113454E+16
(PID.TID 0000.0001) %MON surfExpan_theta_mean         =  -9.8483250303485E-07
(PID.TID 0000.0001) %MON surfExpan_salt_mean          =  -1.5298830781646E-22
(PID.TID 0000.0001) // =======================================================
(PID.TID 0000.0001) // End MONITOR dynamic field statistics
(PID.TID 0000.0001) // =======================================================
 cg2d: Sum(rhs),rhsMax =   3.99680288865056E-15  1.48203632331837E+00
(PID.TID 0000.0001)                    cg2d_init_res =    3.92252498057410E-03
(PID.TID 0000.0001)                       cg2d_iters =    27
(PID.TID 0000.0001)                         cg2d_res =    1.61071901603091E-17
(PID.TID 0000.0001) // =======================================================
(PID.TID 0000.0001) // Begin MONITOR dynamic field statistics
(PID.TID 0000.0001) // =======================================================
(PID.TID 0000.0001) %MON time_tsnumber                =                 36002
(PID.TID 0000.0001) %MON time_secondsf                =   3.1105728000000E+09
(PID.TID 0000.0001) %MON dynstat_eta_max              =   1.6190044748816E+00
(PID.TID 0000.0001) %MON dynstat_eta_min              =  -3.9370811616265E+00
(PID.TID 0000.0001) %MON dynstat_eta_mean             =  -6.3508401424283E-17
(PID.TID 0000.0001) %MON dynstat_eta_sd               =   1.6554914630099E+00
(PID.TID 0000.0001) %MON dynstat_eta_del2             =   1.3966906608458E-02
(PID.TID 0000.0001) %MON dynstat_uvel_max             =   1.4275313352110E-01
(PID.TID 0000.0001) %MON dynstat_uvel_min             =  -3.8630854406838E-01
(PID.TID 0000.0001) %MON dynstat_uvel_mean            =   1.2671835457957E-02
(PID.TID 0000.0001) %MON dynstat_uvel_sd              =   3.8714487585882E-02
(PID.TID 0000.0001) %MON dynstat_uvel_del2            =   6.1847942517658E-04
(PID.TID 0000.0001) %MON dynstat_vvel_max             =   2.3031054285075E-02
(PID.TID 0000.0001) %MON dynstat_vvel_min             =  -2.3031054285042E-02
(PID.TID 0000.0001) %MON dynstat_vvel_mean            =   1.3794391585686E-15
(PID.TID 0000.0001) %MON dynstat_vvel_sd              =   1.5511126999432E-03
(PID.TID 0000.0001) %MON dynstat_vvel_del2            =   7.2830325937058E-05
(PID.TID 0000.0001) %MON dynstat_wvel_max             =   1.3293340045153E-06
(PID.TID 0000.0001) %MON dynstat_wvel_min             =  -9.6058614049254E-07
(PID.TID 0000.0001) %MON dynstat_wvel_mean            =  -2.2511335296427E-23
(PID.TID 0000.0001) %MON dynstat_wvel_sd              =   2.8144047485701E-07
(PID.TID 0000.0001) %MON dynstat_wvel_del2            =   3.7046368297336E-08
(PID.TID 0000.0001) %MON dynstat_theta_max            =   2.6657623790212E+01
(PID.TID 0000.0001) %MON dynstat_theta_min            =  -9.3076020840991E-01
(PID.TID 0000.0001) %MON dynstat_theta_mean           =   2.2239367994863E+00
(PID.TID 0000.0001) %MON dynstat_theta_sd             =   3.9265316046971E+00
(PID.TID 0000.0001) %MON dynstat_theta_del2           =   4.1716744465726E-02
(PID.TID 0000.0001) %MON dynstat_salt_max             =   3.4700000000000E+01
(PID.TID 0000.0001) %MON dynstat_salt_min             =   3.4700000000000E+01
(PID.TID 0000.0001) %MON dynstat_salt_mean            =   3.4700000000000E+01
(PID.TID 0000.0001) %MON dynstat_salt_sd              =   4.9737991503207E-14
(PID.TID 0000.0001) %MON dynstat_salt_del2            =   0.0000000000000E+00
(PID.TID 0000.0001) %MON advcfl_uvel_max              =   1.0010570968427E-01
(PID.TID 0000.0001) %MON advcfl_vvel_max              =   5.9660859651834E-03
(PID.TID 0000.0001) %MON advcfl_wvel_max              =   1.9142409665021E-03
(PID.TID 0000.0001) %MON advcfl_W_hf_max              =   5.7427228995063E-03
(PID.TID 0000.0001) %MON ke_max                       =   7.4646513564622E-02
(PID.TID 0000.0001) %MON ke_mean                      =   2.4050403030760E-03
(PID.TID 0000.0001) %MON ke_volint                    =   1.8135287680979E+13
(PID.TID 0000.0001) %MON ke_volmean                   =   8.3098597851736E-04
(PID.TID 0000.0001) %MON ke_vol                       =   2.1823819113454E+16
(PID.TID 0000.0001) %MON surfExpan_theta_mean         =  -1.8696670987649E-06
(PID.TID 0000.0001) %MON surfExpan_salt_mean          =  -1.7461667345272E-22
(PID.TID 0000.0001) // =======================================================
(PID.TID 0000.0001) // End MONITOR dynamic field statistics
(PID.TID 0000.0001) // =======================================================
 cg2d: Sum(rhs),rhsMax =   5.32907051820075E-15  1.48124933282821E+00
(PID.TID 0000.0001)                    cg2d_init_res =    4.99058874930667E-03
(PID.TID 0000.0001)                       cg2d_iters =    27
(PID.TID 0000.0001)                         cg2d_res =    8.32316938834336E-18
(PID.TID 0000.0001) // =======================================================
(PID.TID 0000.0001) // Begin MONITOR dynamic field statistics
(PID.TID 0000.0001) // =======================================================
(PID.TID 0000.0001) %MON time_tsnumber                =                 36003
(PID.TID 0000.0001) %MON time_secondsf                =   3.1106592000000E+09
(PID.TID 0000.0001) %MON dynstat_eta_max              =   1.6181617881813E+00
(PID.TID 0000.0001) %MON dynstat_eta_min              =  -3.9362517607487E+00
(PID.TID 0000.0001) %MON dynstat_eta_mean             =  -1.3983391783626E-16
(PID.TID 0000.0001) %MON dynstat_eta_sd               =   1.6546777261643E+00
(PID.TID 0000.0001) %MON dynstat_eta_del2             =   1.3959357462402E-02
(PID.TID 0000.0001) %MON dynstat_uvel_max             =   1.4277700268457E-01
(PID.TID 0000.0001) %MON dynstat_uvel_min             =  -3.8630835357671E-01
(PID.TID 0000.0001) %MON dynstat_uvel_mean            =   1.2682983626159E-02
(PID.TID 0000.0001) %MON dynstat_uvel_sd              =   3.8718278379336E-02
(PID.TID 0000.0001) %MON dynstat_uvel_del2            =   6.1853094122629E-04
(PID.TID 0000.0001) %MON dynstat_vvel_max             =   2.3052720631259E-02
(PID.TID 0000.0001) %MON dynstat_vvel_min             =  -2.3052720631226E-02
(PID.TID 0000.0001) %MON dynstat_vvel_mean            =   1.8817872250545E-15
(PID.TID 0000.0001) %MON dynstat_vvel_sd              =   1.5535468114825E-03
(PID.TID 0000.0001) %MON dynstat_vvel_del2            =   7.2848636672808E-05
(PID.TID 0000.0001) %MON dynstat_wvel_max             =   1.2069190289798E-06
(PID.TID 0000.0001) %MON dynstat_wvel_min             =  -1.0020758911535E-06
(PID.TID 0000.0001) %MON dynstat_wvel_mean            =   9.5517704556108E-24
(PID.TID 0000.0001) %MON dynstat_wvel_sd              =   3.0187001938844E-07
(PID.TID 0000.0001) %MON dynstat_wvel_del2            =   3.7054664390150E-08
(PID.TID 0000.0001) %MON dynstat_theta_max            =   2.6658568479547E+01
(PID.TID 0000.0001) %MON dynstat_theta_min            =  -9.3076085725581E-01
(PID.TID 0000.0001) %MON dynstat_theta_mean           =   2.2239592376934E+00
(PID.TID 0000.0001) %MON dynstat_theta_sd             =   3.9266292040897E+00
(PID.TID 0000.0001) %MON dynstat_theta_del2           =   4.1718143233798E-02
(PID.TID 0000.0001) %MON dynstat_salt_max             =   3.4700000000000E+01
(PID.TID 0000.0001) %MON dynstat_salt_min             =   3.4700000000000E+01
(PID.TID 0000.0001) %MON dynstat_salt_mean            =   3.4700000000000E+01
(PID.TID 0000.0001) %MON dynstat_salt_sd              =   4.9737991503207E-14
(PID.TID 0000.0001) %MON dynstat_salt_del2            =   0.0000000000000E+00
(PID.TID 0000.0001) %MON advcfl_uvel_max              =   1.0010566032138E-01
(PID.TID 0000.0001) %MON advcfl_vvel_max              =   5.9716985299529E-03
(PID.TID 0000.0001) %MON advcfl_wvel_max              =   1.8687600570185E-03
(PID.TID 0000.0001) %MON advcfl_W_hf_max              =   5.2138902051929E-03
(PID.TID 0000.0001) %MON ke_max                       =   7.4646469525949E-02
(PID.TID 0000.0001) %MON ke_mean                      =   2.4055000157810E-03
(PID.TID 0000.0001) %MON ke_volint                    =   1.8141657849292E+13
(PID.TID 0000.0001) %MON ke_volmean                   =   8.3127786914749E-04
(PID.TID 0000.0001) %MON ke_vol                       =   2.1823819113454E+16
(PID.TID 0000.0001) %MON surfExpan_theta_mean         =  -2.6096907828468E-06
(PID.TID 0000.0001) %MON surfExpan_salt_mean          =  -6.5153948921550E-22
(PID.TID 0000.0001) // =======================================================
(PID.TID 0000.0001) // End MONITOR dynamic field statistics
(PID.TID 0000.0001) // =======================================================
 cg2d: Sum(rhs),rhsMax =   5.10702591327572E-15  1.48045304356340E+00
(PID.TID 0000.0001)                    cg2d_init_res =    5.73702581094544E-03
(PID.TID 0000.0001)                       cg2d_iters =    27
(PID.TID 0000.0001)                         cg2d_res =    9.26868073272228E-18
(PID.TID 0000.0001) // =======================================================
(PID.TID 0000.0001) // Begin MONITOR dynamic field statistics
(PID.TID 0000.0001) // =======================================================
(PID.TID 0000.0001) %MON time_tsnumber                =                 36004
(PID.TID 0000.0001) %MON time_secondsf                =   3.1107456000000E+09
(PID.TID 0000.0001) %MON dynstat_eta_max              =   1.6173023129750E+00
(PID.TID 0000.0001) %MON dynstat_eta_min              =  -3.9349782910884E+00
(PID.TID 0000.0001) %MON dynstat_eta_mean             =  -1.1486889101021E-16
(PID.TID 0000.0001) %MON dynstat_eta_sd               =   1.6537013341214E+00
(PID.TID 0000.0001) %MON dynstat_eta_del2             =   1.3952629646763E-02
(PID.TID 0000.0001) %MON dynstat_uvel_max             =   1.4280577591685E-01
(PID.TID 0000.0001) %MON dynstat_uvel_min             =  -3.8630832250651E-01
(PID.TID 0000.0001) %MON dynstat_uvel_mean            =   1.2696954706370E-02
(PID.TID 0000.0001) %MON dynstat_uvel_sd              =   3.8723007558047E-02
(PID.TID 0000.0001) %MON dynstat_uvel_del2            =   6.1859751824683E-04
(PID.TID 0000.0001) %MON dynstat_vvel_max             =   2.3076155485913E-02
(PID.TID 0000.0001) %MON dynstat_vvel_min             =  -2.3076155485880E-02
(PID.TID 0000.0001) %MON dynstat_vvel_mean            =   1.8706695163804E-15
(PID.TID 0000.0001) %MON dynstat_vvel_sd              =   1.5560974137877E-03
(PID.TID 0000.0001) %MON dynstat_vvel_del2            =   7.2865050467230E-05
(PID.TID 0000.0001) %MON dynstat_wvel_max             =   1.2492134872684E-06
(PID.TID 0000.0001) %MON dynstat_wvel_min             =  -1.0066853803062E-06
(PID.TID 0000.0001) %MON dynstat_wvel_mean            =  -2.9470308083492E-23
(PID.TID 0000.0001) %MON dynstat_wvel_sd              =   3.1985216645085E-07
(PID.TID 0000.0001) %MON dynstat_wvel_del2            =   3.7010828418559E-08
(PID.TID 0000.0001) %MON dynstat_theta_max            =   2.6659889947504E+01
(PID.TID 0000.0001) %MON dynstat_theta_min            =  -9.3076150550918E-01
(PID.TID 0000.0001) %MON dynstat_theta_mean           =   2.2239939167160E+00
(PID.TID 0000.0001) %MON dynstat_theta_sd             =   3.9267657417171E+00
(PID.TID 0000.0001) %MON dynstat_theta_del2           =   4.1717028804168E-02
(PID.TID 0000.0001) %MON dynstat_salt_max             =   3.4700000000000E+01
(PID.TID 0000.0001) %MON dynstat_salt_min             =   3.4700000000000E+01
(PID.TID 0000.0001) %MON dynstat_salt_mean            =   3.4700000000000E+01
(PID.TID 0000.0001) %MON dynstat_salt_sd              =   4.9737991503207E-14
(PID.TID 0000.0001) %MON dynstat_salt_del2            =   0.0000000000000E+00
(PID.TID 0000.0001) %MON advcfl_uvel_max              =   1.0010565227004E-01
(PID.TID 0000.0001) %MON advcfl_vvel_max              =   5.9777692184990E-03
(PID.TID 0000.0001) %MON advcfl_wvel_max              =   2.1645076852988E-03
(PID.TID 0000.0001) %MON advcfl_W_hf_max              =   5.3966022649995E-03
(PID.TID 0000.0001) %MON ke_max                       =   7.4646486447616E-02
(PID.TID 0000.0001) %MON ke_mean                      =   2.4060802338793E-03
(PID.TID 0000.0001) %MON ke_volint                    =   1.8149610426582E+13
(PID.TID 0000.0001) %MON ke_volmean                   =   8.3164226812133E-04
(PID.TID 0000.0001) %MON ke_vol                       =   2.1823819113454E+16
(PID.TID 0000.0001) %MON surfExpan_theta_mean         =  -3.1823034158610E-06
(PID.TID 0000.0001) %MON surfExpan_salt_mean          =  -1.4874220675847E-22
(PID.TID 0000.0001) // =======================================================
(PID.TID 0000.0001) // End MONITOR dynamic field statistics
(PID.TID 0000.0001) // =======================================================
 cg2d: Sum(rhs),rhsMax =   4.44089209850063E-15  1.47975273764887E+00
(PID.TID 0000.0001)                    cg2d_init_res =    6.24810582021293E-03
(PID.TID 0000.0001)                       cg2d_iters =    27
(PID.TID 0000.0001)                         cg2d_res =    1.53859387512058E-17
(PID.TID 0000.0001) // =======================================================
(PID.TID 0000.0001) // Begin MONITOR dynamic field statistics
(PID.TID 0000.0001) // =======================================================
(PID.TID 0000.0001) %MON time_tsnumber                =                 36005
(PID.TID 0000.0001) %MON time_secondsf                =   3.1108320000000E+09
(PID.TID 0000.0001) %MON dynstat_eta_max              =   1.6165315083105E+00
(PID.TID 0000.0001) %MON dynstat_eta_min              =  -3.9332261978617E+00
(PID.TID 0000.0001) %MON dynstat_eta_mean             =  -1.4327082704979E-16
(PID.TID 0000.0001) %MON dynstat_eta_sd               =   1.6526211940130E+00
(PID.TID 0000.0001) %MON dynstat_eta_del2             =   1.3947988601243E-02
(PID.TID 0000.0001) %MON dynstat_uvel_max             =   1.4283771656441E-01
(PID.TID 0000.0001) %MON dynstat_uvel_min             =  -3.8630842545933E-01
(PID.TID 0000.0001) %MON dynstat_uvel_mean            =   1.2713111201414E-02
(PID.TID 0000.0001) %MON dynstat_uvel_sd              =   3.8728427095390E-02
(PID.TID 0000.0001) %MON dynstat_uvel_del2            =   6.1867639737569E-04
(PID.TID 0000.0001) %MON dynstat_vvel_max             =   2.3097803171014E-02
(PID.TID 0000.0001) %MON dynstat_vvel_min             =  -2.3097803170979E-02
(PID.TID 0000.0001) %MON dynstat_vvel_mean            =   1.7845735327890E-15
(PID.TID 0000.0001) %MON dynstat_vvel_sd              =   1.5583003026383E-03
(PID.TID 0000.0001) %MON dynstat_vvel_del2            =   7.2889752174425E-05
(PID.TID 0000.0001) %MON dynstat_wvel_max             =   1.2893808668435E-06
(PID.TID 0000.0001) %MON dynstat_wvel_min             =  -1.0380382861578E-06
(PID.TID 0000.0001) %MON dynstat_wvel_mean            =  -2.2298113567705E-23
(PID.TID 0000.0001) %MON dynstat_wvel_sd              =   3.3382644809444E-07
(PID.TID 0000.0001) %MON dynstat_wvel_del2            =   3.6952651776843E-08
(PID.TID 0000.0001) %MON dynstat_theta_max            =   2.6661671720261E+01
(PID.TID 0000.0001) %MON dynstat_theta_min            =  -9.3076215311350E-01
(PID.TID 0000.0001) %MON dynstat_theta_mean           =   2.2240379911960E+00
(PID.TID 0000.0001) %MON dynstat_theta_sd             =   3.9269323787908E+00
(PID.TID 0000.0001) %MON dynstat_theta_del2           =   4.1713283665097E-02
(PID.TID 0000.0001) %MON dynstat_salt_max             =   3.4700000000000E+01
(PID.TID 0000.0001) %MON dynstat_salt_min             =   3.4700000000000E+01
(PID.TID 0000.0001) %MON dynstat_salt_mean            =   3.4700000000000E+01
(PID.TID 0000.0001) %MON dynstat_salt_sd              =   4.9737991503207E-14
(PID.TID 0000.0001) %MON dynstat_salt_del2            =   0.0000000000000E+00
(PID.TID 0000.0001) %MON advcfl_uvel_max              =   1.0010567894862E-01
(PID.TID 0000.0001) %MON advcfl_vvel_max              =   5.9833769492027E-03
(PID.TID 0000.0001) %MON advcfl_wvel_max              =   2.3866956494567E-03
(PID.TID 0000.0001) %MON advcfl_W_hf_max              =   5.5701253447638E-03
(PID.TID 0000.0001) %MON ke_max                       =   7.4646548686152E-02
(PID.TID 0000.0001) %MON ke_mean                      =   2.4067527846502E-03
(PID.TID 0000.0001) %MON ke_volint                    =   1.8158746030639E+13
(PID.TID 0000.0001) %MON ke_volmean                   =   8.3206087514923E-04
(PID.TID 0000.0001) %MON ke_vol                       =   2.1823819113454E+16
(PID.TID 0000.0001) %MON surfExpan_theta_mean         =  -3.5762598008741E-06
(PID.TID 0000.0001) %MON surfExpan_salt_mean          =  -9.6902527350558E-22
(PID.TID 0000.0001) // =======================================================
(PID.TID 0000.0001) // End MONITOR dynamic field statistics
(PID.TID 0000.0001) // =======================================================
 cg2d: Sum(rhs),rhsMax =   5.88418203051333E-15  1.47920903838536E+00
(PID.TID 0000.0001)                    cg2d_init_res =    6.56563293804609E-03
(PID.TID 0000.0001)                       cg2d_iters =    27
(PID.TID 0000.0001)                         cg2d_res =    3.24416923529838E-18
(PID.TID 0000.0001) // =======================================================
(PID.TID 0000.0001) // Begin MONITOR dynamic field statistics
(PID.TID 0000.0001) // =======================================================
(PID.TID 0000.0001) %MON time_tsnumber                =                 36006
(PID.TID 0000.0001) %MON time_secondsf                =   3.1109184000000E+09
(PID.TID 0000.0001) %MON dynstat_eta_max              =   1.6159056020557E+00
(PID.TID 0000.0001) %MON dynstat_eta_min              =  -3.9310299588118E+00
(PID.TID 0000.0001) %MON dynstat_eta_mean             =  -9.3153305622405E-17
(PID.TID 0000.0001) %MON dynstat_eta_sd               =   1.6514926282149E+00
(PID.TID 0000.0001) %MON dynstat_eta_del2             =   1.3945733746418E-02
(PID.TID 0000.0001) %MON dynstat_uvel_max             =   1.4287115088039E-01
(PID.TID 0000.0001) %MON dynstat_uvel_min             =  -3.8630862931865E-01
(PID.TID 0000.0001) %MON dynstat_uvel_mean            =   1.2730710276019E-02
(PID.TID 0000.0001) %MON dynstat_uvel_sd              =   3.8734266268672E-02
(PID.TID 0000.0001) %MON dynstat_uvel_del2            =   6.1876418277426E-04
(PID.TID 0000.0001) %MON dynstat_vvel_max             =   2.3114471049658E-02
(PID.TID 0000.0001) %MON dynstat_vvel_min             =  -2.3114471049623E-02
(PID.TID 0000.0001) %MON dynstat_vvel_mean            =   2.3095939149272E-15
(PID.TID 0000.0001) %MON dynstat_vvel_sd              =   1.5597878305480E-03
(PID.TID 0000.0001) %MON dynstat_vvel_del2            =   7.2926481118210E-05
(PID.TID 0000.0001) %MON dynstat_wvel_max             =   1.2961132933301E-06
(PID.TID 0000.0001) %MON dynstat_wvel_min             =  -1.0765478513756E-06
(PID.TID 0000.0001) %MON dynstat_wvel_mean            =  -1.9903993689763E-23
(PID.TID 0000.0001) %MON dynstat_wvel_sd              =   3.4275469731707E-07
(PID.TID 0000.0001) %MON dynstat_wvel_del2            =   3.6912886734661E-08
(PID.TID 0000.0001) %MON dynstat_theta_max            =   2.6663898523575E+01
(PID.TID 0000.0001) %MON dynstat_theta_min            =  -9.3076280013469E-01
(PID.TID 0000.0001) %MON dynstat_theta_mean           =   2.2240884259173E+00
(PID.TID 0000.0001) %MON dynstat_theta_sd             =   3.9271194881285E+00
(PID.TID 0000.0001) %MON dynstat_theta_del2           =   4.1707329907954E-02
(PID.TID 0000.0001) %MON dynstat_salt_max             =   3.4700000000000E+01
(PID.TID 0000.0001) %MON dynstat_salt_min             =   3.4700000000000E+01
(PID.TID 0000.0001) %MON dynstat_salt_mean            =   3.4700000000000E+01
(PID.TID 0000.0001) %MON dynstat_salt_sd              =   4.9737991503207E-14
(PID.TID 0000.0001) %MON dynstat_salt_del2            =   0.0000000000000E+00
(PID.TID 0000.0001) %MON advcfl_uvel_max              =   1.0010573177552E-01
(PID.TID 0000.0001) %MON advcfl_vvel_max              =   5.9876946845361E-03
(PID.TID 0000.0001) %MON advcfl_wvel_max              =   2.6547497436709E-03
(PID.TID 0000.0001) %MON advcfl_W_hf_max              =   5.5992094271859E-03
(PID.TID 0000.0001) %MON ke_max                       =   7.4646639990645E-02
(PID.TID 0000.0001) %MON ke_mean                      =   2.4074852761431E-03
(PID.TID 0000.0001) %MON ke_volint                    =   1.8168619416460E+13
(PID.TID 0000.0001) %MON ke_volmean                   =   8.3251328843996E-04
(PID.TID 0000.0001) %MON ke_vol                       =   2.1823819113454E+16
(PID.TID 0000.0001) %MON surfExpan_theta_mean         =  -3.7892214238406E-06
(PID.TID 0000.0001) %MON surfExpan_salt_mean          =  -3.8602273127146E-22
(PID.TID 0000.0001) // =======================================================
(PID.TID 0000.0001) // End MONITOR dynamic field statistics
(PID.TID 0000.0001) // =======================================================
 cg2d: Sum(rhs),rhsMax =   4.77395900588817E-15  1.47882604419408E+00
(PID.TID 0000.0001)                    cg2d_init_res =    6.66223976938285E-03
(PID.TID 0000.0001)                       cg2d_iters =    27
(PID.TID 0000.0001)                         cg2d_res =    1.11342905797217E-17
(PID.TID 0000.0001) // =======================================================
(PID.TID 0000.0001) // Begin MONITOR dynamic field statistics
(PID.TID 0000.0001) // =======================================================
(PID.TID 0000.0001) %MON time_tsnumber                =                 36007
(PID.TID 0000.0001) %MON time_secondsf                =   3.1110048000000E+09
(PID.TID 0000.0001) %MON dynstat_eta_max              =   1.6154282636592E+00
(PID.TID 0000.0001) %MON dynstat_eta_min              =  -3.9285004210733E+00
(PID.TID 0000.0001) %MON dynstat_eta_mean             =  -1.5613679727589E-16
(PID.TID 0000.0001) %MON dynstat_eta_sd               =   1.6503659492951E+00
(PID.TID 0000.0001) %MON dynstat_eta_del2             =   1.3945506624606E-02
(PID.TID 0000.0001) %MON dynstat_uvel_max             =   1.4290455289613E-01
(PID.TID 0000.0001) %MON dynstat_uvel_min             =  -3.8630889591524E-01
(PID.TID 0000.0001) %MON dynstat_uvel_mean            =   1.2748937966124E-02
(PID.TID 0000.0001) %MON dynstat_uvel_sd              =   3.8740246206773E-02
(PID.TID 0000.0001) %MON dynstat_uvel_del2            =   6.1885724435642E-04
(PID.TID 0000.0001) %MON dynstat_vvel_max             =   2.3124163667457E-02
(PID.TID 0000.0001) %MON dynstat_vvel_min             =  -2.3124163667421E-02
(PID.TID 0000.0001) %MON dynstat_vvel_mean            =   2.4454969579288E-15
(PID.TID 0000.0001) %MON dynstat_vvel_sd              =   1.5603304647640E-03
(PID.TID 0000.0001) %MON dynstat_vvel_del2            =   7.2959665319177E-05
(PID.TID 0000.0001) %MON dynstat_wvel_max             =   1.2757540585904E-06
(PID.TID 0000.0001) %MON dynstat_wvel_min             =  -1.0964527421724E-06
(PID.TID 0000.0001) %MON dynstat_wvel_mean            =  -7.3385449969338E-24
(PID.TID 0000.0001) %MON dynstat_wvel_sd              =   3.4548725059375E-07
(PID.TID 0000.0001) %MON dynstat_wvel_del2            =   3.6892252777527E-08
(PID.TID 0000.0001) %MON dynstat_theta_max            =   2.6666443602046E+01
(PID.TID 0000.0001) %MON dynstat_theta_min            =  -9.3076344673559E-01
(PID.TID 0000.0001) %MON dynstat_theta_mean           =   2.2241421567008E+00
(PID.TID 0000.0001) %MON dynstat_theta_sd             =   3.9273172388465E+00
(PID.TID 0000.0001) %MON dynstat_theta_del2           =   4.1699812957047E-02
(PID.TID 0000.0001) %MON dynstat_salt_max             =   3.4700000000000E+01
(PID.TID 0000.0001) %MON dynstat_salt_min             =   3.4700000000000E+01
(PID.TID 0000.0001) %MON dynstat_salt_mean            =   3.4700000000000E+01
(PID.TID 0000.0001) %MON dynstat_salt_sd              =   4.9737991503207E-14
(PID.TID 0000.0001) %MON dynstat_salt_del2            =   0.0000000000000E+00
(PID.TID 0000.0001) %MON advcfl_uvel_max              =   1.0010580085978E-01
(PID.TID 0000.0001) %MON advcfl_vvel_max              =   5.9902055114526E-03
(PID.TID 0000.0001) %MON advcfl_wvel_max              =   3.0354452877158E-03
(PID.TID 0000.0001) %MON advcfl_W_hf_max              =   5.5112575331104E-03
(PID.TID 0000.0001) %MON ke_max                       =   7.4646743430363E-02
(PID.TID 0000.0001) %MON ke_mean                      =   2.4082427211142E-03
(PID.TID 0000.0001) %MON ke_volint                    =   1.8178762250061E+13
(PID.TID 0000.0001) %MON ke_volmean                   =   8.3297804823054E-04
(PID.TID 0000.0001) %MON ke_vol                       =   2.1823819113454E+16
(PID.TID 0000.0001) %MON surfExpan_theta_mean         =  -3.8255153266240E-06
(PID.TID 0000.0001) %MON surfExpan_salt_mean          =   7.4923706004964E-22
(PID.TID 0000.0001) // =======================================================
(PID.TID 0000.0001) // End MONITOR dynamic field statistics
(PID.TID 0000.0001) // =======================================================
 cg2d: Sum(rhs),rhsMax =   2.99760216648792E-15  1.47856353549035E+00
(PID.TID 0000.0001)                    cg2d_init_res =    6.48778890677779E-03
(PID.TID 0000.0001)                       cg2d_iters =    27
(PID.TID 0000.0001)                         cg2d_res =    3.77267196671955E-18
(PID.TID 0000.0001) // =======================================================
(PID.TID 0000.0001) // Begin MONITOR dynamic field statistics
(PID.TID 0000.0001) // =======================================================
(PID.TID 0000.0001) %MON time_tsnumber                =                 36008
(PID.TID 0000.0001) %MON time_secondsf                =   3.1110912000000E+09
(PID.TID 0000.0001) %MON dynstat_eta_max              =   1.6150659797185E+00
(PID.TID 0000.0001) %MON dynstat_eta_min              =  -3.9258130147372E+00
(PID.TID 0000.0001) %MON dynstat_eta_mean             =  -2.2846868199018E-16
(PID.TID 0000.0001) %MON dynstat_eta_sd               =   1.6492863067685E+00
(PID.TID 0000.0001) %MON dynstat_eta_del2             =   1.3946648040676E-02
(PID.TID 0000.0001) %MON dynstat_uvel_max             =   1.4293658991089E-01
(PID.TID 0000.0001) %MON dynstat_uvel_min             =  -3.8630918364238E-01
(PID.TID 0000.0001) %MON dynstat_uvel_mean            =   1.2766951523493E-02
(PID.TID 0000.0001) %MON dynstat_uvel_sd              =   3.8746092809993E-02
(PID.TID 0000.0001) %MON dynstat_uvel_del2            =   6.1895008740824E-04
(PID.TID 0000.0001) %MON dynstat_vvel_max             =   2.3126199357621E-02
(PID.TID 0000.0001) %MON dynstat_vvel_min             =  -2.3126199357586E-02
(PID.TID 0000.0001) %MON dynstat_vvel_mean            =   2.4754618520231E-15
(PID.TID 0000.0001) %MON dynstat_vvel_sd              =   1.5598724218373E-03
(PID.TID 0000.0001) %MON dynstat_vvel_del2            =   7.2978425839442E-05
(PID.TID 0000.0001) %MON dynstat_wvel_max             =   1.2356372903108E-06
(PID.TID 0000.0001) %MON dynstat_wvel_min             =  -1.0980056233329E-06
(PID.TID 0000.0001) %MON dynstat_wvel_mean            =  -2.3320612737882E-23
(PID.TID 0000.0001) %MON dynstat_wvel_sd              =   3.4120314751879E-07
(PID.TID 0000.0001) %MON dynstat_wvel_del2            =   3.6905559280116E-08
(PID.TID 0000.0001) %MON dynstat_theta_max            =   2.6669115182821E+01
(PID.TID 0000.0001) %MON dynstat_theta_min            =  -9.3076409323173E-01
(PID.TID 0000.0001) %MON dynstat_theta_mean           =   2.2241962094760E+00
(PID.TID 0000.0001) %MON dynstat_theta_sd             =   3.9275159595461E+00
(PID.TID 0000.0001) %MON dynstat_theta_del2           =   4.1691511846332E-02
(PID.TID 0000.0001) %MON dynstat_salt_max             =   3.4700000000000E+01
(PID.TID 0000.0001) %MON dynstat_salt_min             =   3.4700000000000E+01
(PID.TID 0000.0001) %MON dynstat_salt_mean            =   3.4700000000000E+01
(PID.TID 0000.0001) %MON dynstat_salt_sd              =   4.9737991503207E-14
(PID.TID 0000.0001) %MON dynstat_salt_del2            =   0.0000000000000E+00
(PID.TID 0000.0001) %MON advcfl_uvel_max              =   1.0010587541969E-01
(PID.TID 0000.0001) %MON advcfl_vvel_max              =   5.9907328473865E-03
(PID.TID 0000.0001) %MON advcfl_wvel_max              =   3.2248876040906E-03
(PID.TID 0000.0001) %MON advcfl_W_hf_max              =   5.3379530941428E-03
(PID.TID 0000.0001) %MON ke_max                       =   7.4646842052621E-02
(PID.TID 0000.0001) %MON ke_mean                      =   2.4089893835254E-03
(PID.TID 0000.0001) %MON ke_volint                    =   1.8188706765885E+13
(PID.TID 0000.0001) %MON ke_volmean                   =   8.3343372080428E-04
(PID.TID 0000.0001) %MON ke_vol                       =   2.1823819113454E+16
(PID.TID 0000.0001) %MON surfExpan_theta_mean         =  -3.6944253170068E-06
(PID.TID 0000.0001) %MON surfExpan_salt_mean          =  -5.4068374556531E-23
(PID.TID 0000.0001) // =======================================================
(PID.TID 0000.0001) // End MONITOR dynamic field statistics
(PID.TID 0000.0001) // =======================================================
 cg2d: Sum(rhs),rhsMax =   9.99200722162641E-16  1.47836483168513E+00
(PID.TID 0000.0001)                    cg2d_init_res =    6.01713215940877E-03
(PID.TID 0000.0001)                       cg2d_iters =    27
(PID.TID 0000.0001)                         cg2d_res =    7.80273692962179E-18
(PID.TID 0000.0001) // =======================================================
(PID.TID 0000.0001) // Begin MONITOR dynamic field statistics
(PID.TID 0000.0001) // =======================================================
(PID.TID 0000.0001) %MON time_tsnumber                =                 36009
(PID.TID 0000.0001) %MON time_secondsf                =   3.1111776000000E+09
(PID.TID 0000.0001) %MON dynstat_eta_max              =   1.6147724109834E+00
(PID.TID 0000.0001) %MON dynstat_eta_min              =  -3.9231800230724E+00
(PID.TID 0000.0001) %MON dynstat_eta_mean             =  -1.2705429640362E-16
(PID.TID 0000.0001) %MON dynstat_eta_sd               =   1.6482941141687E+00
(PID.TID 0000.0001) %MON dynstat_eta_del2             =   1.3948417633460E-02
(PID.TID 0000.0001) %MON dynstat_uvel_max             =   1.4296613040028E-01
(PID.TID 0000.0001) %MON dynstat_uvel_min             =  -3.8630945152479E-01
(PID.TID 0000.0001) %MON dynstat_uvel_mean            =   1.2783926343939E-02
(PID.TID 0000.0001) %MON dynstat_uvel_sd              =   3.8751547633275E-02
(PID.TID 0000.0001) %MON dynstat_uvel_del2            =   6.1903755990161E-04
(PID.TID 0000.0001) %MON dynstat_vvel_max             =   2.3120985254706E-02
(PID.TID 0000.0001) %MON dynstat_vvel_min             =  -2.3120985254672E-02
(PID.TID 0000.0001) %MON dynstat_vvel_mean            =   3.2164326654851E-15
(PID.TID 0000.0001) %MON dynstat_vvel_sd              =   1.5585440458805E-03
(PID.TID 0000.0001) %MON dynstat_vvel_del2            =   7.2978471150191E-05
(PID.TID 0000.0001) %MON dynstat_wvel_max             =   1.1824024223002E-06
(PID.TID 0000.0001) %MON dynstat_wvel_min             =  -1.0681831552974E-06
(PID.TID 0000.0001) %MON dynstat_wvel_mean            =  -3.5314848819649E-23
(PID.TID 0000.0001) %MON dynstat_wvel_sd              =   3.3009091664321E-07
(PID.TID 0000.0001) %MON dynstat_wvel_del2            =   3.6903279444984E-08
(PID.TID 0000.0001) %MON dynstat_theta_max            =   2.6671705061164E+01
(PID.TID 0000.0001) %MON dynstat_theta_min            =  -9.3076474003337E-01
(PID.TID 0000.0001) %MON dynstat_theta_mean           =   2.2242477870207E+00
(PID.TID 0000.0001) %MON dynstat_theta_sd             =   3.9277065394594E+00
(PID.TID 0000.0001) %MON dynstat_theta_del2           =   4.1683178927233E-02
(PID.TID 0000.0001) %MON dynstat_salt_max             =   3.4700000000000E+01
(PID.TID 0000.0001) %MON dynstat_salt_min             =   3.4700000000000E+01
(PID.TID 0000.0001) %MON dynstat_salt_mean            =   3.4700000000000E+01
(PID.TID 0000.0001) %MON dynstat_salt_sd              =   4.9737991503207E-14
(PID.TID 0000.0001) %MON dynstat_salt_del2            =   0.0000000000000E+00
(PID.TID 0000.0001) %MON advcfl_uvel_max              =   1.0010594483715E-01
(PID.TID 0000.0001) %MON advcfl_vvel_max              =   5.9893821586235E-03
(PID.TID 0000.0001) %MON advcfl_wvel_max              =   3.1595900030670E-03
(PID.TID 0000.0001) %MON advcfl_W_hf_max              =   5.1079784643367E-03
(PID.TID 0000.0001) %MON ke_max                       =   7.4646920568568E-02
(PID.TID 0000.0001) %MON ke_mean                      =   2.4096906927355E-03
(PID.TID 0000.0001) %MON ke_volint                    =   1.8198008416223E+13
(PID.TID 0000.0001) %MON ke_volmean                   =   8.3385993632090E-04
(PID.TID 0000.0001) %MON ke_vol                       =   2.1823819113454E+16
(PID.TID 0000.0001) %MON surfExpan_theta_mean         =  -3.4092128392430E-06
(PID.TID 0000.0001) %MON surfExpan_salt_mean          =  -6.1812937825926E-22
(PID.TID 0000.0001) // =======================================================
(PID.TID 0000.0001) // End MONITOR dynamic field statistics
(PID.TID 0000.0001) // =======================================================
 cg2d: Sum(rhs),rhsMax =   1.66533453693773E-15  1.47818324521451E+00
(PID.TID 0000.0001)                    cg2d_init_res =    5.26769231080247E-03
(PID.TID 0000.0001)                       cg2d_iters =    27
(PID.TID 0000.0001)                         cg2d_res =    5.65739564124751E-18
(PID.TID 0000.0001) // =======================================================
(PID.TID 0000.0001) // Begin MONITOR dynamic field statistics
(PID.TID 0000.0001) // =======================================================
(PID.TID 0000.0001) %MON time_tsnumber                =                 36010
(PID.TID 0000.0001) %MON time_secondsf                =   3.1112640000000E+09
(PID.TID 0000.0001) %MON dynstat_eta_max              =   1.6145097680934E+00
(PID.TID 0000.0001) %MON dynstat_eta_min              =  -3.9208152417835E+00
(PID.TID 0000.0001) %MON dynstat_eta_mean             =  -1.5755246302137E-16
(PID.TID 0000.0001) %MON dynstat_eta_sd               =   1.6474254295561E+00
(PID.TID 0000.0001) %MON dynstat_eta_del2             =   1.3950129531520E-02
(PID.TID 0000.0001) %MON dynstat_uvel_max             =   1.4299222310427E-01
(PID.TID 0000.0001) %MON dynstat_uvel_min             =  -3.8630966400930E-01
(PID.TID 0000.0001) %MON dynstat_uvel_mean            =   1.2799102845424E-02
(PID.TID 0000.0001) %MON dynstat_uvel_sd              =   3.8756376931930E-02
(PID.TID 0000.0001) %MON dynstat_uvel_del2            =   6.1911484165281E-04
(PID.TID 0000.0001) %MON dynstat_vvel_max             =   2.3109695623473E-02
(PID.TID 0000.0001) %MON dynstat_vvel_min             =  -2.3109695623439E-02
(PID.TID 0000.0001) %MON dynstat_vvel_mean            =   3.2954474478661E-15
(PID.TID 0000.0001) %MON dynstat_vvel_sd              =   1.5566362058583E-03
(PID.TID 0000.0001) %MON dynstat_vvel_del2            =   7.2958816250600E-05
(PID.TID 0000.0001) %MON dynstat_wvel_max             =   1.1208253550945E-06
(PID.TID 0000.0001) %MON dynstat_wvel_min             =  -1.0202403857266E-06
(PID.TID 0000.0001) %MON dynstat_wvel_mean            =   2.9281348592551E-24
(PID.TID 0000.0001) %MON dynstat_wvel_sd              =   3.1368570857549E-07
(PID.TID 0000.0001) %MON dynstat_wvel_del2            =   3.6880287713402E-08
(PID.TID 0000.0001) %MON dynstat_theta_max            =   2.6674022016109E+01
(PID.TID 0000.0001) %MON dynstat_theta_min            =  -9.3076538753692E-01
(PID.TID 0000.0001) %MON dynstat_theta_mean           =   2.2242943360413E+00
(PID.TID 0000.0001) %MON dynstat_theta_sd             =   3.9278806206258E+00
(PID.TID 0000.0001) %MON dynstat_theta_del2           =   4.1675511376102E-02
(PID.TID 0000.0001) %MON dynstat_salt_max             =   3.4700000000000E+01
(PID.TID 0000.0001) %MON dynstat_salt_min             =   3.4700000000000E+01
(PID.TID 0000.0001) %MON dynstat_salt_mean            =   3.4700000000000E+01
(PID.TID 0000.0001) %MON dynstat_salt_sd              =   4.9737991503207E-14
(PID.TID 0000.0001) %MON dynstat_salt_del2            =   0.0000000000000E+00
(PID.TID 0000.0001) %MON advcfl_uvel_max              =   1.0010599989913E-01
(PID.TID 0000.0001) %MON advcfl_vvel_max              =   5.9864576329104E-03
(PID.TID 0000.0001) %MON advcfl_wvel_max              =   2.8377375492095E-03
(PID.TID 0000.0001) %MON advcfl_W_hf_max              =   4.8419655340081E-03
(PID.TID 0000.0001) %MON ke_max                       =   7.4646967032754E-02
(PID.TID 0000.0001) %MON ke_mean                      =   2.4103150514894E-03
(PID.TID 0000.0001) %MON ke_volint                    =   1.8206265890829E+13
(PID.TID 0000.0001) %MON ke_volmean                   =   8.3423830614531E-04
(PID.TID 0000.0001) %MON ke_vol                       =   2.1823819113454E+16
(PID.TID 0000.0001) %MON surfExpan_theta_mean         =  -2.9868054767005E-06
(PID.TID 0000.0001) %MON surfExpan_salt_mean          =   1.0780423944488E-21
(PID.TID 0000.0001) // =======================================================
(PID.TID 0000.0001) // End MONITOR dynamic field statistics
(PID.TID 0000.0001) // =======================================================
 cg2d: Sum(rhs),rhsMax =   2.55351295663786E-15  1.47799626928903E+00
(PID.TID 0000.0001)                    cg2d_init_res =    4.29212986381472E-03
(PID.TID 0000.0001)                       cg2d_iters =    27
(PID.TID 0000.0001)                         cg2d_res =    1.73460563210788E-17
(PID.TID 0000.0001) // =======================================================
(PID.TID 0000.0001) // Begin MONITOR dynamic field statistics
(PID.TID 0000.0001) // =======================================================
(PID.TID 0000.0001) %MON time_tsnumber                =                 36011
(PID.TID 0000.0001) %MON time_secondsf                =   3.1113504000000E+09
(PID.TID 0000.0001) %MON dynstat_eta_max              =   1.6142604449324E+00
(PID.TID 0000.0001) %MON dynstat_eta_min              =  -3.9189005445293E+00
(PID.TID 0000.0001) %MON dynstat_eta_mean             =  -1.3114223007313E-16
(PID.TID 0000.0001) %MON dynstat_eta_sd               =   1.6467118583152E+00
(PID.TID 0000.0001) %MON dynstat_eta_del2             =   1.3951263881164E-02
(PID.TID 0000.0001) %MON dynstat_uvel_max             =   1.4301406463282E-01
(PID.TID 0000.0001) %MON dynstat_uvel_min             =  -3.8630979458046E-01
(PID.TID 0000.0001) %MON dynstat_uvel_mean            =   1.2811828596382E-02
(PID.TID 0000.0001) %MON dynstat_uvel_sd              =   3.8760379360890E-02
(PID.TID 0000.0001) %MON dynstat_uvel_del2            =   6.1917795743319E-04
(PID.TID 0000.0001) %MON dynstat_vvel_max             =   2.3093945200876E-02
(PID.TID 0000.0001) %MON dynstat_vvel_min             =  -2.3093945200844E-02
(PID.TID 0000.0001) %MON dynstat_vvel_mean            =   3.2041801807085E-15
(PID.TID 0000.0001) %MON dynstat_vvel_sd              =   1.5545380042538E-03
(PID.TID 0000.0001) %MON dynstat_vvel_del2            =   7.2926824709814E-05
(PID.TID 0000.0001) %MON dynstat_wvel_max             =   1.0533795362770E-06
(PID.TID 0000.0001) %MON dynstat_wvel_min             =  -9.5772208764016E-07
(PID.TID 0000.0001) %MON dynstat_wvel_mean            =   3.2271479501388E-23
(PID.TID 0000.0001) %MON dynstat_wvel_sd              =   2.9473015138609E-07
(PID.TID 0000.0001) %MON dynstat_wvel_del2            =   3.6850567819224E-08
(PID.TID 0000.0001) %MON dynstat_theta_max            =   2.6675911371450E+01
(PID.TID 0000.0001) %MON dynstat_theta_min            =  -9.3076603611125E-01
(PID.TID 0000.0001) %MON dynstat_theta_mean           =   2.2243336061912E+00
(PID.TID 0000.0001) %MON dynstat_theta_sd             =   3.9280308107582E+00
(PID.TID 0000.0001) %MON dynstat_theta_del2           =   4.1669124945486E-02
(PID.TID 0000.0001) %MON dynstat_salt_max             =   3.4700000000000E+01
(PID.TID 0000.0001) %MON dynstat_salt_min             =   3.4700000000000E+01
(PID.TID 0000.0001) %MON dynstat_salt_mean            =   3.4700000000000E+01
(PID.TID 0000.0001) %MON dynstat_salt_sd              =   4.9737991503207E-14
(PID.TID 0000.0001) %MON dynstat_salt_del2            =   0.0000000000000E+00
(PID.TID 0000.0001) %MON advcfl_uvel_max              =   1.0010603373457E-01
(PID.TID 0000.0001) %MON advcfl_vvel_max              =   5.9823775602384E-03
(PID.TID 0000.0001) %MON advcfl_wvel_max              =   2.2976367058670E-03
(PID.TID 0000.0001) %MON advcfl_W_hf_max              =   4.5505995967167E-03
(PID.TID 0000.0001) %MON ke_max                       =   7.4646973828181E-02
(PID.TID 0000.0001) %MON ke_mean                      =   2.4108353946489E-03
(PID.TID 0000.0001) %MON ke_volint                    =   1.8213137633257E+13
(PID.TID 0000.0001) %MON ke_volmean                   =   8.3455317965083E-04
(PID.TID 0000.0001) %MON ke_vol                       =   2.1823819113454E+16
(PID.TID 0000.0001) %MON surfExpan_theta_mean         =  -2.4478797652635E-06
(PID.TID 0000.0001) %MON surfExpan_salt_mean          =  -1.2408840946726E-21
(PID.TID 0000.0001) // =======================================================
(PID.TID 0000.0001) // End MONITOR dynamic field statistics
(PID.TID 0000.0001) // =======================================================
 cg2d: Sum(rhs),rhsMax =   2.44249065417534E-15  1.47780668052794E+00
(PID.TID 0000.0001)                    cg2d_init_res =    3.16143000625978E-03
(PID.TID 0000.0001)                       cg2d_iters =    27
(PID.TID 0000.0001)                         cg2d_res =    3.74767752796955E-18
(PID.TID 0000.0001) // =======================================================
(PID.TID 0000.0001) // Begin MONITOR dynamic field statistics
(PID.TID 0000.0001) // =======================================================
(PID.TID 0000.0001) %MON time_tsnumber                =                 36012
(PID.TID 0000.0001) %MON time_secondsf                =   3.1114368000000E+09
(PID.TID 0000.0001) %MON dynstat_eta_max              =   1.6140285268055E+00
(PID.TID 0000.0001) %MON dynstat_eta_min              =  -3.9175617643684E+00
(PID.TID 0000.0001) %MON dynstat_eta_mean             =  -8.6820303322837E-17
(PID.TID 0000.0001) %MON dynstat_eta_sd               =   1.6461798111188E+00
(PID.TID 0000.0001) %MON dynstat_eta_del2             =   1.3951552569595E-02
(PID.TID 0000.0001) %MON dynstat_uvel_max             =   1.4303097610741E-01
(PID.TID 0000.0001) %MON dynstat_uvel_min             =  -3.8630982739276E-01
(PID.TID 0000.0001) %MON dynstat_uvel_mean            =   1.2821591837122E-02
(PID.TID 0000.0001) %MON dynstat_uvel_sd              =   3.8763392760799E-02
(PID.TID 0000.0001) %MON dynstat_uvel_del2            =   6.1922411238702E-04
(PID.TID 0000.0001) %MON dynstat_vvel_max             =   2.3075491693795E-02
(PID.TID 0000.0001) %MON dynstat_vvel_min             =  -2.3075491693764E-02
(PID.TID 0000.0001) %MON dynstat_vvel_mean            =   3.0736277656178E-15
(PID.TID 0000.0001) %MON dynstat_vvel_sd              =   1.5526543667658E-03
(PID.TID 0000.0001) %MON dynstat_vvel_del2            =   7.2910283408631E-05
(PID.TID 0000.0001) %MON dynstat_wvel_max             =   1.1258380502770E-06
(PID.TID 0000.0001) %MON dynstat_wvel_min             =  -8.8433489077455E-07
(PID.TID 0000.0001) %MON dynstat_wvel_mean            =  -1.7019870440481E-23
(PID.TID 0000.0001) %MON dynstat_wvel_sd              =   2.7665916676266E-07
(PID.TID 0000.0001) %MON dynstat_wvel_del2            =   3.6831318017068E-08
(PID.TID 0000.0001) %MON dynstat_theta_max            =   2.6677264704413E+01
(PID.TID 0000.0001) %MON dynstat_theta_min            =  -9.3076668598605E-01
(PID.TID 0000.0001) %MON dynstat_theta_mean           =   2.2243637082857E+00
(PID.TID 0000.0001) %MON dynstat_theta_sd             =   3.9281510173063E+00
(PID.TID 0000.0001) %MON dynstat_theta_del2           =   4.1664438481217E-02
(PID.TID 0000.0001) %MON dynstat_salt_max             =   3.4700000000000E+01
(PID.TID 0000.0001) %MON dynstat_salt_min             =   3.4700000000000E+01
(PID.TID 0000.0001) %MON dynstat_salt_mean            =   3.4700000000000E+01
(PID.TID 0000.0001) %MON dynstat_salt_sd              =   4.9737991503207E-14
(PID.TID 0000.0001) %MON dynstat_salt_del2            =   0.0000000000000E+00
(PID.TID 0000.0001) %MON advcfl_uvel_max              =   1.0010604223735E-01
(PID.TID 0000.0001) %MON advcfl_vvel_max              =   5.9775972662821E-03
(PID.TID 0000.0001) %MON advcfl_wvel_max              =   1.6212067923988E-03
(PID.TID 0000.0001) %MON advcfl_W_hf_max              =   4.8636203771964E-03
(PID.TID 0000.0001) %MON ke_max                       =   7.4646937801263E-02
(PID.TID 0000.0001) %MON ke_mean                      =   2.4112304087541E-03
(PID.TID 0000.0001) %MON ke_volint                    =   1.8218354654783E+13
(PID.TID 0000.0001) %MON ke_volmean                   =   8.3479223137217E-04
(PID.TID 0000.0001) %MON ke_vol                       =   2.1823819113454E+16
(PID.TID 0000.0001) %MON surfExpan_theta_mean         =  -1.8169820569851E-06
(PID.TID 0000.0001) %MON surfExpan_salt_mean          =   6.4808910885020E-24
(PID.TID 0000.0001) // =======================================================
(PID.TID 0000.0001) // End MONITOR dynamic field statistics
(PID.TID 0000.0001) // =======================================================
 cg2d: Sum(rhs),rhsMax =  -9.99200722162641E-16  1.47763547644688E+00
(PID.TID 0000.0001)                    cg2d_init_res =    1.95212605933275E-03
(PID.TID 0000.0001)                       cg2d_iters =    27
(PID.TID 0000.0001)                         cg2d_res =    6.83013682310474E-18
(PID.TID 0000.0001) // =======================================================
(PID.TID 0000.0001) // Begin MONITOR dynamic field statistics
(PID.TID 0000.0001) // =======================================================
(PID.TID 0000.0001) %MON time_tsnumber                =                 36013
(PID.TID 0000.0001) %MON time_secondsf                =   3.1115232000000E+09
(PID.TID 0000.0001) %MON dynstat_eta_max              =   1.6138344023826E+00
(PID.TID 0000.0001) %MON dynstat_eta_min              =  -3.9168576573148E+00
(PID.TID 0000.0001) %MON dynstat_eta_mean             =  -1.1912838609831E-16
(PID.TID 0000.0001) %MON dynstat_eta_sd               =   1.6458492124183E+00
(PID.TID 0000.0001) %MON dynstat_eta_del2             =   1.3951008183228E-02
(PID.TID 0000.0001) %MON dynstat_uvel_max             =   1.4304240394124E-01
(PID.TID 0000.0001) %MON dynstat_uvel_min             =  -3.8630975698227E-01
(PID.TID 0000.0001) %MON dynstat_uvel_mean            =   1.2828043954494E-02
(PID.TID 0000.0001) %MON dynstat_uvel_sd              =   3.8765300158126E-02
(PID.TID 0000.0001) %MON dynstat_uvel_del2            =   6.1925181906007E-04
(PID.TID 0000.0001) %MON dynstat_vvel_max             =   2.3055994384458E-02
(PID.TID 0000.0001) %MON dynstat_vvel_min             =  -2.3055994384429E-02
(PID.TID 0000.0001) %MON dynstat_vvel_mean            =   2.9681097349813E-15
(PID.TID 0000.0001) %MON dynstat_vvel_sd              =   1.5513257946032E-03
(PID.TID 0000.0001) %MON dynstat_vvel_del2            =   7.2917219005508E-05
(PID.TID 0000.0001) %MON dynstat_wvel_max             =   1.2290876651263E-06
(PID.TID 0000.0001) %MON dynstat_wvel_min             =  -8.4388604682618E-07
(PID.TID 0000.0001) %MON dynstat_wvel_mean            =   1.8588761460968E-23
(PID.TID 0000.0001) %MON dynstat_wvel_sd              =   2.6283349599215E-07
(PID.TID 0000.0001) %MON dynstat_wvel_del2            =   3.6833864146996E-08
(PID.TID 0000.0001) %MON dynstat_theta_max            =   2.6678022168020E+01
(PID.TID 0000.0001) %MON dynstat_theta_min            =  -9.3076733726592E-01
(PID.TID 0000.0001) %MON dynstat_theta_mean           =   2.2243831731870E+00
(PID.TID 0000.0001) %MON dynstat_theta_sd             =   3.9282366475032E+00
(PID.TID 0000.0001) %MON dynstat_theta_del2           =   4.1661647698282E-02
(PID.TID 0000.0001) %MON dynstat_salt_max             =   3.4700000000000E+01
(PID.TID 0000.0001) %MON dynstat_salt_min             =   3.4700000000000E+01
(PID.TID 0000.0001) %MON dynstat_salt_mean            =   3.4700000000000E+01
(PID.TID 0000.0001) %MON dynstat_salt_sd              =   4.9737991503207E-14
(PID.TID 0000.0001) %MON dynstat_salt_del2            =   0.0000000000000E+00
(PID.TID 0000.0001) %MON advcfl_uvel_max              =   1.0010602399159E-01
(PID.TID 0000.0001) %MON advcfl_vvel_max              =   5.9725465802756E-03
(PID.TID 0000.0001) %MON advcfl_wvel_max              =   1.7698862377818E-03
(PID.TID 0000.0001) %MON advcfl_W_hf_max              =   5.3096587133454E-03
(PID.TID 0000.0001) %MON ke_max                       =   7.4646859711462E-02
(PID.TID 0000.0001) %MON ke_mean                      =   2.4114853707568E-03
(PID.TID 0000.0001) %MON ke_volint                    =   1.8221729735277E+13
(PID.TID 0000.0001) %MON ke_volmean                   =   8.3494688260334E-04
(PID.TID 0000.0001) %MON ke_vol                       =   2.1823819113454E+16
(PID.TID 0000.0001) %MON surfExpan_theta_mean         =  -1.1223708820471E-06
(PID.TID 0000.0001) %MON surfExpan_salt_mean          =  -1.5627277195222E-22
(PID.TID 0000.0001) // =======================================================
(PID.TID 0000.0001) // End MONITOR dynamic field statistics
(PID.TID 0000.0001) // =======================================================
 cg2d: Sum(rhs),rhsMax =   1.44328993201270E-15  1.47751210720220E+00
(PID.TID 0000.0001)                    cg2d_init_res =    7.74736417552807E-04
(PID.TID 0000.0001)                       cg2d_iters =    27
(PID.TID 0000.0001)                         cg2d_res =    5.65391980194160E-18
(PID.TID 0000.0001) // =======================================================
(PID.TID 0000.0001) // Begin MONITOR dynamic field statistics
(PID.TID 0000.0001) // =======================================================
(PID.TID 0000.0001) %MON time_tsnumber                =                 36014
(PID.TID 0000.0001) %MON time_secondsf                =   3.1116096000000E+09
(PID.TID 0000.0001) %MON dynstat_eta_max              =   1.6137063164357E+00
(PID.TID 0000.0001) %MON dynstat_eta_min              =  -3.9167820133482E+00
(PID.TID 0000.0001) %MON dynstat_eta_mean             =  -2.0209026175532E-16
(PID.TID 0000.0001) %MON dynstat_eta_sd               =   1.6457319535809E+00
(PID.TID 0000.0001) %MON dynstat_eta_del2             =   1.3949884015154E-02
(PID.TID 0000.0001) %MON dynstat_uvel_max             =   1.4304794792596E-01
(PID.TID 0000.0001) %MON dynstat_uvel_min             =  -3.8630958658486E-01
(PID.TID 0000.0001) %MON dynstat_uvel_mean            =   1.2831010068951E-02
(PID.TID 0000.0001) %MON dynstat_uvel_sd              =   3.8766034721165E-02
(PID.TID 0000.0001) %MON dynstat_uvel_del2            =   6.1926085237339E-04
(PID.TID 0000.0001) %MON dynstat_vvel_max             =   2.3036855054027E-02
(PID.TID 0000.0001) %MON dynstat_vvel_min             =  -2.3036855053999E-02
(PID.TID 0000.0001) %MON dynstat_vvel_mean            =   2.4552277069199E-15
(PID.TID 0000.0001) %MON dynstat_vvel_sd              =   1.5507685510003E-03
(PID.TID 0000.0001) %MON dynstat_vvel_del2            =   7.2930701371439E-05
(PID.TID 0000.0001) %MON dynstat_wvel_max             =   1.3297855071523E-06
(PID.TID 0000.0001) %MON dynstat_wvel_min             =  -8.3933199637143E-07
(PID.TID 0000.0001) %MON dynstat_wvel_mean            =   1.4165974454292E-23
(PID.TID 0000.0001) %MON dynstat_wvel_sd              =   2.5566100611045E-07
(PID.TID 0000.0001) %MON dynstat_wvel_del2            =   3.6863647952759E-08
(PID.TID 0000.0001) %MON dynstat_theta_max            =   2.6678169100592E+01
(PID.TID 0000.0001) %MON dynstat_theta_min            =  -9.3076798988226E-01
(PID.TID 0000.0001) %MON dynstat_theta_mean           =   2.2243910077168E+00
(PID.TID 0000.0001) %MON dynstat_theta_sd             =   3.9282847996989E+00
(PID.TID 0000.0001) %MON dynstat_theta_del2           =   4.1660735645810E-02
(PID.TID 0000.0001) %MON dynstat_salt_max             =   3.4700000000000E+01
(PID.TID 0000.0001) %MON dynstat_salt_min             =   3.4700000000000E+01
(PID.TID 0000.0001) %MON dynstat_salt_mean            =   3.4700000000000E+01
(PID.TID 0000.0001) %MON dynstat_salt_sd              =   4.9737991503207E-14
(PID.TID 0000.0001) %MON dynstat_salt_del2            =   0.0000000000000E+00
(PID.TID 0000.0001) %MON advcfl_uvel_max              =   1.0010597983582E-01
(PID.TID 0000.0001) %MON advcfl_vvel_max              =   5.9675886270159E-03
(PID.TID 0000.0001) %MON advcfl_wvel_max              =   1.9148911302993E-03
(PID.TID 0000.0001) %MON advcfl_W_hf_max              =   5.7446733908980E-03
(PID.TID 0000.0001) %MON ke_max                       =   7.4646743281860E-02
(PID.TID 0000.0001) %MON ke_mean                      =   2.4115925973653E-03
(PID.TID 0000.0001) %MON ke_volint                    =   1.8223163052629E+13
(PID.TID 0000.0001) %MON ke_volmean                   =   8.3501255934599E-04
(PID.TID 0000.0001) %MON ke_vol                       =   2.1823819113454E+16
(PID.TID 0000.0001) %MON surfExpan_theta_mean         =  -3.9538146127776E-07
(PID.TID 0000.0001) %MON surfExpan_salt_mean          =   4.9795862343641E-22
(PID.TID 0000.0001) // =======================================================
(PID.TID 0000.0001) // End MONITOR dynamic field statistics
(PID.TID 0000.0001) // =======================================================
 cg2d: Sum(rhs),rhsMax =   1.22124532708767E-15  1.47746537587971E+00
(PID.TID 0000.0001)                    cg2d_init_res =    7.12246308593107E-04
(PID.TID 0000.0001)                       cg2d_iters =    27
(PID.TID 0000.0001)                         cg2d_res =    1.16545200773995E-17
(PID.TID 0000.0001) // =======================================================
(PID.TID 0000.0001) // Begin MONITOR dynamic field statistics
(PID.TID 0000.0001) // =======================================================
(PID.TID 0000.0001) %MON time_tsnumber                =                 36015
(PID.TID 0000.0001) %MON time_secondsf                =   3.1116960000000E+09
(PID.TID 0000.0001) %MON dynstat_eta_max              =   1.6136717837935E+00
(PID.TID 0000.0001) %MON dynstat_eta_min              =  -3.9172760814640E+00
(PID.TID 0000.0001) %MON dynstat_eta_mean             =  -9.1755818570293E-17
(PID.TID 0000.0001) %MON dynstat_eta_sd               =   1.6458304805075E+00
(PID.TID 0000.0001) %MON dynstat_eta_del2             =   1.3948578775468E-02
(PID.TID 0000.0001) %MON dynstat_uvel_max             =   1.4304740762949E-01
(PID.TID 0000.0001) %MON dynstat_uvel_min             =  -3.8630932575152E-01
(PID.TID 0000.0001) %MON dynstat_uvel_mean            =   1.2830488336596E-02
(PID.TID 0000.0001) %MON dynstat_uvel_sd              =   3.8765583110183E-02
(PID.TID 0000.0001) %MON dynstat_uvel_del2            =   6.1925209156874E-04
(PID.TID 0000.0001) %MON dynstat_vvel_max             =   2.3019145966175E-02
(PID.TID 0000.0001) %MON dynstat_vvel_min             =  -2.3019145966147E-02
(PID.TID 0000.0001) %MON dynstat_vvel_mean            =   2.2866954532870E-15
(PID.TID 0000.0001) %MON dynstat_vvel_sd              =   1.5510445670746E-03
(PID.TID 0000.0001) %MON dynstat_vvel_del2            =   7.2945654659919E-05
(PID.TID 0000.0001) %MON dynstat_wvel_max             =   1.4227049124925E-06
(PID.TID 0000.0001) %MON dynstat_wvel_min             =  -8.2727782270239E-07
(PID.TID 0000.0001) %MON dynstat_wvel_mean            =   7.4167382126220E-25
(PID.TID 0000.0001) %MON dynstat_wvel_sd              =   2.5590228929871E-07
(PID.TID 0000.0001) %MON dynstat_wvel_del2            =   3.6899171107872E-08
(PID.TID 0000.0001) %MON dynstat_theta_max            =   2.6677728756314E+01
(PID.TID 0000.0001) %MON dynstat_theta_min            =  -9.3076864365360E-01
(PID.TID 0000.0001) %MON dynstat_theta_mean           =   2.2243867409225E+00
(PID.TID 0000.0001) %MON dynstat_theta_sd             =   3.9282943379644E+00
(PID.TID 0000.0001) %MON dynstat_theta_del2           =   4.1661503504441E-02
(PID.TID 0000.0001) %MON dynstat_salt_max             =   3.4700000000000E+01
(PID.TID 0000.0001) %MON dynstat_salt_min             =   3.4700000000000E+01
(PID.TID 0000.0001) %MON dynstat_salt_mean            =   3.4700000000000E+01
(PID.TID 0000.0001) %MON dynstat_salt_sd              =   4.9737991503207E-14
(PID.TID 0000.0001) %MON dynstat_salt_del2            =   0.0000000000000E+00
(PID.TID 0000.0001) %MON advcfl_uvel_max              =   1.0010591224501E-01
(PID.TID 0000.0001) %MON advcfl_vvel_max              =   5.9630011713490E-03
(PID.TID 0000.0001) %MON advcfl_wvel_max              =   2.0486950739891E-03
(PID.TID 0000.0001) %MON advcfl_W_hf_max              =   6.1460852219674E-03
(PID.TID 0000.0001) %MON ke_max                       =   7.4646594134964E-02
(PID.TID 0000.0001) %MON ke_mean                      =   2.4115515167184E-03
(PID.TID 0000.0001) %MON ke_volint                    =   1.8222644129252E+13
(PID.TID 0000.0001) %MON ke_volmean                   =   8.3498878150149E-04
(PID.TID 0000.0001) %MON ke_vol                       =   2.1823819113454E+16
(PID.TID 0000.0001) %MON surfExpan_theta_mean         =   3.3073960214690E-07
(PID.TID 0000.0001) %MON surfExpan_salt_mean          =   1.8196608521217E-23
(PID.TID 0000.0001) // =======================================================
(PID.TID 0000.0001) // End MONITOR dynamic field statistics
(PID.TID 0000.0001) // =======================================================
 cg2d: Sum(rhs),rhsMax =   6.77236045021345E-15  1.47751648332478E+00
(PID.TID 0000.0001)                    cg2d_init_res =    1.78897561230779E-03
(PID.TID 0000.0001)                       cg2d_iters =    27
(PID.TID 0000.0001)                         cg2d_res =    1.42468125664523E-17
(PID.TID 0000.0001) // =======================================================
(PID.TID 0000.0001) // Begin MONITOR dynamic field statistics
(PID.TID 0000.0001) // =======================================================
(PID.TID 0000.0001) %MON time_tsnumber                =                 36016
(PID.TID 0000.0001) %MON time_secondsf                =   3.1117824000000E+09
(PID.TID 0000.0001) %MON dynstat_eta_max              =   1.6137506186687E+00
(PID.TID 0000.0001) %MON dynstat_eta_min              =  -3.9182467743989E+00
(PID.TID 0000.0001) %MON dynstat_eta_mean             =  -9.8922768427788E-17
(PID.TID 0000.0001) %MON dynstat_eta_sd               =   1.6461368901617E+00
(PID.TID 0000.0001) %MON dynstat_eta_del2             =   1.3947510775464E-02
(PID.TID 0000.0001) %MON dynstat_uvel_max             =   1.4304083090623E-01
(PID.TID 0000.0001) %MON dynstat_uvel_min             =  -3.8630898791362E-01
(PID.TID 0000.0001) %MON dynstat_uvel_mean            =   1.2826639619240E-02
(PID.TID 0000.0001) %MON dynstat_uvel_sd              =   3.8763986543639E-02
(PID.TID 0000.0001) %MON dynstat_uvel_del2            =   6.1922730658082E-04
(PID.TID 0000.0001) %MON dynstat_vvel_max             =   2.3003602560780E-02
(PID.TID 0000.0001) %MON dynstat_vvel_min             =  -2.3003602560752E-02
(PID.TID 0000.0001) %MON dynstat_vvel_mean            =   2.2806074185049E-15
(PID.TID 0000.0001) %MON dynstat_vvel_sd              =   1.5520619570618E-03
(PID.TID 0000.0001) %MON dynstat_vvel_del2            =   7.2964691511418E-05
(PID.TID 0000.0001) %MON dynstat_wvel_max             =   1.5045272121902E-06
(PID.TID 0000.0001) %MON dynstat_wvel_min             =  -8.0893749522009E-07
(PID.TID 0000.0001) %MON dynstat_wvel_mean            =   4.3227443724328E-24
(PID.TID 0000.0001) %MON dynstat_wvel_sd              =   2.6256247572989E-07
(PID.TID 0000.0001) %MON dynstat_wvel_del2            =   3.6917808981163E-08
(PID.TID 0000.0001) %MON dynstat_theta_max            =   2.6676753193593E+01
(PID.TID 0000.0001) %MON dynstat_theta_min            =  -9.3076929828790E-01
(PID.TID 0000.0001) %MON dynstat_theta_mean           =   2.2243704521105E+00
(PID.TID 0000.0001) %MON dynstat_theta_sd             =   3.9282659254876E+00
(PID.TID 0000.0001) %MON dynstat_theta_del2           =   4.1663647686073E-02
(PID.TID 0000.0001) %MON dynstat_salt_max             =   3.4700000000000E+01
(PID.TID 0000.0001) %MON dynstat_salt_min             =   3.4700000000000E+01
(PID.TID 0000.0001) %MON dynstat_salt_mean            =   3.4700000000000E+01
(PID.TID 0000.0001) %MON dynstat_salt_sd              =   4.9737991503207E-14
(PID.TID 0000.0001) %MON dynstat_salt_del2            =   0.0000000000000E+00
(PID.TID 0000.0001) %MON advcfl_uvel_max              =   1.0010582469970E-01
(PID.TID 0000.0001) %MON advcfl_vvel_max              =   5.9589747255064E-03
(PID.TID 0000.0001) %MON advcfl_wvel_max              =   2.1665191855539E-03
(PID.TID 0000.0001) %MON advcfl_W_hf_max              =   6.4995575566617E-03
(PID.TID 0000.0001) %MON ke_max                       =   7.4646418845960E-02
(PID.TID 0000.0001) %MON ke_mean                      =   2.4113683892890E-03
(PID.TID 0000.0001) %MON ke_volint                    =   1.8220249943738E+13
(PID.TID 0000.0001) %MON ke_volmean                   =   8.3487907634396E-04
(PID.TID 0000.0001) %MON ke_vol                       =   2.1823819113454E+16
(PID.TID 0000.0001) %MON surfExpan_theta_mean         =   1.0224476616224E-06
(PID.TID 0000.0001) %MON surfExpan_salt_mean          =  -5.3345453842113E-22
(PID.TID 0000.0001) // =======================================================
(PID.TID 0000.0001) // End MONITOR dynamic field statistics
(PID.TID 0000.0001) // =======================================================
 cg2d: Sum(rhs),rhsMax =   4.21884749357559E-15  1.47767481171484E+00
(PID.TID 0000.0001)                    cg2d_init_res =    2.82277779244745E-03
(PID.TID 0000.0001)                       cg2d_iters =    27
(PID.TID 0000.0001)                         cg2d_res =    1.19578748554224E-17
(PID.TID 0000.0001) // =======================================================
(PID.TID 0000.0001) // Begin MONITOR dynamic field statistics
(PID.TID 0000.0001) // =======================================================
(PID.TID 0000.0001) %MON time_tsnumber                =                 36017
(PID.TID 0000.0001) %MON time_secondsf                =   3.1118688000000E+09
(PID.TID 0000.0001) %MON dynstat_eta_max              =   1.6139504963062E+00
(PID.TID 0000.0001) %MON dynstat_eta_min              =  -3.9195857248370E+00
(PID.TID 0000.0001) %MON dynstat_eta_mean             =  -6.6805561932598E-17
(PID.TID 0000.0001) %MON dynstat_eta_sd               =   1.6466328058741E+00
(PID.TID 0000.0001) %MON dynstat_eta_del2             =   1.3947012677466E-02
(PID.TID 0000.0001) %MON dynstat_uvel_max             =   1.4302854749529E-01
(PID.TID 0000.0001) %MON dynstat_uvel_min             =  -3.8630858833962E-01
(PID.TID 0000.0001) %MON dynstat_uvel_mean            =   1.2819769727536E-02
(PID.TID 0000.0001) %MON dynstat_uvel_sd              =   3.8761339006769E-02
(PID.TID 0000.0001) %MON dynstat_uvel_del2            =   6.1918892513437E-04
(PID.TID 0000.0001) %MON dynstat_vvel_max             =   2.2990677695619E-02
(PID.TID 0000.0001) %MON dynstat_vvel_min             =  -2.2990677695591E-02
(PID.TID 0000.0001) %MON dynstat_vvel_mean            =   1.8376870232110E-15
(PID.TID 0000.0001) %MON dynstat_vvel_sd              =   1.5536020640510E-03
(PID.TID 0000.0001) %MON dynstat_vvel_del2            =   7.2980599051761E-05
(PID.TID 0000.0001) %MON dynstat_wvel_max             =   1.5734837368272E-06
(PID.TID 0000.0001) %MON dynstat_wvel_min             =  -8.1248453118562E-07
(PID.TID 0000.0001) %MON dynstat_wvel_mean            =   1.6262535635162E-23
(PID.TID 0000.0001) %MON dynstat_wvel_sd              =   2.7343665869085E-07
(PID.TID 0000.0001) %MON dynstat_wvel_del2            =   3.6916933969730E-08
(PID.TID 0000.0001) %MON dynstat_theta_max            =   2.6675314136747E+01
(PID.TID 0000.0001) %MON dynstat_theta_min            =  -9.3076995343871E-01
(PID.TID 0000.0001) %MON dynstat_theta_mean           =   2.2243427715015E+00
(PID.TID 0000.0001) %MON dynstat_theta_sd             =   3.9282019329884E+00
(PID.TID 0000.0001) %MON dynstat_theta_del2           =   4.1666868752554E-02
(PID.TID 0000.0001) %MON dynstat_salt_max             =   3.4700000000000E+01
(PID.TID 0000.0001) %MON dynstat_salt_min             =   3.4700000000000E+01
(PID.TID 0000.0001) %MON dynstat_salt_mean            =   3.4700000000000E+01
(PID.TID 0000.0001) %MON dynstat_salt_sd              =   4.9737991503207E-14
(PID.TID 0000.0001) %MON dynstat_salt_del2            =   0.0000000000000E+00
(PID.TID 0000.0001) %MON advcfl_uvel_max              =   1.0010572115645E-01
(PID.TID 0000.0001) %MON advcfl_vvel_max              =   5.9556266001585E-03
(PID.TID 0000.0001) %MON advcfl_wvel_max              =   2.2658165810311E-03
(PID.TID 0000.0001) %MON advcfl_W_hf_max              =   6.7974497430934E-03
(PID.TID 0000.0001) %MON ke_max                       =   7.4646224239051E-02
(PID.TID 0000.0001) %MON ke_mean                      =   2.4110557206137E-03
(PID.TID 0000.0001) %MON ke_volint                    =   1.8216139201976E+13
(PID.TID 0000.0001) %MON ke_volmean                   =   8.3469071601432E-04
(PID.TID 0000.0001) %MON ke_vol                       =   2.1823819113454E+16
(PID.TID 0000.0001) %MON surfExpan_theta_mean         =   1.6477814675153E-06
(PID.TID 0000.0001) %MON surfExpan_salt_mean          =   8.1286085500939E-22
(PID.TID 0000.0001) // =======================================================
(PID.TID 0000.0001) // End MONITOR dynamic field statistics
(PID.TID 0000.0001) // =======================================================
 cg2d: Sum(rhs),rhsMax =   5.99520433297585E-15  1.47793645919979E+00
(PID.TID 0000.0001)                    cg2d_init_res =    3.71586213906195E-03
(PID.TID 0000.0001)                       cg2d_iters =    27
(PID.TID 0000.0001)                         cg2d_res =    6.28483322150830E-18
(PID.TID 0000.0001) // =======================================================
(PID.TID 0000.0001) // Begin MONITOR dynamic field statistics
(PID.TID 0000.0001) // =======================================================
(PID.TID 0000.0001) %MON time_tsnumber                =                 36018
(PID.TID 0000.0001) %MON time_secondsf                =   3.1119552000000E+09
(PID.TID 0000.0001) %MON dynstat_eta_max              =   1.6142653134645E+00
(PID.TID 0000.0001) %MON dynstat_eta_min              =  -3.9211850563994E+00
(PID.TID 0000.0001) %MON dynstat_eta_mean             =  -3.4891729569382E-17
(PID.TID 0000.0001) %MON dynstat_eta_sd               =   1.6472901457176E+00
(PID.TID 0000.0001) %MON dynstat_eta_del2             =   1.3947261944468E-02
(PID.TID 0000.0001) %MON dynstat_uvel_max             =   1.4301117613766E-01
(PID.TID 0000.0001) %MON dynstat_uvel_min             =  -3.8630814271134E-01
(PID.TID 0000.0001) %MON dynstat_uvel_mean            =   1.2810306513982E-02
(PID.TID 0000.0001) %MON dynstat_uvel_sd              =   3.8757782328258E-02
(PID.TID 0000.0001) %MON dynstat_uvel_del2            =   6.1913980875821E-04
(PID.TID 0000.0001) %MON dynstat_vvel_max             =   2.2980620906865E-02
(PID.TID 0000.0001) %MON dynstat_vvel_min             =  -2.2980620906837E-02
(PID.TID 0000.0001) %MON dynstat_vvel_mean            =   1.3240924497611E-15
(PID.TID 0000.0001) %MON dynstat_vvel_sd              =   1.5553659745183E-03
(PID.TID 0000.0001) %MON dynstat_vvel_del2            =   7.2995045293341E-05
(PID.TID 0000.0001) %MON dynstat_wvel_max             =   1.6288507001787E-06
(PID.TID 0000.0001) %MON dynstat_wvel_min             =  -8.1371265213526E-07
(PID.TID 0000.0001) %MON dynstat_wvel_mean            =  -1.3646101274559E-23
(PID.TID 0000.0001) %MON dynstat_wvel_sd              =   2.8589054428387E-07
(PID.TID 0000.0001) %MON dynstat_wvel_del2            =   3.6912425055199E-08
(PID.TID 0000.0001) %MON dynstat_theta_max            =   2.6673495137942E+01
(PID.TID 0000.0001) %MON dynstat_theta_min            =  -9.3077060878005E-01
(PID.TID 0000.0001) %MON dynstat_theta_mean           =   2.2243048519639E+00
(PID.TID 0000.0001) %MON dynstat_theta_sd             =   3.9281062552943E+00
(PID.TID 0000.0001) %MON dynstat_theta_del2           =   4.1670880526435E-02
(PID.TID 0000.0001) %MON dynstat_salt_max             =   3.4700000000000E+01
(PID.TID 0000.0001) %MON dynstat_salt_min             =   3.4700000000000E+01
(PID.TID 0000.0001) %MON dynstat_salt_mean            =   3.4700000000000E+01
(PID.TID 0000.0001) %MON dynstat_salt_sd              =   4.9737991503207E-14
(PID.TID 0000.0001) %MON dynstat_salt_del2            =   0.0000000000000E+00
(PID.TID 0000.0001) %MON advcfl_uvel_max              =   1.0010560567898E-01
(PID.TID 0000.0001) %MON advcfl_vvel_max              =   5.9530214364741E-03
(PID.TID 0000.0001) %MON advcfl_wvel_max              =   2.3455450082573E-03
(PID.TID 0000.0001) %MON advcfl_W_hf_max              =   7.0366350247719E-03
(PID.TID 0000.0001) %MON ke_max                       =   7.4646016965007E-02
(PID.TID 0000.0001) %MON ke_mean                      =   2.4106314197458E-03
(PID.TID 0000.0001) %MON ke_volint                    =   1.8210542999323E+13
(PID.TID 0000.0001) %MON ke_volmean                   =   8.3443428964715E-04
(PID.TID 0000.0001) %MON ke_vol                       =   2.1823819113454E+16
(PID.TID 0000.0001) %MON surfExpan_theta_mean         =   2.1782810700619E-06
(PID.TID 0000.0001) %MON surfExpan_salt_mean          =   1.5416665165073E-22
(PID.TID 0000.0001) // =======================================================
(PID.TID 0000.0001) // End MONITOR dynamic field statistics
(PID.TID 0000.0001) // =======================================================
 cg2d: Sum(rhs),rhsMax =   1.99840144432528E-15  1.47828517983056E+00
(PID.TID 0000.0001)                    cg2d_init_res =    4.42243192412858E-03
(PID.TID 0000.0001)                       cg2d_iters =    27
(PID.TID 0000.0001)                         cg2d_res =    2.43242689645429E-17
(PID.TID 0000.0001) // =======================================================
(PID.TID 0000.0001) // Begin MONITOR dynamic field statistics
(PID.TID 0000.0001) // =======================================================
(PID.TID 0000.0001) %MON time_tsnumber                =                 36019
(PID.TID 0000.0001) %MON time_secondsf                =   3.1120416000000E+09
(PID.TID 0000.0001) %MON dynstat_eta_max              =   1.6146761366358E+00
(PID.TID 0000.0001) %MON dynstat_eta_min              =  -3.9229473671135E+00
(PID.TID 0000.0001) %MON dynstat_eta_mean             =  -1.7654919758340E-16
(PID.TID 0000.0001) %MON dynstat_eta_sd               =   1.6480727369865E+00
(PID.TID 0000.0001) %MON dynstat_eta_del2             =   1.3948260216317E-02
(PID.TID 0000.0001) %MON dynstat_uvel_max             =   1.4298960049060E-01
(PID.TID 0000.0001) %MON dynstat_uvel_min             =  -3.8630766635468E-01
(PID.TID 0000.0001) %MON dynstat_uvel_mean            =   1.2798773806012E-02
(PID.TID 0000.0001) %MON dynstat_uvel_sd              =   3.8753498253253E-02
(PID.TID 0000.0001) %MON dynstat_uvel_del2            =   6.1908305523315E-04
(PID.TID 0000.0001) %MON dynstat_vvel_max             =   2.2973558755586E-02
(PID.TID 0000.0001) %MON dynstat_vvel_min             =  -2.2973558755557E-02
(PID.TID 0000.0001) %MON dynstat_vvel_mean            =   1.0085738986502E-15
(PID.TID 0000.0001) %MON dynstat_vvel_sd              =   1.5570317288155E-03
(PID.TID 0000.0001) %MON dynstat_vvel_del2            =   7.3007074697785E-05
(PID.TID 0000.0001) %MON dynstat_wvel_max             =   1.6704552335744E-06
(PID.TID 0000.0001) %MON dynstat_wvel_min             =  -8.2032611515426E-07
(PID.TID 0000.0001) %MON dynstat_wvel_mean            =  -8.6904610143457E-24
(PID.TID 0000.0001) %MON dynstat_wvel_sd              =   2.9746458752031E-07
(PID.TID 0000.0001) %MON dynstat_wvel_del2            =   3.6912578136424E-08
(PID.TID 0000.0001) %MON dynstat_theta_max            =   2.6671385789727E+01
(PID.TID 0000.0001) %MON dynstat_theta_min            =  -9.3077126401761E-01
(PID.TID 0000.0001) %MON dynstat_theta_mean           =   2.2242583096998E+00
(PID.TID 0000.0001) %MON dynstat_theta_sd             =   3.9279841200773E+00
(PID.TID 0000.0001) %MON dynstat_theta_del2           =   4.1675439172373E-02
(PID.TID 0000.0001) %MON dynstat_salt_max             =   3.4700000000000E+01
(PID.TID 0000.0001) %MON dynstat_salt_min             =   3.4700000000000E+01
(PID.TID 0000.0001) %MON dynstat_salt_mean            =   3.4700000000000E+01
(PID.TID 0000.0001) %MON dynstat_salt_sd              =   4.9737991503207E-14
(PID.TID 0000.0001) %MON dynstat_salt_del2            =   0.0000000000000E+00
(PID.TID 0000.0001) %MON advcfl_uvel_max              =   1.0010548223873E-01
(PID.TID 0000.0001) %MON advcfl_vvel_max              =   5.9511920195004E-03
(PID.TID 0000.0001) %MON advcfl_wvel_max              =   2.4054555363471E-03
(PID.TID 0000.0001) %MON advcfl_W_hf_max              =   7.2163666090414E-03
(PID.TID 0000.0001) %MON ke_max                       =   7.4645803331216E-02
(PID.TID 0000.0001) %MON ke_mean                      =   2.4101177627462E-03
(PID.TID 0000.0001) %MON ke_volint                    =   1.8203752342848E+13
(PID.TID 0000.0001) %MON ke_volmean                   =   8.3412313162119E-04
(PID.TID 0000.0001) %MON ke_vol                       =   2.1823819113454E+16
(PID.TID 0000.0001) %MON surfExpan_theta_mean         =   2.5907126766407E-06
(PID.TID 0000.0001) %MON surfExpan_salt_mean          =   2.6668494364181E-22
(PID.TID 0000.0001) // =======================================================
(PID.TID 0000.0001) // End MONITOR dynamic field statistics
(PID.TID 0000.0001) // =======================================================
 cg2d: Sum(rhs),rhsMax =   5.44009282066327E-15  1.47869532375124E+00
(PID.TID 0000.0001)                    cg2d_init_res =    4.90881046712479E-03
(PID.TID 0000.0001)                       cg2d_iters =    27
(PID.TID 0000.0001)                         cg2d_res =    4.93999154257933E-18
(PID.TID 0000.0001) // =======================================================
(PID.TID 0000.0001) // Begin MONITOR dynamic field statistics
(PID.TID 0000.0001) // =======================================================
(PID.TID 0000.0001) %MON time_tsnumber                =                 36020
(PID.TID 0000.0001) %MON time_secondsf                =   3.1121280000000E+09
(PID.TID 0000.0001) %MON dynstat_eta_max              =   1.6151541906610E+00
(PID.TID 0000.0001) %MON dynstat_eta_min              =  -3.9247893906125E+00
(PID.TID 0000.0001) %MON dynstat_eta_mean             =  -4.3617502382565E-17
(PID.TID 0000.0001) %MON dynstat_eta_sd               =   1.6489385963166E+00
(PID.TID 0000.0001) %MON dynstat_eta_del2             =   1.3949855547134E-02
(PID.TID 0000.0001) %MON dynstat_uvel_max             =   1.4296491663069E-01
(PID.TID 0000.0001) %MON dynstat_uvel_min             =  -3.8630717399939E-01
(PID.TID 0000.0001) %MON dynstat_uvel_mean            =   1.2785763701173E-02
(PID.TID 0000.0001) %MON dynstat_uvel_sd              =   3.8748698051914E-02
(PID.TID 0000.0001) %MON dynstat_uvel_del2            =   6.1902183599004E-04
(PID.TID 0000.0001) %MON dynstat_vvel_max             =   2.2969557295492E-02
(PID.TID 0000.0001) %MON dynstat_vvel_min             =  -2.2969557295462E-02
(PID.TID 0000.0001) %MON dynstat_vvel_mean            =   5.6197760693182E-16
(PID.TID 0000.0001) %MON dynstat_vvel_sd              =   1.5583122464436E-03
(PID.TID 0000.0001) %MON dynstat_vvel_del2            =   7.3013888779183E-05
(PID.TID 0000.0001) %MON dynstat_wvel_max             =   1.6982985144210E-06
(PID.TID 0000.0001) %MON dynstat_wvel_min             =  -8.2755992931330E-07
(PID.TID 0000.0001) %MON dynstat_wvel_mean            =   1.0061009358010E-24
(PID.TID 0000.0001) %MON dynstat_wvel_sd              =   3.0621337673253E-07
(PID.TID 0000.0001) %MON dynstat_wvel_del2            =   3.6912674167962E-08
(PID.TID 0000.0001) %MON dynstat_theta_max            =   2.6669077977851E+01
(PID.TID 0000.0001) %MON dynstat_theta_min            =  -9.3077191889916E-01
(PID.TID 0000.0001) %MON dynstat_theta_mean           =   2.2242051370098E+00
(PID.TID 0000.0001) %MON dynstat_theta_sd             =   3.9278418130476E+00
(PID.TID 0000.0001) %MON dynstat_theta_del2           =   4.1680335489558E-02
(PID.TID 0000.0001) %MON dynstat_salt_max             =   3.4700000000000E+01
(PID.TID 0000.0001) %MON dynstat_salt_min             =   3.4700000000000E+01
(PID.TID 0000.0001) %MON dynstat_salt_mean            =   3.4700000000000E+01
(PID.TID 0000.0001) %MON dynstat_salt_sd              =   4.9737991503207E-14
(PID.TID 0000.0001) %MON dynstat_salt_del2            =   0.0000000000000E+00
(PID.TID 0000.0001) %MON advcfl_uvel_max              =   1.0010535465270E-01
(PID.TID 0000.0001) %MON advcfl_vvel_max              =   5.9501554601397E-03
(PID.TID 0000.0001) %MON advcfl_wvel_max              =   2.4455498607662E-03
(PID.TID 0000.0001) %MON advcfl_W_hf_max              =   7.3366495822985E-03
(PID.TID 0000.0001) %MON ke_max                       =   7.4645589303308E-02
(PID.TID 0000.0001) %MON ke_mean                      =   2.4095402197498E-03
(PID.TID 0000.0001) %MON ke_volint                    =   1.8196103177310E+13
(PID.TID 0000.0001) %MON ke_volmean                   =   8.3377263542718E-04
(PID.TID 0000.0001) %MON ke_vol                       =   2.1823819113454E+16
(PID.TID 0000.0001) %MON surfExpan_theta_mean         =   2.8684097173471E-06
(PID.TID 0000.0001) %MON surfExpan_salt_mean          =  -3.6726403919712E-22
(PID.TID 0000.0001) // =======================================================
(PID.TID 0000.0001) // End MONITOR dynamic field statistics
(PID.TID 0000.0001) // =======================================================
(PID.TID 0000.0001)   Seconds in section "ALL                    [THE_MODEL_MAIN]":
(PID.TID 0000.0001)           User time:  0.629999995
(PID.TID 0000.0001)         System time:  0.119999997
(PID.TID 0000.0001)     Wall clock time:  0.74635601
(PID.TID 0000.0001)          No. starts: 1
(PID.TID 0000.0001)           No. stops: 1
(PID.TID 0000.0001)   Seconds in section "INITIALISE_FIXED       [THE_MODEL_MAIN]":
(PID.TID 0000.0001)           User time:  0.0599999987
(PID.TID 0000.0001)         System time:  0.00999999978
(PID.TID 0000.0001)     Wall clock time:  0.0708580017
(PID.TID 0000.0001)          No. starts: 1
(PID.TID 0000.0001)           No. stops: 1
(PID.TID 0000.0001)   Seconds in section "THE_MAIN_LOOP          [THE_MODEL_MAIN]":
(PID.TID 0000.0001)           User time:  0.550000016
(PID.TID 0000.0001)         System time:  0.040000001
(PID.TID 0000.0001)     Wall clock time:  0.594446063
(PID.TID 0000.0001)          No. starts: 1
(PID.TID 0000.0001)           No. stops: 1
(PID.TID 0000.0001)   Seconds in section "INITIALISE_VARIA    [THE_MAIN_LOOP]":
(PID.TID 0000.0001)           User time:  0.0300000049
(PID.TID 0000.0001)         System time:  0.
(PID.TID 0000.0001)     Wall clock time:  0.0307980776
(PID.TID 0000.0001)          No. starts: 1
(PID.TID 0000.0001)           No. stops: 1
(PID.TID 0000.0001)   Seconds in section "WRITE_STATE         [THE_MAIN_LOOP]":
(PID.TID 0000.0001)           User time:  0.00999999791
(PID.TID 0000.0001)         System time:  0.0199999996
(PID.TID 0000.0001)     Wall clock time:  0.0311000347
(PID.TID 0000.0001)          No. starts: 1
(PID.TID 0000.0001)           No. stops: 1
(PID.TID 0000.0001)   Seconds in section "MONITOR             [THE_MAIN_LOOP]":
(PID.TID 0000.0001)           User time:  0.
(PID.TID 0000.0001)         System time:  0.
(PID.TID 0000.0001)     Wall clock time:  0.00187194347
(PID.TID 0000.0001)          No. starts: 1
(PID.TID 0000.0001)           No. stops: 1
(PID.TID 0000.0001)   Seconds in section "MAIN LOOP           [THE_MAIN_LOOP]":
(PID.TID 0000.0001)           User time:  0.510000013
(PID.TID 0000.0001)         System time:  0.0200000014
(PID.TID 0000.0001)     Wall clock time:  0.530568957
(PID.TID 0000.0001)          No. starts: 1
(PID.TID 0000.0001)           No. stops: 1
(PID.TID 0000.0001)   Seconds in section "FORWARD_STEP        [THE_MAIN_LOOP]":
(PID.TID 0000.0001)           User time:  0.510000013
(PID.TID 0000.0001)         System time:  0.0200000014
(PID.TID 0000.0001)     Wall clock time:  0.530149937
(PID.TID 0000.0001)          No. starts: 20
(PID.TID 0000.0001)           No. stops: 20
(PID.TID 0000.0001)   Seconds in section "UPDATE_ETAH        [FORWARD_STEP]":
(PID.TID 0000.0001)           User time:  0.
(PID.TID 0000.0001)         System time:  0.
(PID.TID 0000.0001)     Wall clock time:  0.000462889671
(PID.TID 0000.0001)          No. starts: 20
(PID.TID 0000.0001)           No. stops: 20
(PID.TID 0000.0001)   Seconds in section "EXTERNAL_FIELDS_LOAD[FORWARD_STEP]":
(PID.TID 0000.0001)           User time:  0.
(PID.TID 0000.0001)         System time:  0.
(PID.TID 0000.0001)     Wall clock time:  0.000394821167
(PID.TID 0000.0001)          No. starts: 20
(PID.TID 0000.0001)           No. stops: 20
(PID.TID 0000.0001)   Seconds in section "THERMODYNAMICS      [FORWARD_STEP]":
(PID.TID 0000.0001)           User time:  0.299999952
(PID.TID 0000.0001)         System time:  0.
(PID.TID 0000.0001)     Wall clock time:  0.231532931
(PID.TID 0000.0001)          No. starts: 20
(PID.TID 0000.0001)           No. stops: 20
(PID.TID 0000.0001)   Seconds in section "BLOCKING_EXCHANGES  [FORWARD_STEP]":
(PID.TID 0000.0001)           User time:  0.
(PID.TID 0000.0001)         System time:  0.
(PID.TID 0000.0001)     Wall clock time:  0.0253078938
(PID.TID 0000.0001)          No. starts: 40
(PID.TID 0000.0001)           No. stops: 40
(PID.TID 0000.0001)   Seconds in section "DYNAMICS            [FORWARD_STEP]":
(PID.TID 0000.0001)           User time:  0.100000069
(PID.TID 0000.0001)         System time:  0.
(PID.TID 0000.0001)     Wall clock time:  0.153298855
(PID.TID 0000.0001)          No. starts: 20
(PID.TID 0000.0001)           No. stops: 20
(PID.TID 0000.0001)   Seconds in section "SOLVE_FOR_PRESSURE  [FORWARD_STEP]":
(PID.TID 0000.0001)           User time:  0.0399999991
(PID.TID 0000.0001)         System time:  0.
(PID.TID 0000.0001)     Wall clock time:  0.0221420527
(PID.TID 0000.0001)          No. starts: 20
(PID.TID 0000.0001)           No. stops: 20
(PID.TID 0000.0001)   Seconds in section "THE_CORRECTION_STEP [FORWARD_STEP]":
(PID.TID 0000.0001)           User time:  0.0600000024
(PID.TID 0000.0001)         System time:  0.
(PID.TID 0000.0001)     Wall clock time:  0.0216580629
(PID.TID 0000.0001)          No. starts: 20
(PID.TID 0000.0001)           No. stops: 20
(PID.TID 0000.0001)   Seconds in section "MONITOR             [FORWARD_STEP]":
(PID.TID 0000.0001)           User time:  0.
(PID.TID 0000.0001)         System time:  0.
(PID.TID 0000.0001)     Wall clock time:  0.0381369591
(PID.TID 0000.0001)          No. starts: 20
(PID.TID 0000.0001)           No. stops: 20
(PID.TID 0000.0001)   Seconds in section "DO_THE_MODEL_IO     [FORWARD_STEP]":
(PID.TID 0000.0001)           User time:  0.00999999046
(PID.TID 0000.0001)         System time:  0.0200000014
(PID.TID 0000.0001)     Wall clock time:  0.0319720507
(PID.TID 0000.0001)          No. starts: 20
(PID.TID 0000.0001)           No. stops: 20
(PID.TID 0000.0001)   Seconds in section "WRITE_CHECKPOINT    [FORWARD_STEP]":
(PID.TID 0000.0001)           User time:  0.
(PID.TID 0000.0001)         System time:  0.
(PID.TID 0000.0001)     Wall clock time:  0.000402927399
(PID.TID 0000.0001)          No. starts: 20
(PID.TID 0000.0001)           No. stops: 20
(PID.TID 0000.0001)   Seconds in section "WRITE_CHECKPOINT       [THE_MODEL_MAIN]":
(PID.TID 0000.0001)           User time:  0.0199999809
(PID.TID 0000.0001)         System time:  0.0699999966
(PID.TID 0000.0001)     Wall clock time:  0.0809550285
(PID.TID 0000.0001)          No. starts: 1
(PID.TID 0000.0001)           No. stops: 1
(PID.TID 0000.0001) // ======================================================
(PID.TID 0000.0001) // Tile <-> Tile communication statistics
(PID.TID 0000.0001) // ======================================================
(PID.TID 0000.0001) // o Tile number: 000001
(PID.TID 0000.0001) //         No. X exchanges =              0
(PID.TID 0000.0001) //            Max. X spins =              0
(PID.TID 0000.0001) //            Min. X spins =     1000000000
(PID.TID 0000.0001) //          Total. X spins =              0
(PID.TID 0000.0001) //            Avg. X spins =       0.00E+00
(PID.TID 0000.0001) //         No. Y exchanges =              0
(PID.TID 0000.0001) //            Max. Y spins =              0
(PID.TID 0000.0001) //            Min. Y spins =     1000000000
(PID.TID 0000.0001) //          Total. Y spins =              0
(PID.TID 0000.0001) //            Avg. Y spins =       0.00E+00
(PID.TID 0000.0001) // o Tile number: 000002
(PID.TID 0000.0001) //         No. X exchanges =              0
(PID.TID 0000.0001) //            Max. X spins =              0
(PID.TID 0000.0001) //            Min. X spins =     1000000000
(PID.TID 0000.0001) //          Total. X spins =              0
(PID.TID 0000.0001) //            Avg. X spins =       0.00E+00
(PID.TID 0000.0001) //         No. Y exchanges =              0
(PID.TID 0000.0001) //            Max. Y spins =              0
(PID.TID 0000.0001) //            Min. Y spins =     1000000000
(PID.TID 0000.0001) //          Total. Y spins =              0
(PID.TID 0000.0001) //            Avg. Y spins =       0.00E+00
(PID.TID 0000.0001) // o Tile number: 000003
(PID.TID 0000.0001) //         No. X exchanges =              0
(PID.TID 0000.0001) //            Max. X spins =              0
(PID.TID 0000.0001) //            Min. X spins =     1000000000
(PID.TID 0000.0001) //          Total. X spins =              0
(PID.TID 0000.0001) //            Avg. X spins =       0.00E+00
(PID.TID 0000.0001) //         No. Y exchanges =              0
(PID.TID 0000.0001) //            Max. Y spins =              0
(PID.TID 0000.0001) //            Min. Y spins =     1000000000
(PID.TID 0000.0001) //          Total. Y spins =              0
(PID.TID 0000.0001) //            Avg. Y spins =       0.00E+00
(PID.TID 0000.0001) // o Tile number: 000004
(PID.TID 0000.0001) //         No. X exchanges =              0
(PID.TID 0000.0001) //            Max. X spins =              0
(PID.TID 0000.0001) //            Min. X spins =     1000000000
(PID.TID 0000.0001) //          Total. X spins =              0
(PID.TID 0000.0001) //            Avg. X spins =       0.00E+00
(PID.TID 0000.0001) //         No. Y exchanges =              0
(PID.TID 0000.0001) //            Max. Y spins =              0
(PID.TID 0000.0001) //            Min. Y spins =     1000000000
(PID.TID 0000.0001) //          Total. Y spins =              0
(PID.TID 0000.0001) //            Avg. Y spins =       0.00E+00
(PID.TID 0000.0001) // o Thread number: 000001
(PID.TID 0000.0001) //            No. barriers =          12354
(PID.TID 0000.0001) //      Max. barrier spins =              1
(PID.TID 0000.0001) //      Min. barrier spins =              1
(PID.TID 0000.0001) //     Total barrier spins =          12354
(PID.TID 0000.0001) //      Avg. barrier spins =       1.00E+00
