(PID.TID 0000.0001) 
(PID.TID 0000.0001) // ======================================================
(PID.TID 0000.0001) //                      MITgcm UV
(PID.TID 0000.0001) //                      =========
(PID.TID 0000.0001) // ======================================================
(PID.TID 0000.0001) // execution environment starting up...
(PID.TID 0000.0001) // Run starting Wed Apr  1 14:19:48 1998
(PID.TID 0000.0001) // on melville.lcs.mit.edu
(PID.TID 0000.0001) // account cnh
(PID.TID 0000.0001) // MITgcm UV Release: $Name:  $
(PID.TID 0000.0001) 
(PID.TID 0000.0001) // =======================================================
(PID.TID 0000.0001) // Execution Environment parameter file "eedata"
(PID.TID 0000.0001) // =======================================================
(PID.TID 0000.0001) ># Example "eedata" file
(PID.TID 0000.0001) ># Lines beginning "#" are comments
(PID.TID 0000.0001) ># nTx - No. threads per process in X
(PID.TID 0000.0001) ># nTy - No. threads per process in Y
(PID.TID 0000.0001) > &EEPARMS
(PID.TID 0000.0001) > nTx=1,nTy=1
(PID.TID 0000.0001) > &
(PID.TID 0000.0001) ># Note: Some systems use & as the
(PID.TID 0000.0001) ># namelist terminator. Other systems
(PID.TID 0000.0001) ># use a / character (as shown here).
(PID.TID 0000.0001) 
(PID.TID 0000.0001) // =======================================================
(PID.TID 0000.0001) // Computational Grid Specification ( see files "SIZE.h" )
(PID.TID 0000.0001) //                                  ( and "eedata"       )
(PID.TID 0000.0001) // =======================================================
(PID.TID 0000.0001)      nPx =    1 ; /* No. processes in X */
(PID.TID 0000.0001)      nPy =    1 ; /* No. processes in Y */
(PID.TID 0000.0001)      nSx =    1 ; /* No. tiles in X per process */
(PID.TID 0000.0001)      nSy =    1 ; /* No. tiles in Y per process */
(PID.TID 0000.0001)      sNx =    1 ; /* Tile size in X */
(PID.TID 0000.0001)      sNy =   56 ; /* Tile size in Y */
(PID.TID 0000.0001)      OLx =    3 ; /* Tile overlap distance in X */
(PID.TID 0000.0001)      OLy =    3 ; /* Tile overlap distance in Y */
(PID.TID 0000.0001)      nTx =    1 ; /* No. threads in X per process */
(PID.TID 0000.0001)      nTy =    1 ; /* No. threads in Y per process */
(PID.TID 0000.0001)       Nr =   15 ; /* No. levels in the vertical   */
(PID.TID 0000.0001)       nX =    1 ; /* Total domain size in X ( = nPx*nSx*sNx ) */
(PID.TID 0000.0001)       nY =   56 ; /* Total domain size in Y ( = nPy*nSy*sNy ) */
(PID.TID 0000.0001)   nTiles =    1 ; /* Total no. tiles per process ( = nSx*nSy ) */
(PID.TID 0000.0001)   nProcs =    1 ; /* Total no. processes ( = nPx*nPy ) */
(PID.TID 0000.0001) nThreads =    1 ; /* Total no. threads per process ( = nTx*nTy ) */
(PID.TID 0000.0001) usingMPI =    F ; /* Flag used to control whether MPI is in use */
(PID.TID 0000.0001)                   /*  note: To execute a program with MPI calls */
(PID.TID 0000.0001)                   /*  it must be launched appropriately e.g     */
(PID.TID 0000.0001)                   /*  "mpirun -np 64 ......"                    */
(PID.TID 0000.0001) 
(PID.TID 0000.0001) // ======================================================
(PID.TID 0000.0001) // Mapping of tiles to threads
(PID.TID 0000.0001) // ======================================================
(PID.TID 0000.0001) // -o- Thread   1, tiles (   1:   1,   1:   1)
(PID.TID 0000.0001) 
(PID.TID 0000.0001) // ======================================================
(PID.TID 0000.0001) // Tile <-> Tile connectvity table
(PID.TID 0000.0001) // ======================================================
(PID.TID 0000.0001) // Tile number: 000001 (process no. = 000001)
(PID.TID 0000.0001) //        WEST: Tile = 000001, Process = 000001, Comm = put
(PID.TID 0000.0001) //                bi = 000001, bj = 000001
(PID.TID 0000.0001) //        EAST: Tile = 000001, Process = 000001, Comm = put
(PID.TID 0000.0001) //                bi = 000001, bj = 000001
(PID.TID 0000.0001) //       SOUTH: Tile = 000001, Process = 000001, Comm = put
(PID.TID 0000.0001) //                bi = 000001, bj = 000001
(PID.TID 0000.0001) //       NORTH: Tile = 000001, Process = 000001, Comm = put
(PID.TID 0000.0001) //                bi = 000001, bj = 000001
(PID.TID 0000.0001) 
(PID.TID 0000.0001) // =======================================================
(PID.TID 0000.0001) // Model parameter file "data"
(PID.TID 0000.0001) // =======================================================
(PID.TID 0000.0001) ># ====================
(PID.TID 0000.0001) ># | Model parameters |
(PID.TID 0000.0001) ># ====================
(PID.TID 0000.0001) >#
(PID.TID 0000.0001) ># Continuous equation parameters
(PID.TID 0000.0001) > &PARM01
(PID.TID 0000.0001) > tRef= 18.8, 16.3, 13.1, 10.4, 8.1, 6.0, 4.5,
(PID.TID 0000.0001) >      3.4, 2.7, 2.2, 1.8, 1.5, 1.2, 1.0, 0.9,
(PID.TID 0000.0001) > sRef= 15*34.7,
(PID.TID 0000.0001) > cosPower=1.,
(PID.TID 0000.0001) > viscAz=1.E-3,
(PID.TID 0000.0001) > viscAh=12.E5,
(PID.TID 0000.0001) > no_slip_sides=.FALSE.,
(PID.TID 0000.0001) > no_slip_bottom=.TRUE.,
(PID.TID 0000.0001) > bottomDragLinear=1.E-3,
(PID.TID 0000.0001) >#diffK4T=2.E12,
(PID.TID 0000.0001) > diffKhT=0.E3,
(PID.TID 0000.0001) > diffKzT=1.E-5,
(PID.TID 0000.0001) > ivdc_kappa=100.,
(PID.TID 0000.0001) > implicitDiffusion=.TRUE.,
(PID.TID 0000.0001) > eosType='LINEAR',
(PID.TID 0000.0001) > tAlpha=2.E-4,
(PID.TID 0000.0001) > sBeta =0.E-4,
(PID.TID 0000.0001) > saltStepping=.FALSE.,
(PID.TID 0000.0001) > gravity=9.81,
(PID.TID 0000.0001) > rhonil=1035.,
(PID.TID 0000.0001) > implicitFreeSurface=.TRUE.,
(PID.TID 0000.0001) > exactConserv=.TRUE.,
(PID.TID 0000.0001) > staggerTimeStep=.TRUE.,
(PID.TID 0000.0001) > readBinaryPrec=64,
(PID.TID 0000.0001) > tempAdvScheme=77,
(PID.TID 0000.0001) > &
(PID.TID 0000.0001) >
(PID.TID 0000.0001) ># Elliptic solver parameters
(PID.TID 0000.0001) > &PARM02
(PID.TID 0000.0001) > cg2dMaxIters=1000,
(PID.TID 0000.0001) >#cg2dTargetResidual=1.E-13,
(PID.TID 0000.0001) > cg2dTargetResWunit=1.E-17,
(PID.TID 0000.0001) > &
(PID.TID 0000.0001) >
(PID.TID 0000.0001) ># Time stepping parameters
(PID.TID 0000.0001) > &PARM03
(PID.TID 0000.0001) > niter0=36000,
(PID.TID 0000.0001) > nTimeSteps=20,
(PID.TID 0000.0001) >#endTime=3110400000.,
(PID.TID 0000.0001) > deltaTmom=1200.0,
(PID.TID 0000.0001) > deltaTfreesurf=3600.0,
(PID.TID 0000.0001) > deltaTtracer=86400.0,
(PID.TID 0000.0001) > deltaTClock =86400.0,
(PID.TID 0000.0001) > abEps=0.1,
(PID.TID 0000.0001) > tauCD=321428.,
(PID.TID 0000.0001) > tauThetaClimRelax=2592000.0,
(PID.TID 0000.0001) > chkptFreq=0.0,
(PID.TID 0000.0001) > pChkptFreq=3110400000.0,
(PID.TID 0000.0001) > taveFreq=1555200000.0,
(PID.TID 0000.0001) > dumpFreq=1555200000.0,
(PID.TID 0000.0001) > diagFreq=1555200000.0,
(PID.TID 0000.0001) >#monitorFreq=31104000.0,
(PID.TID 0000.0001) > monitorFreq=1.0,
(PID.TID 0000.0001) > &
(PID.TID 0000.0001) >
(PID.TID 0000.0001) ># Gridding parameters
(PID.TID 0000.0001) > &PARM04
(PID.TID 0000.0001) > usingCartesianGrid=.FALSE.,
(PID.TID 0000.0001) > usingSphericalPolarGrid=.TRUE.,
(PID.TID 0000.0001) > delRc= 20.,  60.,  85., 120., 165., 215., 265., 315.,
(PID.TID 0000.0001) >       365., 415., 465., 515., 565., 615., 665., 350.,
(PID.TID 0000.0001) > phiMin=-84.,
(PID.TID 0000.0001) > delY=56*3,
(PID.TID 0000.0001) > delX=1*3,
(PID.TID 0000.0001) > &
(PID.TID 0000.0001) >
(PID.TID 0000.0001) ># Input datasets
(PID.TID 0000.0001) > &PARM05
(PID.TID 0000.0001) > bathyFile='topo_sl.bin',
(PID.TID 0000.0001) > zonalWindFile='taux_sl.bin',
(PID.TID 0000.0001) > thetaClimFile='sst_sl.bin',
(PID.TID 0000.0001) > &
(PID.TID 0000.0001) 
(PID.TID 0000.0001) S/R INI_PARMS ; read PARM01 : OK
(PID.TID 0000.0001) S/R INI_PARMS ; read PARM02 : OK
(PID.TID 0000.0001) S/R INI_PARMS ; read PARM03 : OK
(PID.TID 0000.0001) S/R INI_PARMS ; read PARM04 : OK
(PID.TID 0000.0001) S/R INI_PARMS ; read PARM05 : OK
(PID.TID 0000.0001) %MON XC_max                       =   1.5000000000000E+00
(PID.TID 0000.0001) %MON XC_min                       =   1.5000000000000E+00
(PID.TID 0000.0001) %MON XC_mean                      =   1.5000000000000E+00
(PID.TID 0000.0001) %MON XC_sd                        =   0.0000000000000E+00
(PID.TID 0000.0001) %MON XG_max                       =   0.0000000000000E+00
(PID.TID 0000.0001) %MON XG_min                       =   0.0000000000000E+00
(PID.TID 0000.0001) %MON XG_mean                      =   0.0000000000000E+00
(PID.TID 0000.0001) %MON XG_sd                        =   0.0000000000000E+00
(PID.TID 0000.0001) %MON DXC_max                      =   3.3341812682592E+05
(PID.TID 0000.0001) %MON DXC_min                      =   4.3534716771864E+04
(PID.TID 0000.0001) %MON DXC_mean                     =   2.2627957857351E+05
(PID.TID 0000.0001) %MON DXC_sd                       =   9.1462046601761E+04
(PID.TID 0000.0001) %MON DXF_max                      =   3.3341812682592E+05
(PID.TID 0000.0001) %MON DXF_min                      =   4.3534716771864E+04
(PID.TID 0000.0001) %MON DXF_mean                     =   2.2627957857351E+05
(PID.TID 0000.0001) %MON DXF_sd                       =   9.1462046601761E+04
(PID.TID 0000.0001) %MON DXG_max                      =   3.3353242005612E+05
(PID.TID 0000.0001) %MON DXG_min                      =   3.4863631318407E+04
(PID.TID 0000.0001) %MON DXG_mean                     =   2.2620203821339E+05
(PID.TID 0000.0001) %MON DXG_sd                       =   9.1624145029333E+04
(PID.TID 0000.0001) %MON DXV_max                      =   3.3353242005612E+05
(PID.TID 0000.0001) %MON DXV_min                      =   3.4863631318407E+04
(PID.TID 0000.0001) %MON DXV_mean                     =   2.2620203821339E+05
(PID.TID 0000.0001) %MON DXV_sd                       =   9.1624145029333E+04
(PID.TID 0000.0001) %MON YC_max                       =   8.2500000000000E+01
(PID.TID 0000.0001) %MON YC_min                       =  -8.2500000000000E+01
(PID.TID 0000.0001) %MON YC_mean                      =   0.0000000000000E+00
(PID.TID 0000.0001) %MON YC_sd                        =   4.8489689625734E+01
(PID.TID 0000.0001) %MON YG_max                       =   8.1000000000000E+01
(PID.TID 0000.0001) %MON YG_min                       =  -8.4000000000000E+01
(PID.TID 0000.0001) %MON YG_mean                      =  -1.5272727272727E+00
(PID.TID 0000.0001) %MON YG_sd                        =   4.8928093638598E+01
(PID.TID 0000.0001) %MON DYC_max                      =   3.3353242005612E+05
(PID.TID 0000.0001) %MON DYC_min                      =   3.3353242005612E+05
(PID.TID 0000.0001) %MON DYC_mean                     =   3.3353242005612E+05
(PID.TID 0000.0001) %MON DYC_sd                       =   2.3283064365387E-10
(PID.TID 0000.0001) %MON DYF_max                      =   3.3353242005612E+05
(PID.TID 0000.0001) %MON DYF_min                      =   3.3353242005612E+05
(PID.TID 0000.0001) %MON DYF_mean                     =   3.3353242005612E+05
(PID.TID 0000.0001) %MON DYF_sd                       =   2.3283064365387E-10
(PID.TID 0000.0001) %MON DYG_max                      =   3.3353242005612E+05
(PID.TID 0000.0001) %MON DYG_min                      =   3.3353242005612E+05
(PID.TID 0000.0001) %MON DYG_mean                     =   3.3353242005612E+05
(PID.TID 0000.0001) %MON DYG_sd                       =   2.3283064365387E-10
(PID.TID 0000.0001) %MON DYU_max                      =   3.3353242005612E+05
(PID.TID 0000.0001) %MON DYU_min                      =   3.3353242005612E+05
(PID.TID 0000.0001) %MON DYU_mean                     =   3.3353242005612E+05
(PID.TID 0000.0001) %MON DYU_sd                       =   2.3283064365387E-10
(PID.TID 0000.0001) %MON RA_max                       =   1.1119305196237E+11
(PID.TID 0000.0001) %MON RA_min                       =   1.4518580829016E+10
(PID.TID 0000.0001) %MON RA_mean                      =   7.5462954512622E+10
(PID.TID 0000.0001) %MON RA_sd                        =   3.0502073169179E+10
(PID.TID 0000.0001) %MON RAW_max                      =   1.1119305196237E+11
(PID.TID 0000.0001) %MON RAW_min                      =   1.4518580829016E+10
(PID.TID 0000.0001) %MON RAW_mean                     =   7.5462954512622E+10
(PID.TID 0000.0001) %MON RAW_sd                       =   3.0502073169179E+10
(PID.TID 0000.0001) %MON RAS_max                      =   1.1123116810562E+11
(PID.TID 0000.0001) %MON RAS_min                      =   1.1626823069547E+10
(PID.TID 0000.0001) %MON RAS_mean                     =   7.5437095242840E+10
(PID.TID 0000.0001) %MON RAS_sd                       =   3.0556132074289E+10
(PID.TID 0000.0001) %MON RAZ_max                      =   1.1123116810562E+11
(PID.TID 0000.0001) %MON RAZ_min                      =   1.1626823069547E+10
(PID.TID 0000.0001) %MON RAZ_mean                     =   7.5437095242840E+10
(PID.TID 0000.0001) %MON RAZ_sd                       =   3.0556132074289E+10
(PID.TID 0000.0001)  MDSREADFIELD: opening global file: topo_sl.bin
(PID.TID 0000.0001) // =======================================================
(PID.TID 0000.0001) // Field Model R_low (ini_masks_etc) at iteration          1
(PID.TID 0000.0001) // CMIN =         -5.200000000000000E+03
(PID.TID 0000.0001) // CMAX =         -5.200000000000000E+03
(PID.TID 0000.0001) // CINT =          0.000000000000000E+00
(PID.TID 0000.0001) // SYMBOLS (CMIN->CMAX): -abcdefghijklmnopqrstuvwxyz+
(PID.TID 0000.0001) //                  0.0: .
(PID.TID 0000.0001) // RANGE I (Lo:Hi:Step):(  -2:   4:   1)
(PID.TID 0000.0001) // RANGE J (Lo:Hi:Step):(  59:  -2:  -1)
(PID.TID 0000.0001) // RANGE K (Lo:Hi:Step):(   1:   1:   1)
(PID.TID 0000.0001) // =======================================================
(PID.TID 0000.0001) K =   1
(PID.TID 0000.0001) //
(PID.TID 0000.0001) // |--J--|**01234
(PID.TID 0000.0001) //     59 .......
(PID.TID 0000.0001) //     58 -------
(PID.TID 0000.0001) //     57 .......
(PID.TID 0000.0001) //     56 .......
(PID.TID 0000.0001) //     55 -------
(PID.TID 0000.0001) //     54 -------
(PID.TID 0000.0001) //     53 -------
(PID.TID 0000.0001) //     52 -------
(PID.TID 0000.0001) //     51 -------
(PID.TID 0000.0001) //     50 -------
(PID.TID 0000.0001) //     49 -------
(PID.TID 0000.0001) //     48 -------
(PID.TID 0000.0001) //     47 -------
(PID.TID 0000.0001) //     46 -------
(PID.TID 0000.0001) //     45 -------
(PID.TID 0000.0001) //     44 -------
(PID.TID 0000.0001) //     43 -------
(PID.TID 0000.0001) //     42 -------
(PID.TID 0000.0001) //     41 -------
(PID.TID 0000.0001) //     40 -------
(PID.TID 0000.0001) //     39 -------
(PID.TID 0000.0001) //     38 -------
(PID.TID 0000.0001) //     37 -------
(PID.TID 0000.0001) //     36 -------
(PID.TID 0000.0001) //     35 -------
(PID.TID 0000.0001) //     34 -------
(PID.TID 0000.0001) //     33 -------
(PID.TID 0000.0001) //     32 -------
(PID.TID 0000.0001) //     31 -------
(PID.TID 0000.0001) //     30 -------
(PID.TID 0000.0001) //     29 -------
(PID.TID 0000.0001) //     28 -------
(PID.TID 0000.0001) //     27 -------
(PID.TID 0000.0001) //     26 -------
(PID.TID 0000.0001) //     25 -------
(PID.TID 0000.0001) //     24 -------
(PID.TID 0000.0001) //     23 -------
(PID.TID 0000.0001) //     22 -------
(PID.TID 0000.0001) //     21 -------
(PID.TID 0000.0001) //     20 -------
(PID.TID 0000.0001) //     19 -------
(PID.TID 0000.0001) //     18 -------
(PID.TID 0000.0001) //     17 -------
(PID.TID 0000.0001) //     16 -------
(PID.TID 0000.0001) //     15 -------
(PID.TID 0000.0001) //     14 -------
(PID.TID 0000.0001) //     13 -------
(PID.TID 0000.0001) //     12 -------
(PID.TID 0000.0001) //     11 -------
(PID.TID 0000.0001) //     10 -------
(PID.TID 0000.0001) //      9 -------
(PID.TID 0000.0001) //      8 -------
(PID.TID 0000.0001) //      7 -------
(PID.TID 0000.0001) //      6 -------
(PID.TID 0000.0001) //      5 -------
(PID.TID 0000.0001) //      4 -------
(PID.TID 0000.0001) //      3 -------
(PID.TID 0000.0001) //      2 -------
(PID.TID 0000.0001) //      1 .......
(PID.TID 0000.0001) //      0 .......
(PID.TID 0000.0001) //     -1 -------
(PID.TID 0000.0001) //     -2 .......
(PID.TID 0000.0001) // =======================================================
(PID.TID 0000.0001) // END OF FIELD                                          =
(PID.TID 0000.0001) // =======================================================
(PID.TID 0000.0001) 
(PID.TID 0000.0001) // =======================================================
(PID.TID 0000.0001) // Field Model Ro_surf (ini_masks_etc) at iteration          1
(PID.TID 0000.0001) // CMIN =          1.000000000000000E+32
(PID.TID 0000.0001) // CMAX =         -1.000000000000000E+32
(PID.TID 0000.0001) // CINT =          0.000000000000000E+00
(PID.TID 0000.0001) // SYMBOLS (CMIN->CMAX): -abcdefghijklmnopqrstuvwxyz+
(PID.TID 0000.0001) //                  0.0: .
(PID.TID 0000.0001) // RANGE I (Lo:Hi:Step):(  -2:   4:   1)
(PID.TID 0000.0001) // RANGE J (Lo:Hi:Step):(  59:  -2:  -1)
(PID.TID 0000.0001) // RANGE K (Lo:Hi:Step):(   1:   1:   1)
(PID.TID 0000.0001) // =======================================================
(PID.TID 0000.0001) K =   1
(PID.TID 0000.0001) //
(PID.TID 0000.0001) // |--J--|**01234
(PID.TID 0000.0001) //     59 .......
(PID.TID 0000.0001) //     58 .......
(PID.TID 0000.0001) //     57 .......
(PID.TID 0000.0001) //     56 .......
(PID.TID 0000.0001) //     55 .......
(PID.TID 0000.0001) //     54 .......
(PID.TID 0000.0001) //     53 .......
(PID.TID 0000.0001) //     52 .......
(PID.TID 0000.0001) //     51 .......
(PID.TID 0000.0001) //     50 .......
(PID.TID 0000.0001) //     49 .......
(PID.TID 0000.0001) //     48 .......
(PID.TID 0000.0001) //     47 .......
(PID.TID 0000.0001) //     46 .......
(PID.TID 0000.0001) //     45 .......
(PID.TID 0000.0001) //     44 .......
(PID.TID 0000.0001) //     43 .......
(PID.TID 0000.0001) //     42 .......
(PID.TID 0000.0001) //     41 .......
(PID.TID 0000.0001) //     40 .......
(PID.TID 0000.0001) //     39 .......
(PID.TID 0000.0001) //     38 .......
(PID.TID 0000.0001) //     37 .......
(PID.TID 0000.0001) //     36 .......
(PID.TID 0000.0001) //     35 .......
(PID.TID 0000.0001) //     34 .......
(PID.TID 0000.0001) //     33 .......
(PID.TID 0000.0001) //     32 .......
(PID.TID 0000.0001) //     31 .......
(PID.TID 0000.0001) //     30 .......
(PID.TID 0000.0001) //     29 .......
(PID.TID 0000.0001) //     28 .......
(PID.TID 0000.0001) //     27 .......
(PID.TID 0000.0001) //     26 .......
(PID.TID 0000.0001) //     25 .......
(PID.TID 0000.0001) //     24 .......
(PID.TID 0000.0001) //     23 .......
(PID.TID 0000.0001) //     22 .......
(PID.TID 0000.0001) //     21 .......
(PID.TID 0000.0001) //     20 .......
(PID.TID 0000.0001) //     19 .......
(PID.TID 0000.0001) //     18 .......
(PID.TID 0000.0001) //     17 .......
(PID.TID 0000.0001) //     16 .......
(PID.TID 0000.0001) //     15 .......
(PID.TID 0000.0001) //     14 .......
(PID.TID 0000.0001) //     13 .......
(PID.TID 0000.0001) //     12 .......
(PID.TID 0000.0001) //     11 .......
(PID.TID 0000.0001) //     10 .......
(PID.TID 0000.0001) //      9 .......
(PID.TID 0000.0001) //      8 .......
(PID.TID 0000.0001) //      7 .......
(PID.TID 0000.0001) //      6 .......
(PID.TID 0000.0001) //      5 .......
(PID.TID 0000.0001) //      4 .......
(PID.TID 0000.0001) //      3 .......
(PID.TID 0000.0001) //      2 .......
(PID.TID 0000.0001) //      1 .......
(PID.TID 0000.0001) //      0 .......
(PID.TID 0000.0001) //     -1 .......
(PID.TID 0000.0001) //     -2 .......
(PID.TID 0000.0001) // =======================================================
(PID.TID 0000.0001) // END OF FIELD                                          =
(PID.TID 0000.0001) // =======================================================
(PID.TID 0000.0001) 
(PID.TID 0000.0001) // =======================================================
(PID.TID 0000.0001) // Field hFacC at iteration          1
(PID.TID 0000.0001) // CMIN =          1.000000000000000E+00
(PID.TID 0000.0001) // CMAX =          1.000000000000000E+00
(PID.TID 0000.0001) // CINT =          0.000000000000000E+00
(PID.TID 0000.0001) // SYMBOLS (CMIN->CMAX): -abcdefghijklmnopqrstuvwxyz+
(PID.TID 0000.0001) //                  0.0: .
(PID.TID 0000.0001) // RANGE I (Lo:Hi:Step):(  -2:   4:   1)
(PID.TID 0000.0001) // RANGE J (Lo:Hi:Step):(  59:  -2:  -1)
(PID.TID 0000.0001) // RANGE K (Lo:Hi:Step):(   1:   1:   1)
(PID.TID 0000.0001) // =======================================================
(PID.TID 0000.0001) K =   1
(PID.TID 0000.0001) //
(PID.TID 0000.0001) // |--J--|**01234
(PID.TID 0000.0001) //     59 .......
(PID.TID 0000.0001) //     58 -------
(PID.TID 0000.0001) //     57 .......
(PID.TID 0000.0001) //     56 .......
(PID.TID 0000.0001) //     55 -------
(PID.TID 0000.0001) //     54 -------
(PID.TID 0000.0001) //     53 -------
(PID.TID 0000.0001) //     52 -------
(PID.TID 0000.0001) //     51 -------
(PID.TID 0000.0001) //     50 -------
(PID.TID 0000.0001) //     49 -------
(PID.TID 0000.0001) //     48 -------
(PID.TID 0000.0001) //     47 -------
(PID.TID 0000.0001) //     46 -------
(PID.TID 0000.0001) //     45 -------
(PID.TID 0000.0001) //     44 -------
(PID.TID 0000.0001) //     43 -------
(PID.TID 0000.0001) //     42 -------
(PID.TID 0000.0001) //     41 -------
(PID.TID 0000.0001) //     40 -------
(PID.TID 0000.0001) //     39 -------
(PID.TID 0000.0001) //     38 -------
(PID.TID 0000.0001) //     37 -------
(PID.TID 0000.0001) //     36 -------
(PID.TID 0000.0001) //     35 -------
(PID.TID 0000.0001) //     34 -------
(PID.TID 0000.0001) //     33 -------
(PID.TID 0000.0001) //     32 -------
(PID.TID 0000.0001) //     31 -------
(PID.TID 0000.0001) //     30 -------
(PID.TID 0000.0001) //     29 -------
(PID.TID 0000.0001) //     28 -------
(PID.TID 0000.0001) //     27 -------
(PID.TID 0000.0001) //     26 -------
(PID.TID 0000.0001) //     25 -------
(PID.TID 0000.0001) //     24 -------
(PID.TID 0000.0001) //     23 -------
(PID.TID 0000.0001) //     22 -------
(PID.TID 0000.0001) //     21 -------
(PID.TID 0000.0001) //     20 -------
(PID.TID 0000.0001) //     19 -------
(PID.TID 0000.0001) //     18 -------
(PID.TID 0000.0001) //     17 -------
(PID.TID 0000.0001) //     16 -------
(PID.TID 0000.0001) //     15 -------
(PID.TID 0000.0001) //     14 -------
(PID.TID 0000.0001) //     13 -------
(PID.TID 0000.0001) //     12 -------
(PID.TID 0000.0001) //     11 -------
(PID.TID 0000.0001) //     10 -------
(PID.TID 0000.0001) //      9 -------
(PID.TID 0000.0001) //      8 -------
(PID.TID 0000.0001) //      7 -------
(PID.TID 0000.0001) //      6 -------
(PID.TID 0000.0001) //      5 -------
(PID.TID 0000.0001) //      4 -------
(PID.TID 0000.0001) //      3 -------
(PID.TID 0000.0001) //      2 -------
(PID.TID 0000.0001) //      1 .......
(PID.TID 0000.0001) //      0 .......
(PID.TID 0000.0001) //     -1 -------
(PID.TID 0000.0001) //     -2 .......
(PID.TID 0000.0001) // =======================================================
(PID.TID 0000.0001) // END OF FIELD                                          =
(PID.TID 0000.0001) // =======================================================
(PID.TID 0000.0001) 
(PID.TID 0000.0001) // =======================================================
(PID.TID 0000.0001) // Field hFacW at iteration          1
(PID.TID 0000.0001) // CMIN =          1.000000000000000E+00
(PID.TID 0000.0001) // CMAX =          1.000000000000000E+00
(PID.TID 0000.0001) // CINT =          0.000000000000000E+00
(PID.TID 0000.0001) // SYMBOLS (CMIN->CMAX): -abcdefghijklmnopqrstuvwxyz+
(PID.TID 0000.0001) //                  0.0: .
(PID.TID 0000.0001) // RANGE I (Lo:Hi:Step):(  -2:   4:   1)
(PID.TID 0000.0001) // RANGE J (Lo:Hi:Step):(  59:  -2:  -1)
(PID.TID 0000.0001) // RANGE K (Lo:Hi:Step):(   1:   1:   1)
(PID.TID 0000.0001) // =======================================================
(PID.TID 0000.0001) K =   1
(PID.TID 0000.0001) //
(PID.TID 0000.0001) // |--J--|**01234
(PID.TID 0000.0001) //     59 -------
(PID.TID 0000.0001) //     58 -------
(PID.TID 0000.0001) //     57 .......
(PID.TID 0000.0001) //     56 .......
(PID.TID 0000.0001) //     55 -------
(PID.TID 0000.0001) //     54 -------
(PID.TID 0000.0001) //     53 -------
(PID.TID 0000.0001) //     52 -------
(PID.TID 0000.0001) //     51 -------
(PID.TID 0000.0001) //     50 -------
(PID.TID 0000.0001) //     49 -------
(PID.TID 0000.0001) //     48 -------
(PID.TID 0000.0001) //     47 -------
(PID.TID 0000.0001) //     46 -------
(PID.TID 0000.0001) //     45 -------
(PID.TID 0000.0001) //     44 -------
(PID.TID 0000.0001) //     43 -------
(PID.TID 0000.0001) //     42 -------
(PID.TID 0000.0001) //     41 -------
(PID.TID 0000.0001) //     40 -------
(PID.TID 0000.0001) //     39 -------
(PID.TID 0000.0001) //     38 -------
(PID.TID 0000.0001) //     37 -------
(PID.TID 0000.0001) //     36 -------
(PID.TID 0000.0001) //     35 -------
(PID.TID 0000.0001) //     34 -------
(PID.TID 0000.0001) //     33 -------
(PID.TID 0000.0001) //     32 -------
(PID.TID 0000.0001) //     31 -------
(PID.TID 0000.0001) //     30 -------
(PID.TID 0000.0001) //     29 -------
(PID.TID 0000.0001) //     28 -------
(PID.TID 0000.0001) //     27 -------
(PID.TID 0000.0001) //     26 -------
(PID.TID 0000.0001) //     25 -------
(PID.TID 0000.0001) //     24 -------
(PID.TID 0000.0001) //     23 -------
(PID.TID 0000.0001) //     22 -------
(PID.TID 0000.0001) //     21 -------
(PID.TID 0000.0001) //     20 -------
(PID.TID 0000.0001) //     19 -------
(PID.TID 0000.0001) //     18 -------
(PID.TID 0000.0001) //     17 -------
(PID.TID 0000.0001) //     16 -------
(PID.TID 0000.0001) //     15 -------
(PID.TID 0000.0001) //     14 -------
(PID.TID 0000.0001) //     13 -------
(PID.TID 0000.0001) //     12 -------
(PID.TID 0000.0001) //     11 -------
(PID.TID 0000.0001) //     10 -------
(PID.TID 0000.0001) //      9 -------
(PID.TID 0000.0001) //      8 -------
(PID.TID 0000.0001) //      7 -------
(PID.TID 0000.0001) //      6 -------
(PID.TID 0000.0001) //      5 -------
(PID.TID 0000.0001) //      4 -------
(PID.TID 0000.0001) //      3 -------
(PID.TID 0000.0001) //      2 -------
(PID.TID 0000.0001) //      1 .......
(PID.TID 0000.0001) //      0 .......
(PID.TID 0000.0001) //     -1 -------
(PID.TID 0000.0001) //     -2 -------
(PID.TID 0000.0001) // =======================================================
(PID.TID 0000.0001) // END OF FIELD                                          =
(PID.TID 0000.0001) // =======================================================
(PID.TID 0000.0001) 
(PID.TID 0000.0001) // =======================================================
(PID.TID 0000.0001) // Field hFacS at iteration          1
(PID.TID 0000.0001) // CMIN =          1.000000000000000E+00
(PID.TID 0000.0001) // CMAX =          1.000000000000000E+00
(PID.TID 0000.0001) // CINT =          0.000000000000000E+00
(PID.TID 0000.0001) // SYMBOLS (CMIN->CMAX): -abcdefghijklmnopqrstuvwxyz+
(PID.TID 0000.0001) //                  0.0: .
(PID.TID 0000.0001) // RANGE I (Lo:Hi:Step):(  -2:   4:   1)
(PID.TID 0000.0001) // RANGE J (Lo:Hi:Step):(  59:  -2:  -1)
(PID.TID 0000.0001) // RANGE K (Lo:Hi:Step):(   1:   1:   1)
(PID.TID 0000.0001) // =======================================================
(PID.TID 0000.0001) K =   1
(PID.TID 0000.0001) //
(PID.TID 0000.0001) // |--J--|**01234
(PID.TID 0000.0001) //     59 .......
(PID.TID 0000.0001) //     58 .......
(PID.TID 0000.0001) //     57 .......
(PID.TID 0000.0001) //     56 .......
(PID.TID 0000.0001) //     55 -------
(PID.TID 0000.0001) //     54 -------
(PID.TID 0000.0001) //     53 -------
(PID.TID 0000.0001) //     52 -------
(PID.TID 0000.0001) //     51 -------
(PID.TID 0000.0001) //     50 -------
(PID.TID 0000.0001) //     49 -------
(PID.TID 0000.0001) //     48 -------
(PID.TID 0000.0001) //     47 -------
(PID.TID 0000.0001) //     46 -------
(PID.TID 0000.0001) //     45 -------
(PID.TID 0000.0001) //     44 -------
(PID.TID 0000.0001) //     43 -------
(PID.TID 0000.0001) //     42 -------
(PID.TID 0000.0001) //     41 -------
(PID.TID 0000.0001) //     40 -------
(PID.TID 0000.0001) //     39 -------
(PID.TID 0000.0001) //     38 -------
(PID.TID 0000.0001) //     37 -------
(PID.TID 0000.0001) //     36 -------
(PID.TID 0000.0001) //     35 -------
(PID.TID 0000.0001) //     34 -------
(PID.TID 0000.0001) //     33 -------
(PID.TID 0000.0001) //     32 -------
(PID.TID 0000.0001) //     31 -------
(PID.TID 0000.0001) //     30 -------
(PID.TID 0000.0001) //     29 -------
(PID.TID 0000.0001) //     28 -------
(PID.TID 0000.0001) //     27 -------
(PID.TID 0000.0001) //     26 -------
(PID.TID 0000.0001) //     25 -------
(PID.TID 0000.0001) //     24 -------
(PID.TID 0000.0001) //     23 -------
(PID.TID 0000.0001) //     22 -------
(PID.TID 0000.0001) //     21 -------
(PID.TID 0000.0001) //     20 -------
(PID.TID 0000.0001) //     19 -------
(PID.TID 0000.0001) //     18 -------
(PID.TID 0000.0001) //     17 -------
(PID.TID 0000.0001) //     16 -------
(PID.TID 0000.0001) //     15 -------
(PID.TID 0000.0001) //     14 -------
(PID.TID 0000.0001) //     13 -------
(PID.TID 0000.0001) //     12 -------
(PID.TID 0000.0001) //     11 -------
(PID.TID 0000.0001) //     10 -------
(PID.TID 0000.0001) //      9 -------
(PID.TID 0000.0001) //      8 -------
(PID.TID 0000.0001) //      7 -------
(PID.TID 0000.0001) //      6 -------
(PID.TID 0000.0001) //      5 -------
(PID.TID 0000.0001) //      4 -------
(PID.TID 0000.0001) //      3 -------
(PID.TID 0000.0001) //      2 .......
(PID.TID 0000.0001) //      1 .......
(PID.TID 0000.0001) //      0 .......
(PID.TID 0000.0001) //     -1 .......
(PID.TID 0000.0001) //     -2 .......
(PID.TID 0000.0001) // =======================================================
(PID.TID 0000.0001) // END OF FIELD                                          =
(PID.TID 0000.0001) // =======================================================
(PID.TID 0000.0001) 
(PID.TID 0000.0001) %MON fCori_max                    =   1.4419980985793E-04
(PID.TID 0000.0001) %MON fCori_min                    =  -1.4419980985793E-04
(PID.TID 0000.0001) %MON fCori_mean                   =   4.8401882700246E-22
(PID.TID 0000.0001) %MON fCori_sd                     =   9.9129524406610E-05
(PID.TID 0000.0001) %MON fCoriG_max                   =   1.4365344605787E-04
(PID.TID 0000.0001) %MON fCoriG_min                   =  -1.4464734631126E-04
(PID.TID 0000.0001) %MON fCoriG_mean                  =  -2.6299517511138E-06
(PID.TID 0000.0001) %MON fCoriG_sd                    =   9.9997297738060E-05
(PID.TID 0000.0001) %MON fCoriCos_max                 =   1.4539426427085E-04
(PID.TID 0000.0001) %MON fCoriCos_min                 =   1.8984265119424E-05
(PID.TID 0000.0001) %MON fCoriCos_mean                =   9.8674157759248E-05
(PID.TID 0000.0001) %MON fCoriCos_sd                  =   3.9884025205722E-05
(PID.TID 0000.0001)  PACKAGES_BOOT: opening data.pkg
(PID.TID 0000.0001)  OPEN_COPY_DATA_FILE: opening file data.pkg
(PID.TID 0000.0001) // =======================================================
(PID.TID 0000.0001) // Parameter file "data.pkg"
(PID.TID 0000.0001) // =======================================================
(PID.TID 0000.0001) ># Packages
(PID.TID 0000.0001) > &PACKAGES
(PID.TID 0000.0001) > useGMRedi=.TRUE.,
(PID.TID 0000.0001) > &
(PID.TID 0000.0001) >
(PID.TID 0000.0001) 
(PID.TID 0000.0001)  PACKAGES_BOOT: finished reading data.pkg
(PID.TID 0000.0001)  GM_READPARMS: opening data.gmredi
(PID.TID 0000.0001)  OPEN_COPY_DATA_FILE: opening file data.gmredi
(PID.TID 0000.0001) // =======================================================
(PID.TID 0000.0001) // Parameter file "data.gmredi"
(PID.TID 0000.0001) // =======================================================
(PID.TID 0000.0001) ># from MOM
(PID.TID 0000.0001) ># GM_background_K: 	isopycnal diffusion coefficien
(PID.TID 0000.0001) ># GM_maxSlope:		max slope of isopycnals
(PID.TID 0000.0001) ># GM_Scrit:		transition for scaling diffusion coefficient
(PID.TID 0000.0001) ># GM_Sd:		half width scaling for diffusion coefficient
(PID.TID 0000.0001) ># real background diff:	horizontal diffusion
(PID.TID 0000.0001) >
(PID.TID 0000.0001) ># ifdef GM_VISBECK_VARIABLE_K, include following in GM_PARM01
(PID.TID 0000.0001) ># GM_Visbeck_alpha   = 0.,
(PID.TID 0000.0001) ># GM_Visbeck_length  = 2.e+5,
(PID.TID 0000.0001) ># GM_Visbeck_depth   = 1.e+3,
(PID.TID 0000.0001) ># GM_Visbeck_maxval_K= 2.5e+3,
(PID.TID 0000.0001) >
(PID.TID 0000.0001) > &GM_PARM01
(PID.TID 0000.0001) >  GM_AdvForm=.TRUE.,
(PID.TID 0000.0001) ># GM_AdvSeparate=.TRUE.,
(PID.TID 0000.0001) ># GM_background_K=1000.,
(PID.TID 0000.0001) >  GM_background_K=10.,
(PID.TID 0000.0001) ># GM_isopycK=1000.,
(PID.TID 0000.0001) ># GM_taper_scheme    = 'clipping',
(PID.TID 0000.0001) >  GM_taper_scheme    = 'linear',
(PID.TID 0000.0001) ># GM_taper_scheme    = 'gkw91',
(PID.TID 0000.0001) ># GM_taper_scheme    = 'ldd97',
(PID.TID 0000.0001) >  GM_maxSlope        = 1.e-2,
(PID.TID 0000.0001) >  GM_Scrit           = 4.e-3,
(PID.TID 0000.0001) >  GM_Sd              = 1.e-3,
(PID.TID 0000.0001) >  GM_Visbeck_alpha   = 1.e-2,
(PID.TID 0000.0001) >  GM_Visbeck_length  = 2.e+5,
(PID.TID 0000.0001) >  GM_Visbeck_depth   = 1.e+3,
(PID.TID 0000.0001) >  GM_Visbeck_maxval_K= 2.5e+3,
(PID.TID 0000.0001) > &end
(PID.TID 0000.0001) >
(PID.TID 0000.0001) >
(PID.TID 0000.0001) 
(PID.TID 0000.0001)  GM_READPARMS: finished reading data.gmredi
(PID.TID 0000.0001) GMREDI_CHECK: #define GMREDI
(PID.TID 0000.0001) GM_AdvForm =  /* if FALSE => use SkewFlux Form */
(PID.TID 0000.0001)                   T
(PID.TID 0000.0001)     ;
(PID.TID 0000.0001) GM_AdvSeparate = /* Calc Bolus & Euler Adv. separately */
(PID.TID 0000.0001)                   F
(PID.TID 0000.0001)     ;
(PID.TID 0000.0001) GM_ExtraDiag =  /* Tensor Extra Diag (line 1&2) non 0 */
(PID.TID 0000.0001)                   T
(PID.TID 0000.0001)     ;
(PID.TID 0000.0001) GM_isopycK =   /* Background Isopyc. Diffusivity ( m^2/s ) */
(PID.TID 0000.0001)                 1.000000000000000E+01
(PID.TID 0000.0001)     ;
(PID.TID 0000.0001)  GM_skewflx*K =   /* Background GM_SkewFlx Diffusivity ( m^2/s ) */
(PID.TID 0000.0001)                 0.000000000000000E+00
(PID.TID 0000.0001)     ;
(PID.TID 0000.0001)  GM_advec*K =   /* Backg. GM-Advec(=Bolus) Diffusivity ( m^2/s ) */
(PID.TID 0000.0001)                 1.000000000000000E+01
(PID.TID 0000.0001)     ;
(PID.TID 0000.0001)  GM_Visbeck_alpha =   /* Visbeck alpha coeff. ( ) */
(PID.TID 0000.0001)                 1.000000000000000E-02
(PID.TID 0000.0001)     ;
(PID.TID 0000.0001)  Tapering/Cliping : linear
(PID.TID 0000.0001)  GM_Small_Number =  /* epsilon used in slope calc */
(PID.TID 0000.0001)                 1.000000000000000E-12
(PID.TID 0000.0001)     ;
(PID.TID 0000.0001)  GM_slopeSqCutoff =  /* Slope^2 cut-off value */
(PID.TID 0000.0001)                 1.000000000000000E+48
(PID.TID 0000.0001)     ;
(PID.TID 0000.0001) 
(PID.TID 0000.0001) // ===================================
(PID.TID 0000.0001) // GAD parameters :
(PID.TID 0000.0001) // ===================================
(PID.TID 0000.0001) tempAdvScheme =   /* Temp. advection scheme selector */
(PID.TID 0000.0001)                      77
(PID.TID 0000.0001)     ;
(PID.TID 0000.0001) tempMultiDimAdvec =   /* use Muti-Dim Advec method for Temp */
(PID.TID 0000.0001)                   T
(PID.TID 0000.0001)     ;
(PID.TID 0000.0001) tempAdamsBashforth =   /* use Adams-Bashforth time-stepping for Temp */
(PID.TID 0000.0001)                   F
(PID.TID 0000.0001)     ;
(PID.TID 0000.0001) saltAdvScheme =   /* Salt. advection scheme selector */
(PID.TID 0000.0001)                       2
(PID.TID 0000.0001)     ;
(PID.TID 0000.0001) saltMultiDimAdvec =   /* use Muti-Dim Advec method for Salt */
(PID.TID 0000.0001)                   F
(PID.TID 0000.0001)     ;
(PID.TID 0000.0001) saltAdamsBashforth =   /* use Adams-Bashforth time-stepping for Salt */
(PID.TID 0000.0001)                   T
(PID.TID 0000.0001)     ;
(PID.TID 0000.0001) // ===================================
(PID.TID 0000.0001) // CG2D normalisation factor =          0.3504529336387451438029547E-04
(PID.TID 0000.0001) 
 ini_cg2d: sumArea,cg2dTolerance =  4.19688829104880E+12  1.22567651146013E-12
(PID.TID 0000.0001) CONFIG_CHECK: OK
(PID.TID 0000.0001) // =======================================================
(PID.TID 0000.0001) // Model configuration
(PID.TID 0000.0001) // =======================================================
(PID.TID 0000.0001) //
(PID.TID 0000.0001) // "Physical" paramters ( PARM01 in namelist )
(PID.TID 0000.0001) //
(PID.TID 0000.0001) buoyancyRelation = OCEANIC
(PID.TID 0000.0001) tRef =   /* Reference temperature profile ( oC or oK ) */
(PID.TID 0000.0001)                 1.880000000000000E+01,      /* K =  1 */
(PID.TID 0000.0001)                 1.630000000000000E+01,      /* K =  2 */
(PID.TID 0000.0001)                 1.310000000000000E+01,      /* K =  3 */
(PID.TID 0000.0001)                 1.040000000000000E+01,      /* K =  4 */
(PID.TID 0000.0001)                 8.100000000000000E+00,      /* K =  5 */
(PID.TID 0000.0001)                 6.000000000000000E+00,      /* K =  6 */
(PID.TID 0000.0001)                 4.500000000000000E+00,      /* K =  7 */
(PID.TID 0000.0001)                 3.400000000000000E+00,      /* K =  8 */
(PID.TID 0000.0001)                 2.700000000000000E+00,      /* K =  9 */
(PID.TID 0000.0001)                 2.200000000000000E+00,      /* K = 10 */
(PID.TID 0000.0001)                 1.800000000000000E+00,      /* K = 11 */
(PID.TID 0000.0001)                 1.500000000000000E+00,      /* K = 12 */
(PID.TID 0000.0001)                 1.200000000000000E+00,      /* K = 13 */
(PID.TID 0000.0001)                 1.000000000000000E+00,      /* K = 14 */
(PID.TID 0000.0001)                 9.000000000000000E-01       /* K = 15 */
(PID.TID 0000.0001)     ;
(PID.TID 0000.0001) sRef =   /* Reference salinity profile ( ppt ) */
(PID.TID 0000.0001)    15 @  3.470000000000000E+01              /* K =  1: 15 */
(PID.TID 0000.0001)     ;
(PID.TID 0000.0001) viscAh =   /* Lateral eddy viscosity ( m^2/s ) */
(PID.TID 0000.0001)                 1.200000000000000E+06
(PID.TID 0000.0001)     ;
(PID.TID 0000.0001) viscAh =   /* Lateral biharmonic viscosity ( m^4/s ) */
(PID.TID 0000.0001)                 0.000000000000000E+00
(PID.TID 0000.0001)     ;
(PID.TID 0000.0001) no_slip_sides =  /* Viscous BCs: No-slip sides */
(PID.TID 0000.0001)                   F
(PID.TID 0000.0001)     ;
(PID.TID 0000.0001) viscAz =   /* Vertical eddy viscosity ( m^2/s ) */
(PID.TID 0000.0001)                 1.000000000000000E-03
(PID.TID 0000.0001)     ;
(PID.TID 0000.0001) viscAr =   /* Vertical eddy viscosity ( units of r^2/s ) */
(PID.TID 0000.0001)                 1.000000000000000E-03
(PID.TID 0000.0001)     ;
(PID.TID 0000.0001) diffKhT =   /* Laplacian diffusion of heat laterally ( m^2/s ) */
(PID.TID 0000.0001)                 0.000000000000000E+00
(PID.TID 0000.0001)     ;
(PID.TID 0000.0001) diffK4T =   /* Bihaarmonic diffusion of heat laterally ( m^4/s ) */
(PID.TID 0000.0001)                 0.000000000000000E+00
(PID.TID 0000.0001)     ;
(PID.TID 0000.0001) diffKzT =   /* Laplacian diffusion of heat vertically ( m^2/s ) */
(PID.TID 0000.0001)                 1.000000000000000E-05
(PID.TID 0000.0001)     ;
(PID.TID 0000.0001) diffKrT =   /* Laplacian diffusion of heat vertically ( m^2/s ) */
(PID.TID 0000.0001)                 1.000000000000000E-05
(PID.TID 0000.0001)     ;
(PID.TID 0000.0001) diffKhS =   /* Laplacian diffusion of salt laterally ( m^2/s ) */
(PID.TID 0000.0001)                 0.000000000000000E+00
(PID.TID 0000.0001)     ;
(PID.TID 0000.0001) diffK4S =   /* Bihaarmonic diffusion of salt laterally ( m^4/s ) */
(PID.TID 0000.0001)                 0.000000000000000E+00
(PID.TID 0000.0001)     ;
(PID.TID 0000.0001) diffKzS =   /* Laplacian diffusion of salt vertically ( m^2/s ) */
(PID.TID 0000.0001)                 1.234567000000000E+05
(PID.TID 0000.0001)     ;
(PID.TID 0000.0001) diffKrS =   /* Laplacian diffusion of salt vertically ( m^2/s ) */
(PID.TID 0000.0001)                 0.000000000000000E+00
(PID.TID 0000.0001)     ;
(PID.TID 0000.0001)  Equation of State : eosType = LINEAR
(PID.TID 0000.0001) tAlpha =   /* Linear EOS thermal expansion coefficient ( 1/degree ) */
(PID.TID 0000.0001)                 2.000000000000000E-04
(PID.TID 0000.0001)     ;
(PID.TID 0000.0001) sBeta =   /* Linear EOS haline contraction coefficient ( 1/ppt ) */
(PID.TID 0000.0001)                 0.000000000000000E+00
(PID.TID 0000.0001)     ;
(PID.TID 0000.0001) rhonil =   /* Reference density ( kg/m^3 ) */
(PID.TID 0000.0001)                 1.035000000000000E+03
(PID.TID 0000.0001)     ;
(PID.TID 0000.0001) rhoConst =   /* Reference density ( kg/m^3 ) */
(PID.TID 0000.0001)                 1.035000000000000E+03
(PID.TID 0000.0001)     ;
(PID.TID 0000.0001) rhoConstFresh =   /* Reference density ( kg/m^3 ) */
(PID.TID 0000.0001)                 9.998000000000000E+02
(PID.TID 0000.0001)     ;
(PID.TID 0000.0001) gravity =   /* Gravitational acceleration ( m/s^2 ) */
(PID.TID 0000.0001)                 9.810000000000000E+00
(PID.TID 0000.0001)     ;
(PID.TID 0000.0001) gBaro =   /* Barotropic gravity ( m/s^2 ) */
(PID.TID 0000.0001)                 9.810000000000000E+00
(PID.TID 0000.0001)     ;
(PID.TID 0000.0001) f0 =   /* Reference coriolis parameter ( 1/s ) */
(PID.TID 0000.0001)                 1.000000000000000E-04
(PID.TID 0000.0001)     ;
(PID.TID 0000.0001) beta =   /* Beta ( 1/(m.s) ) */
(PID.TID 0000.0001)                 9.999999999999999E-12
(PID.TID 0000.0001)     ;
(PID.TID 0000.0001) freeSurfFac =   /* Implicit free surface factor */
(PID.TID 0000.0001)                 1.000000000000000E+00
(PID.TID 0000.0001)     ;
(PID.TID 0000.0001) implicitFreeSurface =   /* Implicit free surface on/off flag */
(PID.TID 0000.0001)                   T
(PID.TID 0000.0001)     ;
(PID.TID 0000.0001) rigidLid =   /* Rigid lid on/off flag */
(PID.TID 0000.0001)                   F
(PID.TID 0000.0001)     ;
(PID.TID 0000.0001) implicSurfPress =   /* Surface Pressure implicit factor (0-1)*/
(PID.TID 0000.0001)                 1.000000000000000E+00
(PID.TID 0000.0001)     ;
(PID.TID 0000.0001) implicDiv2Dflow =   /* Barot. Flow Div. implicit factor (0-1)*/
(PID.TID 0000.0001)                 1.000000000000000E+00
(PID.TID 0000.0001)     ;
(PID.TID 0000.0001) exactConserv =   /* Exact Volume Conservation on/off flag*/
(PID.TID 0000.0001)                   T
(PID.TID 0000.0001)     ;
(PID.TID 0000.0001) uniformLin_PhiSurf =   /* use uniform Bo_surf on/off flag*/
(PID.TID 0000.0001)                   T
(PID.TID 0000.0001)     ;
(PID.TID 0000.0001) nonlinFreeSurf =   /* Non-linear Free Surf. options (-1,0,1,2,3)*/
(PID.TID 0000.0001)                       0
(PID.TID 0000.0001)     ;
(PID.TID 0000.0001)      -1,0= Off ; 1,2,3= On, 2=+rescale gU,gV, 3=+update cg2d solv.
(PID.TID 0000.0001) hFacInf =   /* lower threshold for hFac (nonlinFreeSurf only)*/
(PID.TID 0000.0001)                 1.000000000000000E+00
(PID.TID 0000.0001)     ;
(PID.TID 0000.0001) hFacSup =   /* upper threshold for hFac (nonlinFreeSurf only)*/
(PID.TID 0000.0001)                 1.000000000000000E+00
(PID.TID 0000.0001)     ;
(PID.TID 0000.0001) useRealFreshWaterFlux =   /* Real Fresh Water Flux on/off flag*/
(PID.TID 0000.0001)                   F
(PID.TID 0000.0001)     ;
(PID.TID 0000.0001) convertFW2Salt = /* convert F.W. Flux to Salt Flux (-1=use local S)(ppt)*/
(PID.TID 0000.0001)                 3.500000000000000E+01
(PID.TID 0000.0001)     ;
(PID.TID 0000.0001) multiDimAdvection =   /* enable/disable Multi-Dim Advection */
(PID.TID 0000.0001)                   T
(PID.TID 0000.0001)     ;
(PID.TID 0000.0001) staggerTimeStep =   /* Stagger time stepping on/off flag */
(PID.TID 0000.0001)                   T
(PID.TID 0000.0001)     ;
(PID.TID 0000.0001) momStepping =  /* Momentum equation on/off flag */
(PID.TID 0000.0001)                   T
(PID.TID 0000.0001)     ;
(PID.TID 0000.0001) momAdvection =  /* Momentum advection on/off flag */
(PID.TID 0000.0001)                   T
(PID.TID 0000.0001)     ;
(PID.TID 0000.0001) momViscosity =  /* Momentum viscosity on/off flag */
(PID.TID 0000.0001)                   T
(PID.TID 0000.0001)     ;
(PID.TID 0000.0001) useCoriolis =  /* Coriolis on/off flag */
(PID.TID 0000.0001)                   T
(PID.TID 0000.0001)     ;
(PID.TID 0000.0001) momForcing =  /* Momentum forcing on/off flag */
(PID.TID 0000.0001)                   T
(PID.TID 0000.0001)     ;
(PID.TID 0000.0001) momPressureForcing =  /* Momentum pressure term on/off flag */
(PID.TID 0000.0001)                   T
(PID.TID 0000.0001)     ;
(PID.TID 0000.0001) tempStepping =  /* Temperature equation on/off flag */
(PID.TID 0000.0001)                   T
(PID.TID 0000.0001)     ;
(PID.TID 0000.0001) tempAdvection=  /* Temperature advection on/off flag */
(PID.TID 0000.0001)                   T
(PID.TID 0000.0001)     ;
(PID.TID 0000.0001) tempForcing  =  /* Temperature forcing on/off flag */
(PID.TID 0000.0001)                   T
(PID.TID 0000.0001)     ;
(PID.TID 0000.0001) saltStepping =  /* Salinity equation on/off flag */
(PID.TID 0000.0001)                   F
(PID.TID 0000.0001)     ;
(PID.TID 0000.0001) saltAdvection=  /* Salinity advection on/off flag */
(PID.TID 0000.0001)                   F
(PID.TID 0000.0001)     ;
(PID.TID 0000.0001) saltForcing  =  /* Salinity forcing on/off flag */
(PID.TID 0000.0001)                   F
(PID.TID 0000.0001)     ;
(PID.TID 0000.0001) nonHydrostatic =  /* Non-Hydrostatic on/off flag */
(PID.TID 0000.0001)                   F
(PID.TID 0000.0001)     ;
(PID.TID 0000.0001) //
(PID.TID 0000.0001) // Elliptic solver(s) paramters ( PARM02 in namelist )
(PID.TID 0000.0001) //
(PID.TID 0000.0001) cg2dMaxIters =   /* Upper limit on 2d con. grad iterations  */
(PID.TID 0000.0001)                    1000
(PID.TID 0000.0001)     ;
(PID.TID 0000.0001) cg2dChkResFreq =   /* 2d con. grad convergence test frequency */
(PID.TID 0000.0001)                       1
(PID.TID 0000.0001)     ;
(PID.TID 0000.0001) cg2dTargetResidual =   /* 2d con. grad target residual  */
(PID.TID 0000.0001)                 1.000000000000000E-07
(PID.TID 0000.0001)     ;
(PID.TID 0000.0001) //
(PID.TID 0000.0001) // Time stepping paramters ( PARM03 in namelist )
(PID.TID 0000.0001) //
(PID.TID 0000.0001) nIter0 =   /* Base timestep number  */
(PID.TID 0000.0001)                   36000
(PID.TID 0000.0001)     ;
(PID.TID 0000.0001) nTimeSteps =   /* Number of timesteps */
(PID.TID 0000.0001)                      20
(PID.TID 0000.0001)     ;
(PID.TID 0000.0001) deltatTmom =   /* Momentum equation timestep ( s ) */
(PID.TID 0000.0001)                 1.200000000000000E+03
(PID.TID 0000.0001)     ;
(PID.TID 0000.0001) deltaTfreesurf =   /* FreeSurface equation timestep ( s ) */
(PID.TID 0000.0001)                 3.600000000000000E+03
(PID.TID 0000.0001)     ;
(PID.TID 0000.0001) deltatTtracer =   /* Tracer equation timestep ( s ) */
(PID.TID 0000.0001)                 8.640000000000000E+04
(PID.TID 0000.0001)     ;
(PID.TID 0000.0001) deltatTClock  =   /* Model clock timestep ( s ) */
(PID.TID 0000.0001)                 8.640000000000000E+04
(PID.TID 0000.0001)     ;
(PID.TID 0000.0001) cAdjFreq =   /* Convective adjustment interval ( s ) */
(PID.TID 0000.0001)                 0.000000000000000E+00
(PID.TID 0000.0001)     ;
(PID.TID 0000.0001) forcing_In_AB =   /* put T,S Forcing in Adams-Bash. stepping */
(PID.TID 0000.0001)                   T
(PID.TID 0000.0001)     ;
(PID.TID 0000.0001) abeps =   /* Adams-Bashforth stabilizing weight */
(PID.TID 0000.0001)                 1.000000000000000E-01
(PID.TID 0000.0001)     ;
(PID.TID 0000.0001) tauCD =   /* CD coupling time-scale ( s ) */
(PID.TID 0000.0001)                 3.214280000000000E+05
(PID.TID 0000.0001)     ;
(PID.TID 0000.0001) rCD =   /* Normalised CD coupling parameter */
(PID.TID 0000.0001)                 9.962666600296178E-01
(PID.TID 0000.0001)     ;
(PID.TID 0000.0001) startTime =   /* Run start time ( s ). */
(PID.TID 0000.0001)                 3.110400000000000E+09
(PID.TID 0000.0001)     ;
(PID.TID 0000.0001) endTime =   /* Integration ending time ( s ). */
(PID.TID 0000.0001)                 3.112128000000000E+09
(PID.TID 0000.0001)     ;
(PID.TID 0000.0001) pChkPtFreq =   /* Permanent restart/checkpoint file interval ( s ). */
(PID.TID 0000.0001)                 3.110400000000000E+09
(PID.TID 0000.0001)     ;
(PID.TID 0000.0001) chkPtFreq =   /* Rolling restart/checkpoint file interval ( s ). */
(PID.TID 0000.0001)                 0.000000000000000E+00
(PID.TID 0000.0001)     ;
(PID.TID 0000.0001) dumpFreq =   /* Model state write out interval ( s ). */
(PID.TID 0000.0001)                 1.555200000000000E+09
(PID.TID 0000.0001)     ;
(PID.TID 0000.0001) //
(PID.TID 0000.0001) // Gridding paramters ( PARM04 in namelist )
(PID.TID 0000.0001) //
(PID.TID 0000.0001) usingCartesianGrid =   /* Cartesian coordinates flag ( True / False ) */
(PID.TID 0000.0001)                   F
(PID.TID 0000.0001)     ;
(PID.TID 0000.0001) usingSphericalPolarGrid =   /* Spherical coordinates flag ( True / False ) */
(PID.TID 0000.0001)                   T
(PID.TID 0000.0001)     ;
(PID.TID 0000.0001) groundAtK1 =   /* Lower Boundary (ground) at the surface(k=1) ( T / F ) */
(PID.TID 0000.0001)                   F
(PID.TID 0000.0001)     ;
(PID.TID 0000.0001) Ro_SeaLevel =   /* r(1) ( units of r ) */
(PID.TID 0000.0001)                 0.000000000000000E+00
(PID.TID 0000.0001)     ;
(PID.TID 0000.0001) rkFac =   /* minus Vertical index orientation  */
(PID.TID 0000.0001)                 1.000000000000000E+00
(PID.TID 0000.0001)     ;
(PID.TID 0000.0001) horiVertRatio =   /* Ratio on units : Horiz - Vertical */
(PID.TID 0000.0001)                 1.000000000000000E+00
(PID.TID 0000.0001)     ;
(PID.TID 0000.0001) drC =   /* C spacing ( units of r ) */
(PID.TID 0000.0001)                 2.000000000000000E+01,      /* K =  1 */
(PID.TID 0000.0001)                 6.000000000000000E+01,      /* K =  2 */
(PID.TID 0000.0001)                 8.500000000000000E+01,      /* K =  3 */
(PID.TID 0000.0001)                 1.200000000000000E+02,      /* K =  4 */
(PID.TID 0000.0001)                 1.650000000000000E+02,      /* K =  5 */
(PID.TID 0000.0001)                 2.150000000000000E+02,      /* K =  6 */
(PID.TID 0000.0001)                 2.650000000000000E+02,      /* K =  7 */
(PID.TID 0000.0001)                 3.150000000000000E+02,      /* K =  8 */
(PID.TID 0000.0001)                 3.650000000000000E+02,      /* K =  9 */
(PID.TID 0000.0001)                 4.150000000000000E+02,      /* K = 10 */
(PID.TID 0000.0001)                 4.650000000000000E+02,      /* K = 11 */
(PID.TID 0000.0001)                 5.150000000000000E+02,      /* K = 12 */
(PID.TID 0000.0001)                 5.650000000000000E+02,      /* K = 13 */
(PID.TID 0000.0001)                 6.150000000000000E+02,      /* K = 14 */
(PID.TID 0000.0001)                 6.650000000000000E+02       /* K = 15 */
(PID.TID 0000.0001)     ;
(PID.TID 0000.0001) drF =   /* W spacing ( units of r ) */
(PID.TID 0000.0001)                 5.000000000000000E+01,      /* K =  1 */
(PID.TID 0000.0001)                 7.250000000000000E+01,      /* K =  2 */
(PID.TID 0000.0001)                 1.025000000000000E+02,      /* K =  3 */
(PID.TID 0000.0001)                 1.425000000000000E+02,      /* K =  4 */
(PID.TID 0000.0001)                 1.900000000000000E+02,      /* K =  5 */
(PID.TID 0000.0001)                 2.400000000000000E+02,      /* K =  6 */
(PID.TID 0000.0001)                 2.900000000000000E+02,      /* K =  7 */
(PID.TID 0000.0001)                 3.400000000000000E+02,      /* K =  8 */
(PID.TID 0000.0001)                 3.900000000000000E+02,      /* K =  9 */
(PID.TID 0000.0001)                 4.400000000000000E+02,      /* K = 10 */
(PID.TID 0000.0001)                 4.900000000000000E+02,      /* K = 11 */
(PID.TID 0000.0001)                 5.400000000000000E+02,      /* K = 12 */
(PID.TID 0000.0001)                 5.900000000000000E+02,      /* K = 13 */
(PID.TID 0000.0001)                 6.400000000000000E+02,      /* K = 14 */
(PID.TID 0000.0001)                 6.825000000000000E+02       /* K = 15 */
(PID.TID 0000.0001)     ;
(PID.TID 0000.0001) delX =   /* U spacing ( m - cartesian, degrees - spherical ) */
(PID.TID 0000.0001)                 3.000000000000000E+00       /* I =  1 */
(PID.TID 0000.0001)     ;
(PID.TID 0000.0001) delY =   /* V spacing ( m - cartesian, degrees - spherical ) */
(PID.TID 0000.0001)    56 @  3.000000000000000E+00              /* J =  1: 56 */
(PID.TID 0000.0001)     ;
(PID.TID 0000.0001) phiMin =    /* South edge (ignored - cartesian, degrees - spherical ) */
(PID.TID 0000.0001)                -8.400000000000000E+01
(PID.TID 0000.0001)     ;
(PID.TID 0000.0001) thetaMin =    /* West edge ( ignored - cartesian, degrees - spherical ) */
(PID.TID 0000.0001)                 0.000000000000000E+00
(PID.TID 0000.0001)     ;
(PID.TID 0000.0001) rSphere =    /* Radius ( ignored - cartesian, m - spherical ) */
(PID.TID 0000.0001)                 6.370000000000000E+06
(PID.TID 0000.0001)     ;
(PID.TID 0000.0001) xcoord =   /* P-point X coord ( m - cartesian, degrees - spherical ) */
(PID.TID 0000.0001)                 1.500000000000000E+00       /* I =  1 */
(PID.TID 0000.0001)     ;
(PID.TID 0000.0001) ycoord =   /* P-point Y coord ( m - cartesian, degrees - spherical ) */
(PID.TID 0000.0001)                -8.250000000000000E+01,      /* J =  1 */
(PID.TID 0000.0001)                -7.950000000000000E+01,      /* J =  2 */
(PID.TID 0000.0001)                -7.650000000000000E+01,      /* J =  3 */
(PID.TID 0000.0001)                -7.350000000000000E+01,      /* J =  4 */
(PID.TID 0000.0001)                -7.050000000000000E+01,      /* J =  5 */
(PID.TID 0000.0001)                -6.750000000000000E+01,      /* J =  6 */
(PID.TID 0000.0001)                -6.450000000000000E+01,      /* J =  7 */
(PID.TID 0000.0001)                -6.150000000000000E+01,      /* J =  8 */
(PID.TID 0000.0001)                -5.850000000000000E+01,      /* J =  9 */
(PID.TID 0000.0001)                -5.550000000000000E+01,      /* J = 10 */
(PID.TID 0000.0001)                -5.250000000000000E+01,      /* J = 11 */
(PID.TID 0000.0001)                -4.950000000000000E+01,      /* J = 12 */
(PID.TID 0000.0001)                -4.650000000000000E+01,      /* J = 13 */
(PID.TID 0000.0001)                -4.350000000000000E+01,      /* J = 14 */
(PID.TID 0000.0001)                -4.050000000000000E+01,      /* J = 15 */
(PID.TID 0000.0001)                -3.750000000000000E+01,      /* J = 16 */
(PID.TID 0000.0001)                -3.450000000000000E+01,      /* J = 17 */
(PID.TID 0000.0001)                -3.150000000000000E+01,      /* J = 18 */
(PID.TID 0000.0001)                -2.850000000000000E+01,      /* J = 19 */
(PID.TID 0000.0001)                -2.550000000000000E+01,      /* J = 20 */
(PID.TID 0000.0001)                -2.250000000000000E+01,      /* J = 21 */
(PID.TID 0000.0001)                -1.950000000000000E+01,      /* J = 22 */
(PID.TID 0000.0001)                -1.650000000000000E+01,      /* J = 23 */
(PID.TID 0000.0001)                -1.350000000000000E+01,      /* J = 24 */
(PID.TID 0000.0001)                -1.050000000000000E+01,      /* J = 25 */
(PID.TID 0000.0001)                -7.500000000000000E+00,      /* J = 26 */
(PID.TID 0000.0001)                -4.500000000000000E+00,      /* J = 27 */
(PID.TID 0000.0001)                -1.500000000000000E+00,      /* J = 28 */
(PID.TID 0000.0001)                 1.500000000000000E+00,      /* J = 29 */
(PID.TID 0000.0001)                 4.500000000000000E+00,      /* J = 30 */
(PID.TID 0000.0001)                 7.500000000000000E+00,      /* J = 31 */
(PID.TID 0000.0001)                 1.050000000000000E+01,      /* J = 32 */
(PID.TID 0000.0001)                 1.350000000000000E+01,      /* J = 33 */
(PID.TID 0000.0001)                 1.650000000000000E+01,      /* J = 34 */
(PID.TID 0000.0001)                 1.950000000000000E+01,      /* J = 35 */
(PID.TID 0000.0001)                 2.250000000000000E+01,      /* J = 36 */
(PID.TID 0000.0001)                 2.550000000000000E+01,      /* J = 37 */
(PID.TID 0000.0001)                 2.850000000000000E+01,      /* J = 38 */
(PID.TID 0000.0001)                 3.150000000000000E+01,      /* J = 39 */
(PID.TID 0000.0001)                 3.450000000000000E+01,      /* J = 40 */
(PID.TID 0000.0001)                 3.750000000000000E+01,      /* J = 41 */
(PID.TID 0000.0001)                 4.050000000000000E+01,      /* J = 42 */
(PID.TID 0000.0001)                 4.350000000000000E+01,      /* J = 43 */
(PID.TID 0000.0001)                 4.650000000000000E+01,      /* J = 44 */
(PID.TID 0000.0001)                 4.950000000000000E+01,      /* J = 45 */
(PID.TID 0000.0001)                 5.250000000000000E+01,      /* J = 46 */
(PID.TID 0000.0001)                 5.550000000000000E+01,      /* J = 47 */
(PID.TID 0000.0001)                 5.850000000000000E+01,      /* J = 48 */
(PID.TID 0000.0001)                 6.150000000000000E+01,      /* J = 49 */
(PID.TID 0000.0001)                 6.450000000000000E+01,      /* J = 50 */
(PID.TID 0000.0001)                 6.750000000000000E+01,      /* J = 51 */
(PID.TID 0000.0001)                 7.050000000000000E+01,      /* J = 52 */
(PID.TID 0000.0001)                 7.350000000000000E+01,      /* J = 53 */
(PID.TID 0000.0001)                 7.650000000000000E+01,      /* J = 54 */
(PID.TID 0000.0001)                 7.950000000000000E+01,      /* J = 55 */
(PID.TID 0000.0001)                 8.250000000000000E+01       /* J = 56 */
(PID.TID 0000.0001)     ;
(PID.TID 0000.0001) rcoord =   /* P-point R coordinate (  units of r ) */
(PID.TID 0000.0001)                -2.000000000000000E+01,      /* K =  1 */
(PID.TID 0000.0001)                -8.000000000000000E+01,      /* K =  2 */
(PID.TID 0000.0001)                -1.650000000000000E+02,      /* K =  3 */
(PID.TID 0000.0001)                -2.850000000000000E+02,      /* K =  4 */
(PID.TID 0000.0001)                -4.500000000000000E+02,      /* K =  5 */
(PID.TID 0000.0001)                -6.650000000000000E+02,      /* K =  6 */
(PID.TID 0000.0001)                -9.300000000000000E+02,      /* K =  7 */
(PID.TID 0000.0001)                -1.245000000000000E+03,      /* K =  8 */
(PID.TID 0000.0001)                -1.610000000000000E+03,      /* K =  9 */
(PID.TID 0000.0001)                -2.025000000000000E+03,      /* K = 10 */
(PID.TID 0000.0001)                -2.490000000000000E+03,      /* K = 11 */
(PID.TID 0000.0001)                -3.005000000000000E+03,      /* K = 12 */
(PID.TID 0000.0001)                -3.570000000000000E+03,      /* K = 13 */
(PID.TID 0000.0001)                -4.185000000000000E+03,      /* K = 14 */
(PID.TID 0000.0001)                -4.850000000000000E+03       /* K = 15 */
(PID.TID 0000.0001)     ;
(PID.TID 0000.0001) rF =   /* W-Interf. R coordinate (  units of r ) */
(PID.TID 0000.0001)                 0.000000000000000E+00,      /* K =  1 */
(PID.TID 0000.0001)                -5.000000000000000E+01,      /* K =  2 */
(PID.TID 0000.0001)                -1.225000000000000E+02,      /* K =  3 */
(PID.TID 0000.0001)                -2.250000000000000E+02,      /* K =  4 */
(PID.TID 0000.0001)                -3.675000000000000E+02,      /* K =  5 */
(PID.TID 0000.0001)                -5.575000000000000E+02,      /* K =  6 */
(PID.TID 0000.0001)                -7.975000000000000E+02,      /* K =  7 */
(PID.TID 0000.0001)                -1.087500000000000E+03,      /* K =  8 */
(PID.TID 0000.0001)                -1.427500000000000E+03,      /* K =  9 */
(PID.TID 0000.0001)                -1.817500000000000E+03,      /* K = 10 */
(PID.TID 0000.0001)                -2.257500000000000E+03,      /* K = 11 */
(PID.TID 0000.0001)                -2.747500000000000E+03,      /* K = 12 */
(PID.TID 0000.0001)                -3.287500000000000E+03,      /* K = 13 */
(PID.TID 0000.0001)                -3.877500000000000E+03,      /* K = 14 */
(PID.TID 0000.0001)                -4.517500000000000E+03,      /* K = 15 */
(PID.TID 0000.0001)                -5.200000000000000E+03       /* K = 16 */
(PID.TID 0000.0001)     ;
(PID.TID 0000.0001) dxF =  /* dxF(:,1,:,1) ( m - cartesian, degrees - spherical ) */
(PID.TID 0000.0001)                 4.353471677186368E+04       /* I =  1 */
(PID.TID 0000.0001)     ;
(PID.TID 0000.0001) dxF =  /* dxF(1,:,1,:) ( m - cartesian, degrees - spherical ) */
(PID.TID 0000.0001)                 4.353471677186368E+04,      /* J =  1 */
(PID.TID 0000.0001)                 6.078145583759403E+04,      /* J =  2 */
(PID.TID 0000.0001)                 7.786159715774079E+04,      /* J =  3 */
(PID.TID 0000.0001)                 9.472832525217145E+04,      /* J =  4 */
(PID.TID 0000.0001)                 1.113354095915710E+05,      /* J =  5 */
(PID.TID 0000.0001)                 1.276373313121095E+05,      /* J =  6 */
(PID.TID 0000.0001)                 1.435894079794837E+05,      /* J =  7 */
(PID.TID 0000.0001)                 1.591479160603634E+05,      /* J =  8 */
(PID.TID 0000.0001)                 1.742702107655578E+05,      /* J =  9 */
(PID.TID 0000.0001)                 1.889148429364175E+05,      /* J = 10 */
(PID.TID 0000.0001)                 2.030416726540983E+05,      /* J = 11 */
(PID.TID 0000.0001)                 2.166119792602878E+05,      /* J = 12 */
(PID.TID 0000.0001)                 2.295885674878389E+05,      /* J = 13 */
(PID.TID 0000.0001)                 2.419358694104115E+05,      /* J = 14 */
(PID.TID 0000.0001)                 2.536200419316863E+05,      /* J = 15 */
(PID.TID 0000.0001)                 2.646090595469393E+05,      /* J = 16 */
(PID.TID 0000.0001)                 2.748728021227244E+05,      /* J = 17 */
(PID.TID 0000.0001)                 2.843831374540652E+05,      /* J = 18 */
(PID.TID 0000.0001)                 2.931139983728740E+05,      /* J = 19 */
(PID.TID 0000.0001)                 3.010414541962469E+05,      /* J = 20 */
(PID.TID 0000.0001)                 3.081437763188029E+05,      /* J = 21 */
(PID.TID 0000.0001)                 3.144014977692803E+05,      /* J = 22 */
(PID.TID 0000.0001)                 3.197974665681523E+05,      /* J = 23 */
(PID.TID 0000.0001)                 3.243168927400103E+05,      /* J = 24 */
(PID.TID 0000.0001)                 3.279473888518588E+05,      /* J = 25 */
(PID.TID 0000.0001)                 3.306790039662078E+05,      /* J = 26 */
(PID.TID 0000.0001)                 3.325042509159012E+05,      /* J = 27 */
(PID.TID 0000.0001)     2 @  3.334181268259212E+05,             /* J = 28: 29 */
(PID.TID 0000.0001)                 3.325042509159012E+05,      /* J = 30 */
(PID.TID 0000.0001)                 3.306790039662078E+05,      /* J = 31 */
(PID.TID 0000.0001)                 3.279473888518588E+05,      /* J = 32 */
(PID.TID 0000.0001)                 3.243168927400103E+05,      /* J = 33 */
(PID.TID 0000.0001)                 3.197974665681523E+05,      /* J = 34 */
(PID.TID 0000.0001)                 3.144014977692803E+05,      /* J = 35 */
(PID.TID 0000.0001)                 3.081437763188029E+05,      /* J = 36 */
(PID.TID 0000.0001)                 3.010414541962469E+05,      /* J = 37 */
(PID.TID 0000.0001)                 2.931139983728740E+05,      /* J = 38 */
(PID.TID 0000.0001)                 2.843831374540652E+05,      /* J = 39 */
(PID.TID 0000.0001)                 2.748728021227244E+05,      /* J = 40 */
(PID.TID 0000.0001)                 2.646090595469393E+05,      /* J = 41 */
(PID.TID 0000.0001)                 2.536200419316863E+05,      /* J = 42 */
(PID.TID 0000.0001)                 2.419358694104115E+05,      /* J = 43 */
(PID.TID 0000.0001)                 2.295885674878389E+05,      /* J = 44 */
(PID.TID 0000.0001)                 2.166119792602878E+05,      /* J = 45 */
(PID.TID 0000.0001)                 2.030416726540983E+05,      /* J = 46 */
(PID.TID 0000.0001)                 1.889148429364175E+05,      /* J = 47 */
(PID.TID 0000.0001)                 1.742702107655578E+05,      /* J = 48 */
(PID.TID 0000.0001)                 1.591479160603634E+05,      /* J = 49 */
(PID.TID 0000.0001)                 1.435894079794837E+05,      /* J = 50 */
(PID.TID 0000.0001)                 1.276373313121095E+05,      /* J = 51 */
(PID.TID 0000.0001)                 1.113354095915710E+05,      /* J = 52 */
(PID.TID 0000.0001)                 9.472832525217145E+04,      /* J = 53 */
(PID.TID 0000.0001)                 7.786159715774079E+04,      /* J = 54 */
(PID.TID 0000.0001)                 6.078145583759403E+04,      /* J = 55 */
(PID.TID 0000.0001)                 4.353471677186368E+04       /* J = 56 */
(PID.TID 0000.0001)     ;
(PID.TID 0000.0001) dyF =  /* dyF(:,1,:,1) ( m - cartesian, degrees - spherical ) */
(PID.TID 0000.0001)                 3.335324200561164E+05       /* I =  1 */
(PID.TID 0000.0001)     ;
(PID.TID 0000.0001) dyF =  /* dyF(1,:,1,:) ( m - cartesian, degrees - spherical ) */
(PID.TID 0000.0001)    56 @  3.335324200561164E+05              /* J =  1: 56 */
(PID.TID 0000.0001)     ;
(PID.TID 0000.0001) dxG =  /* dxG(:,1,:,1) ( m - cartesian, degrees - spherical ) */
(PID.TID 0000.0001)                 3.486363131840732E+04       /* I =  1 */
(PID.TID 0000.0001)     ;
(PID.TID 0000.0001) dxG =  /* dxG(1,:,1,:) ( m - cartesian, degrees - spherical ) */
(PID.TID 0000.0001)                 3.486363131840732E+04,      /* J =  1 */
(PID.TID 0000.0001)                 5.217596570505215E+04,      /* J =  2 */
(PID.TID 0000.0001)                 6.934528939640634E+04,      /* J =  3 */
(PID.TID 0000.0001)                 8.632454246965688E+04,      /* J =  4 */
(PID.TID 0000.0001)                 1.030671859723435E+05,      /* J =  5 */
(PID.TID 0000.0001)                 1.195273294823922E+05,      /* J =  6 */
(PID.TID 0000.0001)                 1.356598568905725E+05,      /* J =  7 */
(PID.TID 0000.0001)                 1.514205500606167E+05,      /* J =  8 */
(PID.TID 0000.0001)                 1.667662100280582E+05,      /* J =  9 */
(PID.TID 0000.0001)                 1.816547754055899E+05,      /* J = 10 */
(PID.TID 0000.0001)                 1.960454376704035E+05,      /* J = 11 */
(PID.TID 0000.0001)                 2.098987530175138E+05,      /* J = 12 */
(PID.TID 0000.0001)                 2.231767504724865E+05,      /* J = 13 */
(PID.TID 0000.0001)                 2.358430359672399E+05,      /* J = 14 */
(PID.TID 0000.0001)                 2.478628920936555E+05,      /* J = 15 */
(PID.TID 0000.0001)                 2.592033732615809E+05,      /* J = 16 */
(PID.TID 0000.0001)                 2.698333960004017E+05,      /* J = 17 */
(PID.TID 0000.0001)                 2.797238241566748E+05,      /* J = 18 */
(PID.TID 0000.0001)                 2.888475487542992E+05,      /* J = 19 */
(PID.TID 0000.0001)                 2.971795622983349E+05,      /* J = 20 */
(PID.TID 0000.0001)                 3.046970273188090E+05,      /* J = 21 */
(PID.TID 0000.0001)                 3.113793389666330E+05,      /* J = 22 */
(PID.TID 0000.0001)                 3.172081814900619E+05,      /* J = 23 */
(PID.TID 0000.0001)                 3.221675784368968E+05,      /* J = 24 */
(PID.TID 0000.0001)                 3.262439364448301E+05,      /* J = 25 */
(PID.TID 0000.0001)                 3.294260824999060E+05,      /* J = 26 */
(PID.TID 0000.0001)                 3.317052945609760E+05,      /* J = 27 */
(PID.TID 0000.0001)                 3.330753254662066E+05,      /* J = 28 */
(PID.TID 0000.0001)                 3.335324200561164E+05,      /* J = 29 */
(PID.TID 0000.0001)                 3.330753254662066E+05,      /* J = 30 */
(PID.TID 0000.0001)                 3.317052945609760E+05,      /* J = 31 */
(PID.TID 0000.0001)                 3.294260824999060E+05,      /* J = 32 */
(PID.TID 0000.0001)                 3.262439364448301E+05,      /* J = 33 */
(PID.TID 0000.0001)                 3.221675784368968E+05,      /* J = 34 */
(PID.TID 0000.0001)                 3.172081814900619E+05,      /* J = 35 */
(PID.TID 0000.0001)                 3.113793389666330E+05,      /* J = 36 */
(PID.TID 0000.0001)                 3.046970273188090E+05,      /* J = 37 */
(PID.TID 0000.0001)                 2.971795622983349E+05,      /* J = 38 */
(PID.TID 0000.0001)                 2.888475487542992E+05,      /* J = 39 */
(PID.TID 0000.0001)                 2.797238241566748E+05,      /* J = 40 */
(PID.TID 0000.0001)                 2.698333960004017E+05,      /* J = 41 */
(PID.TID 0000.0001)                 2.592033732615809E+05,      /* J = 42 */
(PID.TID 0000.0001)                 2.478628920936555E+05,      /* J = 43 */
(PID.TID 0000.0001)                 2.358430359672399E+05,      /* J = 44 */
(PID.TID 0000.0001)                 2.231767504724865E+05,      /* J = 45 */
(PID.TID 0000.0001)                 2.098987530175138E+05,      /* J = 46 */
(PID.TID 0000.0001)                 1.960454376704035E+05,      /* J = 47 */
(PID.TID 0000.0001)                 1.816547754055899E+05,      /* J = 48 */
(PID.TID 0000.0001)                 1.667662100280582E+05,      /* J = 49 */
(PID.TID 0000.0001)                 1.514205500606167E+05,      /* J = 50 */
(PID.TID 0000.0001)                 1.356598568905725E+05,      /* J = 51 */
(PID.TID 0000.0001)                 1.195273294823922E+05,      /* J = 52 */
(PID.TID 0000.0001)                 1.030671859723435E+05,      /* J = 53 */
(PID.TID 0000.0001)                 8.632454246965688E+04,      /* J = 54 */
(PID.TID 0000.0001)                 6.934528939640634E+04,      /* J = 55 */
(PID.TID 0000.0001)                 5.217596570505215E+04       /* J = 56 */
(PID.TID 0000.0001)     ;
(PID.TID 0000.0001) dyG =  /* dyG(:,1,:,1) ( m - cartesian, degrees - spherical ) */
(PID.TID 0000.0001)                 3.335324200561164E+05       /* I =  1 */
(PID.TID 0000.0001)     ;
(PID.TID 0000.0001) dyG =  /* dyG(1,:,1,:) ( m - cartesian, degrees - spherical ) */
(PID.TID 0000.0001)    56 @  3.335324200561164E+05              /* J =  1: 56 */
(PID.TID 0000.0001)     ;
(PID.TID 0000.0001) dxC =  /* dxC(:,1,:,1) ( m - cartesian, degrees - spherical ) */
(PID.TID 0000.0001)                 4.353471677186368E+04       /* I =  1 */
(PID.TID 0000.0001)     ;
(PID.TID 0000.0001) dxC =  /* dxC(1,:,1,:) ( m - cartesian, degrees - spherical ) */
(PID.TID 0000.0001)                 4.353471677186368E+04,      /* J =  1 */
(PID.TID 0000.0001)                 6.078145583759403E+04,      /* J =  2 */
(PID.TID 0000.0001)                 7.786159715774079E+04,      /* J =  3 */
(PID.TID 0000.0001)                 9.472832525217145E+04,      /* J =  4 */
(PID.TID 0000.0001)                 1.113354095915710E+05,      /* J =  5 */
(PID.TID 0000.0001)                 1.276373313121095E+05,      /* J =  6 */
(PID.TID 0000.0001)                 1.435894079794837E+05,      /* J =  7 */
(PID.TID 0000.0001)                 1.591479160603634E+05,      /* J =  8 */
(PID.TID 0000.0001)                 1.742702107655578E+05,      /* J =  9 */
(PID.TID 0000.0001)                 1.889148429364175E+05,      /* J = 10 */
(PID.TID 0000.0001)                 2.030416726540983E+05,      /* J = 11 */
(PID.TID 0000.0001)                 2.166119792602878E+05,      /* J = 12 */
(PID.TID 0000.0001)                 2.295885674878389E+05,      /* J = 13 */
(PID.TID 0000.0001)                 2.419358694104115E+05,      /* J = 14 */
(PID.TID 0000.0001)                 2.536200419316863E+05,      /* J = 15 */
(PID.TID 0000.0001)                 2.646090595469393E+05,      /* J = 16 */
(PID.TID 0000.0001)                 2.748728021227244E+05,      /* J = 17 */
(PID.TID 0000.0001)                 2.843831374540652E+05,      /* J = 18 */
(PID.TID 0000.0001)                 2.931139983728740E+05,      /* J = 19 */
(PID.TID 0000.0001)                 3.010414541962469E+05,      /* J = 20 */
(PID.TID 0000.0001)                 3.081437763188029E+05,      /* J = 21 */
(PID.TID 0000.0001)                 3.144014977692803E+05,      /* J = 22 */
(PID.TID 0000.0001)                 3.197974665681523E+05,      /* J = 23 */
(PID.TID 0000.0001)                 3.243168927400103E+05,      /* J = 24 */
(PID.TID 0000.0001)                 3.279473888518588E+05,      /* J = 25 */
(PID.TID 0000.0001)                 3.306790039662078E+05,      /* J = 26 */
(PID.TID 0000.0001)                 3.325042509159012E+05,      /* J = 27 */
(PID.TID 0000.0001)     2 @  3.334181268259212E+05,             /* J = 28: 29 */
(PID.TID 0000.0001)                 3.325042509159012E+05,      /* J = 30 */
(PID.TID 0000.0001)                 3.306790039662078E+05,      /* J = 31 */
(PID.TID 0000.0001)                 3.279473888518588E+05,      /* J = 32 */
(PID.TID 0000.0001)                 3.243168927400103E+05,      /* J = 33 */
(PID.TID 0000.0001)                 3.197974665681523E+05,      /* J = 34 */
(PID.TID 0000.0001)                 3.144014977692803E+05,      /* J = 35 */
(PID.TID 0000.0001)                 3.081437763188029E+05,      /* J = 36 */
(PID.TID 0000.0001)                 3.010414541962469E+05,      /* J = 37 */
(PID.TID 0000.0001)                 2.931139983728740E+05,      /* J = 38 */
(PID.TID 0000.0001)                 2.843831374540652E+05,      /* J = 39 */
(PID.TID 0000.0001)                 2.748728021227244E+05,      /* J = 40 */
(PID.TID 0000.0001)                 2.646090595469393E+05,      /* J = 41 */
(PID.TID 0000.0001)                 2.536200419316863E+05,      /* J = 42 */
(PID.TID 0000.0001)                 2.419358694104115E+05,      /* J = 43 */
(PID.TID 0000.0001)                 2.295885674878389E+05,      /* J = 44 */
(PID.TID 0000.0001)                 2.166119792602878E+05,      /* J = 45 */
(PID.TID 0000.0001)                 2.030416726540983E+05,      /* J = 46 */
(PID.TID 0000.0001)                 1.889148429364175E+05,      /* J = 47 */
(PID.TID 0000.0001)                 1.742702107655578E+05,      /* J = 48 */
(PID.TID 0000.0001)                 1.591479160603634E+05,      /* J = 49 */
(PID.TID 0000.0001)                 1.435894079794837E+05,      /* J = 50 */
(PID.TID 0000.0001)                 1.276373313121095E+05,      /* J = 51 */
(PID.TID 0000.0001)                 1.113354095915710E+05,      /* J = 52 */
(PID.TID 0000.0001)                 9.472832525217145E+04,      /* J = 53 */
(PID.TID 0000.0001)                 7.786159715774079E+04,      /* J = 54 */
(PID.TID 0000.0001)                 6.078145583759403E+04,      /* J = 55 */
(PID.TID 0000.0001)                 4.353471677186368E+04       /* J = 56 */
(PID.TID 0000.0001)     ;
(PID.TID 0000.0001) dyC =  /* dyC(:,1,:,1) ( m - cartesian, degrees - spherical ) */
(PID.TID 0000.0001)                 3.335324200561164E+05       /* I =  1 */
(PID.TID 0000.0001)     ;
(PID.TID 0000.0001) dyC =  /* dyC(1,:,1,:) ( m - cartesian, degrees - spherical ) */
(PID.TID 0000.0001)    56 @  3.335324200561164E+05              /* J =  1: 56 */
(PID.TID 0000.0001)     ;
(PID.TID 0000.0001) dxV =  /* dxV(:,1,:,1) ( m - cartesian, degrees - spherical ) */
(PID.TID 0000.0001)                 3.486363131840732E+04       /* I =  1 */
(PID.TID 0000.0001)     ;
(PID.TID 0000.0001) dxV =  /* dxV(1,:,1,:) ( m - cartesian, degrees - spherical ) */
(PID.TID 0000.0001)                 3.486363131840732E+04,      /* J =  1 */
(PID.TID 0000.0001)                 5.217596570505215E+04,      /* J =  2 */
(PID.TID 0000.0001)                 6.934528939640634E+04,      /* J =  3 */
(PID.TID 0000.0001)                 8.632454246965688E+04,      /* J =  4 */
(PID.TID 0000.0001)                 1.030671859723435E+05,      /* J =  5 */
(PID.TID 0000.0001)                 1.195273294823922E+05,      /* J =  6 */
(PID.TID 0000.0001)                 1.356598568905725E+05,      /* J =  7 */
(PID.TID 0000.0001)                 1.514205500606167E+05,      /* J =  8 */
(PID.TID 0000.0001)                 1.667662100280582E+05,      /* J =  9 */
(PID.TID 0000.0001)                 1.816547754055899E+05,      /* J = 10 */
(PID.TID 0000.0001)                 1.960454376704035E+05,      /* J = 11 */
(PID.TID 0000.0001)                 2.098987530175138E+05,      /* J = 12 */
(PID.TID 0000.0001)                 2.231767504724865E+05,      /* J = 13 */
(PID.TID 0000.0001)                 2.358430359672399E+05,      /* J = 14 */
(PID.TID 0000.0001)                 2.478628920936555E+05,      /* J = 15 */
(PID.TID 0000.0001)                 2.592033732615809E+05,      /* J = 16 */
(PID.TID 0000.0001)                 2.698333960004017E+05,      /* J = 17 */
(PID.TID 0000.0001)                 2.797238241566748E+05,      /* J = 18 */
(PID.TID 0000.0001)                 2.888475487542992E+05,      /* J = 19 */
(PID.TID 0000.0001)                 2.971795622983349E+05,      /* J = 20 */
(PID.TID 0000.0001)                 3.046970273188090E+05,      /* J = 21 */
(PID.TID 0000.0001)                 3.113793389666330E+05,      /* J = 22 */
(PID.TID 0000.0001)                 3.172081814900619E+05,      /* J = 23 */
(PID.TID 0000.0001)                 3.221675784368968E+05,      /* J = 24 */
(PID.TID 0000.0001)                 3.262439364448301E+05,      /* J = 25 */
(PID.TID 0000.0001)                 3.294260824999060E+05,      /* J = 26 */
(PID.TID 0000.0001)                 3.317052945609760E+05,      /* J = 27 */
(PID.TID 0000.0001)                 3.330753254662066E+05,      /* J = 28 */
(PID.TID 0000.0001)                 3.335324200561164E+05,      /* J = 29 */
(PID.TID 0000.0001)                 3.330753254662066E+05,      /* J = 30 */
(PID.TID 0000.0001)                 3.317052945609760E+05,      /* J = 31 */
(PID.TID 0000.0001)                 3.294260824999060E+05,      /* J = 32 */
(PID.TID 0000.0001)                 3.262439364448301E+05,      /* J = 33 */
(PID.TID 0000.0001)                 3.221675784368968E+05,      /* J = 34 */
(PID.TID 0000.0001)                 3.172081814900619E+05,      /* J = 35 */
(PID.TID 0000.0001)                 3.113793389666330E+05,      /* J = 36 */
(PID.TID 0000.0001)                 3.046970273188090E+05,      /* J = 37 */
(PID.TID 0000.0001)                 2.971795622983349E+05,      /* J = 38 */
(PID.TID 0000.0001)                 2.888475487542992E+05,      /* J = 39 */
(PID.TID 0000.0001)                 2.797238241566748E+05,      /* J = 40 */
(PID.TID 0000.0001)                 2.698333960004017E+05,      /* J = 41 */
(PID.TID 0000.0001)                 2.592033732615809E+05,      /* J = 42 */
(PID.TID 0000.0001)                 2.478628920936555E+05,      /* J = 43 */
(PID.TID 0000.0001)                 2.358430359672399E+05,      /* J = 44 */
(PID.TID 0000.0001)                 2.231767504724865E+05,      /* J = 45 */
(PID.TID 0000.0001)                 2.098987530175138E+05,      /* J = 46 */
(PID.TID 0000.0001)                 1.960454376704035E+05,      /* J = 47 */
(PID.TID 0000.0001)                 1.816547754055899E+05,      /* J = 48 */
(PID.TID 0000.0001)                 1.667662100280582E+05,      /* J = 49 */
(PID.TID 0000.0001)                 1.514205500606167E+05,      /* J = 50 */
(PID.TID 0000.0001)                 1.356598568905725E+05,      /* J = 51 */
(PID.TID 0000.0001)                 1.195273294823922E+05,      /* J = 52 */
(PID.TID 0000.0001)                 1.030671859723435E+05,      /* J = 53 */
(PID.TID 0000.0001)                 8.632454246965688E+04,      /* J = 54 */
(PID.TID 0000.0001)                 6.934528939640634E+04,      /* J = 55 */
(PID.TID 0000.0001)                 5.217596570505215E+04       /* J = 56 */
(PID.TID 0000.0001)     ;
(PID.TID 0000.0001) dyU =  /* dyU(:,1,:,1) ( m - cartesian, degrees - spherical ) */
(PID.TID 0000.0001)                 3.335324200561164E+05       /* I =  1 */
(PID.TID 0000.0001)     ;
(PID.TID 0000.0001) dyU =  /* dyU(1,:,1,:) ( m - cartesian, degrees - spherical ) */
(PID.TID 0000.0001)    56 @  3.335324200561164E+05              /* J =  1: 56 */
(PID.TID 0000.0001)     ;
(PID.TID 0000.0001) rA =  /* rA(:,1,:,1) ( m - cartesian, degrees - spherical ) */
(PID.TID 0000.0001)                 1.451858082901558E+10       /* I =  1 */
(PID.TID 0000.0001)     ;
(PID.TID 0000.0001) rA =  /* rA(1,:,1,:) ( m - cartesian, degrees - spherical ) */
(PID.TID 0000.0001)                 1.451858082901558E+10,      /* J =  1 */
(PID.TID 0000.0001)                 2.027027037083382E+10,      /* J =  2 */
(PID.TID 0000.0001)                 2.596640051053471E+10,      /* J =  3 */
(PID.TID 0000.0001)                 3.159135855133881E+10,      /* J =  4 */
(PID.TID 0000.0001)                 3.712972687424201E+10,      /* J =  5 */
(PID.TID 0000.0001)                 4.256632519663838E+10,      /* J =  6 */
(PID.TID 0000.0001)                 4.788625218042012E+10,      /* J =  7 */
(PID.TID 0000.0001)                 5.307492627550774E+10,      /* J =  8 */
(PID.TID 0000.0001)                 5.811812568686682E+10,      /* J =  9 */
(PID.TID 0000.0001)                 6.300202735546008E+10,      /* J = 10 */
(PID.TID 0000.0001)                 6.771324484628886E+10,      /* J = 11 */
(PID.TID 0000.0001)                 7.223886503968404E+10,      /* J = 12 */
(PID.TID 0000.0001)                 7.656648352526755E+10,      /* J = 13 */
(PID.TID 0000.0001)                 8.068423860157899E+10,      /* J = 14 */
(PID.TID 0000.0001)                 8.458084378817651E+10,      /* J = 15 */
(PID.TID 0000.0001)                 8.824561876109265E+10,      /* J = 16 */
(PID.TID 0000.0001)                 9.166851862686256E+10,      /* J = 17 */
(PID.TID 0000.0001)                 9.484016145487706E+10,      /* J = 18 */
(PID.TID 0000.0001)                 9.775185399260213E+10,      /* J = 19 */
(PID.TID 0000.0001)                 1.003956154931817E+11,      /* J = 20 */
(PID.TID 0000.0001)                 1.027641995901083E+11,      /* J = 21 */
(PID.TID 0000.0001)                 1.048511141590102E+11,      /* J = 22 */
(PID.TID 0000.0001)                 1.066506391121139E+11,      /* J = 23 */
(PID.TID 0000.0001)                 1.081578420766061E+11,      /* J = 24 */
(PID.TID 0000.0001)                 1.093685919139261E+11,      /* J = 25 */
(PID.TID 0000.0001)                 1.102795700429274E+11,      /* J = 26 */
(PID.TID 0000.0001)                 1.108882795358801E+11,      /* J = 27 */
(PID.TID 0000.0001)     2 @  1.111930519623746E+11,             /* J = 28: 29 */
(PID.TID 0000.0001)                 1.108882795358801E+11,      /* J = 30 */
(PID.TID 0000.0001)                 1.102795700429274E+11,      /* J = 31 */
(PID.TID 0000.0001)                 1.093685919139261E+11,      /* J = 32 */
(PID.TID 0000.0001)                 1.081578420766061E+11,      /* J = 33 */
(PID.TID 0000.0001)                 1.066506391121139E+11,      /* J = 34 */
(PID.TID 0000.0001)                 1.048511141590102E+11,      /* J = 35 */
(PID.TID 0000.0001)                 1.027641995901083E+11,      /* J = 36 */
(PID.TID 0000.0001)                 1.003956154931817E+11,      /* J = 37 */
(PID.TID 0000.0001)                 9.775185399260213E+10,      /* J = 38 */
(PID.TID 0000.0001)                 9.484016145487706E+10,      /* J = 39 */
(PID.TID 0000.0001)                 9.166851862686256E+10,      /* J = 40 */
(PID.TID 0000.0001)                 8.824561876109265E+10,      /* J = 41 */
(PID.TID 0000.0001)                 8.458084378817651E+10,      /* J = 42 */
(PID.TID 0000.0001)                 8.068423860157899E+10,      /* J = 43 */
(PID.TID 0000.0001)                 7.656648352526755E+10,      /* J = 44 */
(PID.TID 0000.0001)                 7.223886503968404E+10,      /* J = 45 */
(PID.TID 0000.0001)                 6.771324484628886E+10,      /* J = 46 */
(PID.TID 0000.0001)                 6.300202735546008E+10,      /* J = 47 */
(PID.TID 0000.0001)                 5.811812568686682E+10,      /* J = 48 */
(PID.TID 0000.0001)                 5.307492627550774E+10,      /* J = 49 */
(PID.TID 0000.0001)                 4.788625218042012E+10,      /* J = 50 */
(PID.TID 0000.0001)                 4.256632519663838E+10,      /* J = 51 */
(PID.TID 0000.0001)                 3.712972687424201E+10,      /* J = 52 */
(PID.TID 0000.0001)                 3.159135855133881E+10,      /* J = 53 */
(PID.TID 0000.0001)                 2.596640051053471E+10,      /* J = 54 */
(PID.TID 0000.0001)                 2.027027037083382E+10,      /* J = 55 */
(PID.TID 0000.0001)                 1.451858082901558E+10       /* J = 56 */
(PID.TID 0000.0001)     ;
(PID.TID 0000.0001) rAw =  /* rAw(:,1,:,1) ( m - cartesian, degrees - spherical ) */
(PID.TID 0000.0001)                 1.451858082901558E+10       /* I =  1 */
(PID.TID 0000.0001)     ;
(PID.TID 0000.0001) rAw =  /* rAw(1,:,1,:) ( m - cartesian, degrees - spherical ) */
(PID.TID 0000.0001)                 1.451858082901558E+10,      /* J =  1 */
(PID.TID 0000.0001)                 2.027027037083382E+10,      /* J =  2 */
(PID.TID 0000.0001)                 2.596640051053471E+10,      /* J =  3 */
(PID.TID 0000.0001)                 3.159135855133881E+10,      /* J =  4 */
(PID.TID 0000.0001)                 3.712972687424201E+10,      /* J =  5 */
(PID.TID 0000.0001)                 4.256632519663838E+10,      /* J =  6 */
(PID.TID 0000.0001)                 4.788625218042012E+10,      /* J =  7 */
(PID.TID 0000.0001)                 5.307492627550774E+10,      /* J =  8 */
(PID.TID 0000.0001)                 5.811812568686682E+10,      /* J =  9 */
(PID.TID 0000.0001)                 6.300202735546008E+10,      /* J = 10 */
(PID.TID 0000.0001)                 6.771324484628886E+10,      /* J = 11 */
(PID.TID 0000.0001)                 7.223886503968404E+10,      /* J = 12 */
(PID.TID 0000.0001)                 7.656648352526755E+10,      /* J = 13 */
(PID.TID 0000.0001)                 8.068423860157899E+10,      /* J = 14 */
(PID.TID 0000.0001)                 8.458084378817651E+10,      /* J = 15 */
(PID.TID 0000.0001)                 8.824561876109265E+10,      /* J = 16 */
(PID.TID 0000.0001)                 9.166851862686256E+10,      /* J = 17 */
(PID.TID 0000.0001)                 9.484016145487706E+10,      /* J = 18 */
(PID.TID 0000.0001)                 9.775185399260213E+10,      /* J = 19 */
(PID.TID 0000.0001)                 1.003956154931817E+11,      /* J = 20 */
(PID.TID 0000.0001)                 1.027641995901083E+11,      /* J = 21 */
(PID.TID 0000.0001)                 1.048511141590102E+11,      /* J = 22 */
(PID.TID 0000.0001)                 1.066506391121139E+11,      /* J = 23 */
(PID.TID 0000.0001)                 1.081578420766061E+11,      /* J = 24 */
(PID.TID 0000.0001)                 1.093685919139261E+11,      /* J = 25 */
(PID.TID 0000.0001)                 1.102795700429274E+11,      /* J = 26 */
(PID.TID 0000.0001)                 1.108882795358801E+11,      /* J = 27 */
(PID.TID 0000.0001)     2 @  1.111930519623746E+11,             /* J = 28: 29 */
(PID.TID 0000.0001)                 1.108882795358801E+11,      /* J = 30 */
(PID.TID 0000.0001)                 1.102795700429274E+11,      /* J = 31 */
(PID.TID 0000.0001)                 1.093685919139261E+11,      /* J = 32 */
(PID.TID 0000.0001)                 1.081578420766061E+11,      /* J = 33 */
(PID.TID 0000.0001)                 1.066506391121139E+11,      /* J = 34 */
(PID.TID 0000.0001)                 1.048511141590102E+11,      /* J = 35 */
(PID.TID 0000.0001)                 1.027641995901083E+11,      /* J = 36 */
(PID.TID 0000.0001)                 1.003956154931817E+11,      /* J = 37 */
(PID.TID 0000.0001)                 9.775185399260213E+10,      /* J = 38 */
(PID.TID 0000.0001)                 9.484016145487706E+10,      /* J = 39 */
(PID.TID 0000.0001)                 9.166851862686256E+10,      /* J = 40 */
(PID.TID 0000.0001)                 8.824561876109265E+10,      /* J = 41 */
(PID.TID 0000.0001)                 8.458084378817651E+10,      /* J = 42 */
(PID.TID 0000.0001)                 8.068423860157899E+10,      /* J = 43 */
(PID.TID 0000.0001)                 7.656648352526755E+10,      /* J = 44 */
(PID.TID 0000.0001)                 7.223886503968404E+10,      /* J = 45 */
(PID.TID 0000.0001)                 6.771324484628886E+10,      /* J = 46 */
(PID.TID 0000.0001)                 6.300202735546008E+10,      /* J = 47 */
(PID.TID 0000.0001)                 5.811812568686682E+10,      /* J = 48 */
(PID.TID 0000.0001)                 5.307492627550774E+10,      /* J = 49 */
(PID.TID 0000.0001)                 4.788625218042012E+10,      /* J = 50 */
(PID.TID 0000.0001)                 4.256632519663838E+10,      /* J = 51 */
(PID.TID 0000.0001)                 3.712972687424201E+10,      /* J = 52 */
(PID.TID 0000.0001)                 3.159135855133881E+10,      /* J = 53 */
(PID.TID 0000.0001)                 2.596640051053471E+10,      /* J = 54 */
(PID.TID 0000.0001)                 2.027027037083382E+10,      /* J = 55 */
(PID.TID 0000.0001)                 1.451858082901558E+10       /* J = 56 */
(PID.TID 0000.0001)     ;
(PID.TID 0000.0001) rAs =  /* rAs(:,1,:,1) ( m - cartesian, degrees - spherical ) */
(PID.TID 0000.0001)                 1.162682306954694E+10       /* I =  1 */
(PID.TID 0000.0001)     ;
(PID.TID 0000.0001) rAs =  /* rAs(1,:,1,:) ( m - cartesian, degrees - spherical ) */
(PID.TID 0000.0001)                 1.162682306954694E+10,      /* J =  1 */
(PID.TID 0000.0001)                 1.740038827840324E+10,      /* J =  2 */
(PID.TID 0000.0001)                 2.312626023247475E+10,      /* J =  3 */
(PID.TID 0000.0001)                 2.878874471473562E+10,      /* J =  4 */
(PID.TID 0000.0001)                 3.437232124881435E+10,      /* J =  5 */
(PID.TID 0000.0001)                 3.986168563954114E+10,      /* J =  6 */
(PID.TID 0000.0001)                 4.524179192068160E+10,      /* J =  7 */
(PID.TID 0000.0001)                 5.049789359488565E+10,      /* J =  8 */
(PID.TID 0000.0001)                 5.561558405281209E+10,      /* J =  9 */
(PID.TID 0000.0001)                 6.058083606064128E+10,      /* J = 10 */
(PID.TID 0000.0001)                 6.538004020775066E+10,      /* J = 11 */
(PID.TID 0000.0001)                 7.000004220916162E+10,      /* J = 12 */
(PID.TID 0000.0001)                 7.442817896052023E+10,      /* J = 13 */
(PID.TID 0000.0001)                 7.865231324678767E+10,      /* J = 14 */
(PID.TID 0000.0001)                 8.266086700950061E+10,      /* J = 15 */
(PID.TID 0000.0001)                 8.644285308142708E+10,      /* J = 16 */
(PID.TID 0000.0001)                 8.998790530162659E+10,      /* J = 17 */
(PID.TID 0000.0001)                 9.328630692837657E+10,      /* J = 18 */
(PID.TID 0000.0001)                 9.632901727208775E+10,      /* J = 19 */
(PID.TID 0000.0001)                 9.910769647520413E+10,      /* J = 20 */
(PID.TID 0000.0001)                 1.016147283711734E+11,      /* J = 21 */
(PID.TID 0000.0001)                 1.038432413598305E+11,      /* J = 22 */
(PID.TID 0000.0001)                 1.057871272419753E+11,      /* J = 23 */
(PID.TID 0000.0001)                 1.074410579615232E+11,      /* J = 24 */
(PID.TID 0000.0001)                 1.088005002093347E+11,      /* J = 25 */
(PID.TID 0000.0001)                 1.098617278487026E+11,      /* J = 26 */
(PID.TID 0000.0001)                 1.106218321284322E+11,      /* J = 27 */
(PID.TID 0000.0001)                 1.110787296555271E+11,      /* J = 28 */
(PID.TID 0000.0001)                 1.112311681056240E+11,      /* J = 29 */
(PID.TID 0000.0001)                 1.110787296555271E+11,      /* J = 30 */
(PID.TID 0000.0001)                 1.106218321284322E+11,      /* J = 31 */
(PID.TID 0000.0001)                 1.098617278487026E+11,      /* J = 32 */
(PID.TID 0000.0001)                 1.088005002093347E+11,      /* J = 33 */
(PID.TID 0000.0001)                 1.074410579615232E+11,      /* J = 34 */
(PID.TID 0000.0001)                 1.057871272419753E+11,      /* J = 35 */
(PID.TID 0000.0001)                 1.038432413598305E+11,      /* J = 36 */
(PID.TID 0000.0001)                 1.016147283711734E+11,      /* J = 37 */
(PID.TID 0000.0001)                 9.910769647520413E+10,      /* J = 38 */
(PID.TID 0000.0001)                 9.632901727208775E+10,      /* J = 39 */
(PID.TID 0000.0001)                 9.328630692837657E+10,      /* J = 40 */
(PID.TID 0000.0001)                 8.998790530162659E+10,      /* J = 41 */
(PID.TID 0000.0001)                 8.644285308142708E+10,      /* J = 42 */
(PID.TID 0000.0001)                 8.266086700950061E+10,      /* J = 43 */
(PID.TID 0000.0001)                 7.865231324678767E+10,      /* J = 44 */
(PID.TID 0000.0001)                 7.442817896052023E+10,      /* J = 45 */
(PID.TID 0000.0001)                 7.000004220916162E+10,      /* J = 46 */
(PID.TID 0000.0001)                 6.538004020775066E+10,      /* J = 47 */
(PID.TID 0000.0001)                 6.058083606064128E+10,      /* J = 48 */
(PID.TID 0000.0001)                 5.561558405281209E+10,      /* J = 49 */
(PID.TID 0000.0001)                 5.049789359488565E+10,      /* J = 50 */
(PID.TID 0000.0001)                 4.524179192068160E+10,      /* J = 51 */
(PID.TID 0000.0001)                 3.986168563954114E+10,      /* J = 52 */
(PID.TID 0000.0001)                 3.437232124881435E+10,      /* J = 53 */
(PID.TID 0000.0001)                 2.878874471473562E+10,      /* J = 54 */
(PID.TID 0000.0001)                 2.312626023247475E+10,      /* J = 55 */
(PID.TID 0000.0001)                 1.740038827840324E+10       /* J = 56 */
(PID.TID 0000.0001)     ;
(PID.TID 0000.0001) 
(PID.TID 0000.0001)  MDSREADFIELD: opening global file: pickup.0000036000
(PID.TID 0000.0001)  MDSREADFIELD: opening global file: pickup.0000036000
(PID.TID 0000.0001)  MDSREADFIELD: opening global file: pickup.0000036000
(PID.TID 0000.0001)  MDSREADFIELD: opening global file: pickup.0000036000
(PID.TID 0000.0001)  MDSREADFIELD: opening global file: pickup.0000036000
(PID.TID 0000.0001)  MDSREADFIELD: opening global file: pickup.0000036000
(PID.TID 0000.0001)  MDSREADFIELD: opening global file: pickup.0000036000
(PID.TID 0000.0001)  MDSREADFIELD: opening global file: pickup.0000036000
(PID.TID 0000.0001)  MDSREADFIELD: opening global file: pickup.0000036000
(PID.TID 0000.0001)  MDSREADFIELD: opening global file: pickup.0000036000
(PID.TID 0000.0001)  MDSREADFIELD: opening global file: pickup.0000036000
(PID.TID 0000.0001)  MDSREADFIELD: opening global file: pickup.0000036000
(PID.TID 0000.0001)  MDSREADFIELD: opening global file: pickup.0000036000
(PID.TID 0000.0001)  MDSREADFIELD: opening global file: pickup_cd.0000036000
(PID.TID 0000.0001)  MDSREADFIELD: opening global file: pickup_cd.0000036000
(PID.TID 0000.0001)  MDSREADFIELD: opening global file: pickup_cd.0000036000
(PID.TID 0000.0001)  MDSREADFIELD: opening global file: pickup_cd.0000036000
(PID.TID 0000.0001)  MDSREADFIELD: opening global file: pickup_cd.0000036000
(PID.TID 0000.0001)  MDSREADFIELD: opening global file: pickup_cd.0000036000
(PID.TID 0000.0001)  MDSREADFIELD: opening global file: pickup_cd.0000036000
(PID.TID 0000.0001)  MDSREADFIELD: opening global file: taux_sl.bin
(PID.TID 0000.0001)  MDSREADFIELD: opening global file: sst_sl.bin
(PID.TID 0000.0001) // =======================================================
(PID.TID 0000.0001) // Model current state
(PID.TID 0000.0001) // =======================================================
(PID.TID 0000.0001) 
(PID.TID 0000.0001) // =======================================================
(PID.TID 0000.0001) // Begin MONITOR dynamic field statistics
(PID.TID 0000.0001) // =======================================================
(PID.TID 0000.0001) %MON time_tsnumber                =                 36000
(PID.TID 0000.0001) %MON time_secondsf                =   3.1104000000000E+09
(PID.TID 0000.0001) %MON dynstat_eta_max              =   1.6201005177854E+00
(PID.TID 0000.0001) %MON dynstat_eta_min              =  -3.9377441396023E+00
(PID.TID 0000.0001) %MON dynstat_eta_mean             =   4.4711632489218E-17
(PID.TID 0000.0001) %MON dynstat_eta_sd               =   1.6563991723224E+00
(PID.TID 0000.0001) %MON dynstat_eta_del2             =   1.3977066220033E-02
(PID.TID 0000.0001) %MON dynstat_uvel_max             =   1.4272657430544E-01
(PID.TID 0000.0001) %MON dynstat_uvel_min             =  -3.8630916679110E-01
(PID.TID 0000.0001) %MON dynstat_uvel_mean            =   1.2659893360806E-02
(PID.TID 0000.0001) %MON dynstat_uvel_sd              =   3.8710511996223E-02
(PID.TID 0000.0001) %MON dynstat_uvel_del2            =   6.1842820168116E-04
(PID.TID 0000.0001) %MON dynstat_vvel_max             =   2.2999750655636E-02
(PID.TID 0000.0001) %MON dynstat_vvel_min             =  -2.2999750655604E-02
(PID.TID 0000.0001) %MON dynstat_vvel_mean            =   1.0386549682221E-15
(PID.TID 0000.0001) %MON dynstat_vvel_sd              =   1.5486266626369E-03
(PID.TID 0000.0001) %MON dynstat_vvel_del2            =   7.2795151559418E-05
(PID.TID 0000.0001) %MON dynstat_wvel_max             =   1.3691712526229E-06
(PID.TID 0000.0001) %MON dynstat_wvel_min             =  -8.1261601801594E-07
(PID.TID 0000.0001) %MON dynstat_wvel_mean            =   9.6065950702677E-28
(PID.TID 0000.0001) %MON dynstat_wvel_sd              =   2.5358259198888E-07
(PID.TID 0000.0001) %MON dynstat_wvel_del2            =   3.6741344623394E-08
(PID.TID 0000.0001) %MON dynstat_theta_max            =   2.6657021468384E+01
(PID.TID 0000.0001) %MON dynstat_theta_min            =  -9.3075890930299E-01
(PID.TID 0000.0001) %MON dynstat_theta_mean           =   2.2239378147708E+00
(PID.TID 0000.0001) %MON dynstat_theta_sd             =   3.9264791989428E+00
(PID.TID 0000.0001) %MON dynstat_theta_del2           =   4.1714222085658E-02
(PID.TID 0000.0001) %MON dynstat_salt_max             =   3.4700000000000E+01
(PID.TID 0000.0001) %MON dynstat_salt_min             =   3.4700000000000E+01
(PID.TID 0000.0001) %MON dynstat_salt_mean            =   3.4700000000000E+01
(PID.TID 0000.0001) %MON dynstat_salt_sd              =   2.8421709430404E-14
(PID.TID 0000.0001) %MON dynstat_salt_del2            =   0.0000000000000E+00
(PID.TID 0000.0001) %MON advcfl_uvel_max              =   1.0010587105295E-01
(PID.TID 0000.0001) %MON advcfl_vvel_max              =   5.9579769076500E-03
(PID.TID 0000.0001) %MON advcfl_wvel_max              =   1.9716066037770E-03
(PID.TID 0000.0001) %MON advcfl_W_hf_max              =   5.9148198113310E-03
(PID.TID 0000.0001) %MON ke_max                       =   7.4646746291426E-02
(PID.TID 0000.0001) %MON ke_mean                      =   2.4045665119895E-03
(PID.TID 0000.0001) %MON ke_volint                    =   1.8128543399903E+13
(PID.TID 0000.0001) %MON ke_volmean                   =   8.3067694548141E-04
(PID.TID 0000.0001) %MON ke_vol                       =   2.1823819113454E+16
(PID.TID 0000.0001) %MON surf_Corr_theta_mean         =   8.7743901385973E-09
(PID.TID 0000.0001) %MON surf_Corr_salt_mean          =  -2.4817111820948E-22
(PID.TID 0000.0001) // =======================================================
(PID.TID 0000.0001) // End MONITOR dynamic field statistics
(PID.TID 0000.0001) // =======================================================
 cg2d: Sum(rhs),rhsMax =   6.32827124036339E-15  1.48307767331534E+00
(PID.TID 0000.0001)                    cg2d_init_res =    1.79594881152135E-05
(PID.TID 0000.0001)                       cg2d_iters =    24
(PID.TID 0000.0001)                         cg2d_res =    8.99731430919899E-13
(PID.TID 0000.0001) // =======================================================
(PID.TID 0000.0001) // Begin MONITOR dynamic field statistics
(PID.TID 0000.0001) // =======================================================
(PID.TID 0000.0001) %MON time_tsnumber                =                 36001
(PID.TID 0000.0001) %MON time_secondsf                =   3.1104864000000E+09
(PID.TID 0000.0001) %MON dynstat_eta_max              =   1.6201018367451E+00
(PID.TID 0000.0001) %MON dynstat_eta_min              =  -3.9377449262481E+00
(PID.TID 0000.0001) %MON dynstat_eta_mean             =  -1.2898919107821E-16
(PID.TID 0000.0001) %MON dynstat_eta_sd               =   1.6564013269824E+00
(PID.TID 0000.0001) %MON dynstat_eta_del2             =   1.3977075793537E-02
(PID.TID 0000.0001) %MON dynstat_uvel_max             =   1.4272679500761E-01
(PID.TID 0000.0001) %MON dynstat_uvel_min             =  -3.8630886769038E-01
(PID.TID 0000.0001) %MON dynstat_uvel_mean            =   1.2660117066392E-02
(PID.TID 0000.0001) %MON dynstat_uvel_sd              =   3.8710446201735E-02
(PID.TID 0000.0001) %MON dynstat_uvel_del2            =   6.1842771919471E-04
(PID.TID 0000.0001) %MON dynstat_vvel_max             =   2.2999749263350E-02
(PID.TID 0000.0001) %MON dynstat_vvel_min             =  -2.2999749263318E-02
(PID.TID 0000.0001) %MON dynstat_vvel_mean            =   8.4507419217772E-16
(PID.TID 0000.0001) %MON dynstat_vvel_sd              =   1.5486270866645E-03
(PID.TID 0000.0001) %MON dynstat_vvel_del2            =   7.2795296465862E-05
(PID.TID 0000.0001) %MON dynstat_wvel_max             =   1.3691698738200E-06
(PID.TID 0000.0001) %MON dynstat_wvel_min             =  -8.1261603486660E-07
(PID.TID 0000.0001) %MON dynstat_wvel_mean            =  -7.0885501159191E-25
(PID.TID 0000.0001) %MON dynstat_wvel_sd              =   2.5358285363536E-07
(PID.TID 0000.0001) %MON dynstat_wvel_del2            =   3.6741082610854E-08
(PID.TID 0000.0001) %MON dynstat_theta_max            =   2.6657021048099E+01
(PID.TID 0000.0001) %MON dynstat_theta_min            =  -9.3075955906215E-01
(PID.TID 0000.0001) %MON dynstat_theta_mean           =   2.2239290524752E+00
(PID.TID 0000.0001) %MON dynstat_theta_sd             =   3.9264801273832E+00
(PID.TID 0000.0001) %MON dynstat_theta_del2           =   4.1714249845538E-02
(PID.TID 0000.0001) %MON dynstat_salt_max             =   3.4700000000000E+01
(PID.TID 0000.0001) %MON dynstat_salt_min             =   3.4700000000000E+01
(PID.TID 0000.0001) %MON dynstat_salt_mean            =   3.4700000000000E+01
(PID.TID 0000.0001) %MON dynstat_salt_sd              =   2.8421709430404E-14
(PID.TID 0000.0001) %MON dynstat_salt_del2            =   0.0000000000000E+00
(PID.TID 0000.0001) %MON advcfl_uvel_max              =   1.0010579354576E-01
(PID.TID 0000.0001) %MON advcfl_vvel_max              =   5.9579765469850E-03
(PID.TID 0000.0001) %MON advcfl_wvel_max              =   1.9716046183007E-03
(PID.TID 0000.0001) %MON advcfl_W_hf_max              =   5.9148138549022E-03
(PID.TID 0000.0001) %MON ke_max                       =   7.4646630692379E-02
(PID.TID 0000.0001) %MON ke_mean                      =   2.4045636528615E-03
(PID.TID 0000.0001) %MON ke_volint                    =   1.8128549638549E+13
(PID.TID 0000.0001) %MON ke_volmean                   =   8.3067723134552E-04
(PID.TID 0000.0001) %MON ke_vol                       =   2.1823819113454E+16
(PID.TID 0000.0001) %MON surf_Corr_theta_mean         =   8.7739586963413E-09
(PID.TID 0000.0001) %MON surf_Corr_salt_mean          =  -6.8408604614175E-23
(PID.TID 0000.0001) // =======================================================
(PID.TID 0000.0001) // End MONITOR dynamic field statistics
(PID.TID 0000.0001) // =======================================================
 cg2d: Sum(rhs),rhsMax =   5.32907051820075E-15  1.48307883752151E+00
(PID.TID 0000.0001)                    cg2d_init_res =    1.79587437263033E-05
(PID.TID 0000.0001)                       cg2d_iters =    24
(PID.TID 0000.0001)                         cg2d_res =    9.01641420311529E-13
(PID.TID 0000.0001) // =======================================================
(PID.TID 0000.0001) // Begin MONITOR dynamic field statistics
(PID.TID 0000.0001) // =======================================================
(PID.TID 0000.0001) %MON time_tsnumber                =                 36002
(PID.TID 0000.0001) %MON time_secondsf                =   3.1105728000000E+09
(PID.TID 0000.0001) %MON dynstat_eta_max              =   1.6201031556154E+00
(PID.TID 0000.0001) %MON dynstat_eta_min              =  -3.9377457127536E+00
(PID.TID 0000.0001) %MON dynstat_eta_mean             =  -1.8950606127631E-16
(PID.TID 0000.0001) %MON dynstat_eta_sd               =   1.6564034815184E+00
(PID.TID 0000.0001) %MON dynstat_eta_del2             =   1.3977085366448E-02
(PID.TID 0000.0001) %MON dynstat_uvel_max             =   1.4272701569782E-01
(PID.TID 0000.0001) %MON dynstat_uvel_min             =  -3.8630856859517E-01
(PID.TID 0000.0001) %MON dynstat_uvel_mean            =   1.2660340767532E-02
(PID.TID 0000.0001) %MON dynstat_uvel_sd              =   3.8710380408472E-02
(PID.TID 0000.0001) %MON dynstat_uvel_del2            =   6.1842723654982E-04
(PID.TID 0000.0001) %MON dynstat_vvel_max             =   2.2999747868515E-02
(PID.TID 0000.0001) %MON dynstat_vvel_min             =  -2.2999747868483E-02
(PID.TID 0000.0001) %MON dynstat_vvel_mean            =   1.4029361871932E-15
(PID.TID 0000.0001) %MON dynstat_vvel_sd              =   1.5486275106148E-03
(PID.TID 0000.0001) %MON dynstat_vvel_del2            =   7.2795441266073E-05
(PID.TID 0000.0001) %MON dynstat_wvel_max             =   1.3691684952202E-06
(PID.TID 0000.0001) %MON dynstat_wvel_min             =  -8.1261605167835E-07
(PID.TID 0000.0001) %MON dynstat_wvel_mean            =  -4.6214424563618E-25
(PID.TID 0000.0001) %MON dynstat_wvel_sd              =   2.5358311472728E-07
(PID.TID 0000.0001) %MON dynstat_wvel_del2            =   3.6740820326321E-08
(PID.TID 0000.0001) %MON dynstat_theta_max            =   2.6657020627827E+01
(PID.TID 0000.0001) %MON dynstat_theta_min            =  -9.3076020875770E-01
(PID.TID 0000.0001) %MON dynstat_theta_mean           =   2.2239202903328E+00
(PID.TID 0000.0001) %MON dynstat_theta_sd             =   3.9264810557865E+00
(PID.TID 0000.0001) %MON dynstat_theta_del2           =   4.1714277590216E-02
(PID.TID 0000.0001) %MON dynstat_salt_max             =   3.4700000000000E+01
(PID.TID 0000.0001) %MON dynstat_salt_min             =   3.4700000000000E+01
(PID.TID 0000.0001) %MON dynstat_salt_mean            =   3.4700000000000E+01
(PID.TID 0000.0001) %MON dynstat_salt_sd              =   2.8421709430404E-14
(PID.TID 0000.0001) %MON dynstat_salt_del2            =   0.0000000000000E+00
(PID.TID 0000.0001) %MON advcfl_uvel_max              =   1.0010571604000E-01
(PID.TID 0000.0001) %MON advcfl_vvel_max              =   5.9579761856595E-03
(PID.TID 0000.0001) %MON advcfl_wvel_max              =   1.9716026331171E-03
(PID.TID 0000.0001) %MON advcfl_W_hf_max              =   5.9148078993514E-03
(PID.TID 0000.0001) %MON ke_max                       =   7.4646515095558E-02
(PID.TID 0000.0001) %MON ke_mean                      =   2.4045607937793E-03
(PID.TID 0000.0001) %MON ke_volint                    =   1.8128555878186E+13
(PID.TID 0000.0001) %MON ke_volmean                   =   8.3067751725500E-04
(PID.TID 0000.0001) %MON ke_vol                       =   2.1823819113454E+16
(PID.TID 0000.0001) %MON surf_Corr_theta_mean         =   8.7735272239377E-09
(PID.TID 0000.0001) %MON surf_Corr_salt_mean          =  -4.5592081894389E-22
(PID.TID 0000.0001) // =======================================================
(PID.TID 0000.0001) // End MONITOR dynamic field statistics
(PID.TID 0000.0001) // =======================================================
 cg2d: Sum(rhs),rhsMax =   8.10462807976364E-15  1.48308000164751E+00
(PID.TID 0000.0001)                    cg2d_init_res =    1.79579992546265E-05
(PID.TID 0000.0001)                       cg2d_iters =    24
(PID.TID 0000.0001)                         cg2d_res =    9.03370286294694E-13
(PID.TID 0000.0001) // =======================================================
(PID.TID 0000.0001) // Begin MONITOR dynamic field statistics
(PID.TID 0000.0001) // =======================================================
(PID.TID 0000.0001) %MON time_tsnumber                =                 36003
(PID.TID 0000.0001) %MON time_secondsf                =   3.1106592000000E+09
(PID.TID 0000.0001) %MON dynstat_eta_max              =   1.6201044743960E+00
(PID.TID 0000.0001) %MON dynstat_eta_min              =  -3.9377464991155E+00
(PID.TID 0000.0001) %MON dynstat_eta_mean             =  -8.0941768357288E-17
(PID.TID 0000.0001) %MON dynstat_eta_sd               =   1.6564056359302E+00
(PID.TID 0000.0001) %MON dynstat_eta_del2             =   1.3977094938736E-02
(PID.TID 0000.0001) %MON dynstat_uvel_max             =   1.4272723637627E-01
(PID.TID 0000.0001) %MON dynstat_uvel_min             =  -3.8630826950547E-01
(PID.TID 0000.0001) %MON dynstat_uvel_mean            =   1.2660564464225E-02
(PID.TID 0000.0001) %MON dynstat_uvel_sd              =   3.8710314616442E-02
(PID.TID 0000.0001) %MON dynstat_uvel_del2            =   6.1842675374663E-04
(PID.TID 0000.0001) %MON dynstat_vvel_max             =   2.2999746471059E-02
(PID.TID 0000.0001) %MON dynstat_vvel_min             =  -2.2999746471026E-02
(PID.TID 0000.0001) %MON dynstat_vvel_mean            =   1.8229985915685E-15
(PID.TID 0000.0001) %MON dynstat_vvel_sd              =   1.5486279344882E-03
(PID.TID 0000.0001) %MON dynstat_vvel_del2            =   7.2795585961217E-05
(PID.TID 0000.0001) %MON dynstat_wvel_max             =   1.3691671168249E-06
(PID.TID 0000.0001) %MON dynstat_wvel_min             =  -8.1261606845159E-07
(PID.TID 0000.0001) %MON dynstat_wvel_mean            =  -3.5135562946535E-25
(PID.TID 0000.0001) %MON dynstat_wvel_sd              =   2.5358337526397E-07
(PID.TID 0000.0001) %MON dynstat_wvel_del2            =   3.6740557777939E-08
(PID.TID 0000.0001) %MON dynstat_theta_max            =   2.6657020207569E+01
(PID.TID 0000.0001) %MON dynstat_theta_min            =  -9.3076085837928E-01
(PID.TID 0000.0001) %MON dynstat_theta_mean           =   2.2239115283436E+00
(PID.TID 0000.0001) %MON dynstat_theta_sd             =   3.9264819841527E+00
(PID.TID 0000.0001) %MON dynstat_theta_del2           =   4.1714305319705E-02
(PID.TID 0000.0001) %MON dynstat_salt_max             =   3.4700000000000E+01
(PID.TID 0000.0001) %MON dynstat_salt_min             =   3.4700000000000E+01
(PID.TID 0000.0001) %MON dynstat_salt_mean            =   3.4700000000000E+01
(PID.TID 0000.0001) %MON dynstat_salt_sd              =   2.8421709430404E-14
(PID.TID 0000.0001) %MON dynstat_salt_del2            =   0.0000000000000E+00
(PID.TID 0000.0001) %MON advcfl_uvel_max              =   1.0010563853566E-01
(PID.TID 0000.0001) %MON advcfl_vvel_max              =   5.9579758236550E-03
(PID.TID 0000.0001) %MON advcfl_wvel_max              =   1.9716006482279E-03
(PID.TID 0000.0001) %MON advcfl_W_hf_max              =   5.9148019446836E-03
(PID.TID 0000.0001) %MON ke_max                       =   7.4646399500962E-02
(PID.TID 0000.0001) %MON ke_mean                      =   2.4045579347442E-03
(PID.TID 0000.0001) %MON ke_volint                    =   1.8128562118820E+13
(PID.TID 0000.0001) %MON ke_volmean                   =   8.3067780321018E-04
(PID.TID 0000.0001) %MON ke_vol                       =   2.1823819113454E+16
(PID.TID 0000.0001) %MON surf_Corr_theta_mean         =   8.7730957125989E-09
(PID.TID 0000.0001) %MON surf_Corr_salt_mean          =   3.4072624155991E-22
(PID.TID 0000.0001) // =======================================================
(PID.TID 0000.0001) // End MONITOR dynamic field statistics
(PID.TID 0000.0001) // =======================================================
 cg2d: Sum(rhs),rhsMax =   7.77156117237610E-16  1.48308116569306E+00
(PID.TID 0000.0001)                    cg2d_init_res =    1.79572546790173E-05
(PID.TID 0000.0001)                       cg2d_iters =    24
(PID.TID 0000.0001)                         cg2d_res =    9.04920689296182E-13
(PID.TID 0000.0001) // =======================================================
(PID.TID 0000.0001) // Begin MONITOR dynamic field statistics
(PID.TID 0000.0001) // =======================================================
(PID.TID 0000.0001) %MON time_tsnumber                =                 36004
(PID.TID 0000.0001) %MON time_secondsf                =   3.1107456000000E+09
(PID.TID 0000.0001) %MON dynstat_eta_max              =   1.6201057930868E+00
(PID.TID 0000.0001) %MON dynstat_eta_min              =  -3.9377472853346E+00
(PID.TID 0000.0001) %MON dynstat_eta_mean             =  -2.5549017350267E-17
(PID.TID 0000.0001) %MON dynstat_eta_sd               =   1.6564077902178E+00
(PID.TID 0000.0001) %MON dynstat_eta_del2             =   1.3977104510466E-02
(PID.TID 0000.0001) %MON dynstat_uvel_max             =   1.4272745704315E-01
(PID.TID 0000.0001) %MON dynstat_uvel_min             =  -3.8630797042127E-01
(PID.TID 0000.0001) %MON dynstat_uvel_mean            =   1.2660788156472E-02
(PID.TID 0000.0001) %MON dynstat_uvel_sd              =   3.8710248825654E-02
(PID.TID 0000.0001) %MON dynstat_uvel_del2            =   6.1842627078506E-04
(PID.TID 0000.0001) %MON dynstat_vvel_max             =   2.2999745070919E-02
(PID.TID 0000.0001) %MON dynstat_vvel_min             =  -2.2999745070885E-02
(PID.TID 0000.0001) %MON dynstat_vvel_mean            =   2.0173241757626E-15
(PID.TID 0000.0001) %MON dynstat_vvel_sd              =   1.5486283582852E-03
(PID.TID 0000.0001) %MON dynstat_vvel_del2            =   7.2795730551116E-05
(PID.TID 0000.0001) %MON dynstat_wvel_max             =   1.3691657386351E-06
(PID.TID 0000.0001) %MON dynstat_wvel_min             =  -8.1261608519320E-07
(PID.TID 0000.0001) %MON dynstat_wvel_mean            =  -1.7972152102969E-24
(PID.TID 0000.0001) %MON dynstat_wvel_sd              =   2.5358363522898E-07
(PID.TID 0000.0001) %MON dynstat_wvel_del2            =   3.6740294941933E-08
(PID.TID 0000.0001) %MON dynstat_theta_max            =   2.6657019787326E+01
(PID.TID 0000.0001) %MON dynstat_theta_min            =  -9.3076150793737E-01
(PID.TID 0000.0001) %MON dynstat_theta_mean           =   2.2239027665075E+00
(PID.TID 0000.0001) %MON dynstat_theta_sd             =   3.9264829124819E+00
(PID.TID 0000.0001) %MON dynstat_theta_del2           =   4.1714333034018E-02
(PID.TID 0000.0001) %MON dynstat_salt_max             =   3.4700000000000E+01
(PID.TID 0000.0001) %MON dynstat_salt_min             =   3.4700000000000E+01
(PID.TID 0000.0001) %MON dynstat_salt_mean            =   3.4700000000000E+01
(PID.TID 0000.0001) %MON dynstat_salt_sd              =   2.8421709430404E-14
(PID.TID 0000.0001) %MON dynstat_salt_del2            =   0.0000000000000E+00
(PID.TID 0000.0001) %MON advcfl_uvel_max              =   1.0010556103275E-01
(PID.TID 0000.0001) %MON advcfl_vvel_max              =   5.9579754609553E-03
(PID.TID 0000.0001) %MON advcfl_wvel_max              =   1.9715986636346E-03
(PID.TID 0000.0001) %MON advcfl_W_hf_max              =   5.9147959909038E-03
(PID.TID 0000.0001) %MON ke_max                       =   7.4646283908590E-02
(PID.TID 0000.0001) %MON ke_mean                      =   2.4045550757578E-03
(PID.TID 0000.0001) %MON ke_volint                    =   1.8128568360459E+13
(PID.TID 0000.0001) %MON ke_volmean                   =   8.3067808921140E-04
(PID.TID 0000.0001) %MON ke_vol                       =   2.1823819113454E+16
(PID.TID 0000.0001) %MON surf_Corr_theta_mean         =   8.7726641560036E-09
(PID.TID 0000.0001) %MON surf_Corr_salt_mean          =   2.2960774210153E-22
(PID.TID 0000.0001) // =======================================================
(PID.TID 0000.0001) // End MONITOR dynamic field statistics
(PID.TID 0000.0001) // =======================================================
 cg2d: Sum(rhs),rhsMax =   4.44089209850063E-15  1.48308232965795E+00
(PID.TID 0000.0001)                    cg2d_init_res =    1.79565099826483E-05
(PID.TID 0000.0001)                       cg2d_iters =    24
(PID.TID 0000.0001)                         cg2d_res =    9.06310494560316E-13
(PID.TID 0000.0001) // =======================================================
(PID.TID 0000.0001) // Begin MONITOR dynamic field statistics
(PID.TID 0000.0001) // =======================================================
(PID.TID 0000.0001) %MON time_tsnumber                =                 36005
(PID.TID 0000.0001) %MON time_secondsf                =   3.1108320000000E+09
(PID.TID 0000.0001) %MON dynstat_eta_max              =   1.6201071116877E+00
(PID.TID 0000.0001) %MON dynstat_eta_min              =  -3.9377480714118E+00
(PID.TID 0000.0001) %MON dynstat_eta_mean             =  -2.6852543281069E-16
(PID.TID 0000.0001) %MON dynstat_eta_sd               =   1.6564099443812E+00
(PID.TID 0000.0001) %MON dynstat_eta_del2             =   1.3977114081638E-02
(PID.TID 0000.0001) %MON dynstat_uvel_max             =   1.4272767769865E-01
(PID.TID 0000.0001) %MON dynstat_uvel_min             =  -3.8630767134257E-01
(PID.TID 0000.0001) %MON dynstat_uvel_mean            =   1.2661011844273E-02
(PID.TID 0000.0001) %MON dynstat_uvel_sd              =   3.8710183036118E-02
(PID.TID 0000.0001) %MON dynstat_uvel_del2            =   6.1842578766511E-04
(PID.TID 0000.0001) %MON dynstat_vvel_max             =   2.2999743668041E-02
(PID.TID 0000.0001) %MON dynstat_vvel_min             =  -2.2999743668006E-02
(PID.TID 0000.0001) %MON dynstat_vvel_mean            =   2.0262575799875E-15
(PID.TID 0000.0001) %MON dynstat_vvel_sd              =   1.5486287820067E-03
(PID.TID 0000.0001) %MON dynstat_vvel_del2            =   7.2795875035879E-05
(PID.TID 0000.0001) %MON dynstat_wvel_max             =   1.3691643606506E-06
(PID.TID 0000.0001) %MON dynstat_wvel_min             =  -8.1261610189786E-07
(PID.TID 0000.0001) %MON dynstat_wvel_mean            =  -1.2930253555393E-24
(PID.TID 0000.0001) %MON dynstat_wvel_sd              =   2.5358389461834E-07
(PID.TID 0000.0001) %MON dynstat_wvel_del2            =   3.6740031826836E-08
(PID.TID 0000.0001) %MON dynstat_theta_max            =   2.6657019367100E+01
(PID.TID 0000.0001) %MON dynstat_theta_min            =  -9.3076215743031E-01
(PID.TID 0000.0001) %MON dynstat_theta_mean           =   2.2238940048245E+00
(PID.TID 0000.0001) %MON dynstat_theta_sd             =   3.9264838407740E+00
(PID.TID 0000.0001) %MON dynstat_theta_del2           =   4.1714360733168E-02
(PID.TID 0000.0001) %MON dynstat_salt_max             =   3.4700000000000E+01
(PID.TID 0000.0001) %MON dynstat_salt_min             =   3.4700000000000E+01
(PID.TID 0000.0001) %MON dynstat_salt_mean            =   3.4700000000000E+01
(PID.TID 0000.0001) %MON dynstat_salt_sd              =   2.8421709430404E-14
(PID.TID 0000.0001) %MON dynstat_salt_del2            =   0.0000000000000E+00
(PID.TID 0000.0001) %MON advcfl_uvel_max              =   1.0010548353127E-01
(PID.TID 0000.0001) %MON advcfl_vvel_max              =   5.9579750975463E-03
(PID.TID 0000.0001) %MON advcfl_wvel_max              =   1.9715966793368E-03
(PID.TID 0000.0001) %MON advcfl_W_hf_max              =   5.9147900380105E-03
(PID.TID 0000.0001) %MON ke_max                       =   7.4646168318439E-02
(PID.TID 0000.0001) %MON ke_mean                      =   2.4045522168213E-03
(PID.TID 0000.0001) %MON ke_volint                    =   1.8128574603111E+13
(PID.TID 0000.0001) %MON ke_volmean                   =   8.3067837525902E-04
(PID.TID 0000.0001) %MON ke_vol                       =   2.1823819113454E+16
(PID.TID 0000.0001) %MON surf_Corr_theta_mean         =   8.7722325483209E-09
(PID.TID 0000.0001) %MON surf_Corr_salt_mean          =   3.8900586050445E-22
(PID.TID 0000.0001) // =======================================================
(PID.TID 0000.0001) // End MONITOR dynamic field statistics
(PID.TID 0000.0001) // =======================================================
 cg2d: Sum(rhs),rhsMax =   3.44169137633799E-15  1.48308349354194E+00
(PID.TID 0000.0001)                    cg2d_init_res =    1.79557651475760E-05
(PID.TID 0000.0001)                       cg2d_iters =    24
(PID.TID 0000.0001)                         cg2d_res =    9.07547209985276E-13
(PID.TID 0000.0001) // =======================================================
(PID.TID 0000.0001) // Begin MONITOR dynamic field statistics
(PID.TID 0000.0001) // =======================================================
(PID.TID 0000.0001) %MON time_tsnumber                =                 36006
(PID.TID 0000.0001) %MON time_secondsf                =   3.1109184000000E+09
(PID.TID 0000.0001) %MON dynstat_eta_max              =   1.6201084301985E+00
(PID.TID 0000.0001) %MON dynstat_eta_min              =  -3.9377488573472E+00
(PID.TID 0000.0001) %MON dynstat_eta_mean             =  -1.0940051281362E-16
(PID.TID 0000.0001) %MON dynstat_eta_sd               =   1.6564120984205E+00
(PID.TID 0000.0001) %MON dynstat_eta_del2             =   1.3977123652214E-02
(PID.TID 0000.0001) %MON dynstat_uvel_max             =   1.4272789834299E-01
(PID.TID 0000.0001) %MON dynstat_uvel_min             =  -3.8630737226936E-01
(PID.TID 0000.0001) %MON dynstat_uvel_mean            =   1.2661235527627E-02
(PID.TID 0000.0001) %MON dynstat_uvel_sd              =   3.8710117247842E-02
(PID.TID 0000.0001) %MON dynstat_uvel_del2            =   6.1842530438694E-04
(PID.TID 0000.0001) %MON dynstat_vvel_max             =   2.2999742262380E-02
(PID.TID 0000.0001) %MON dynstat_vvel_min             =  -2.2999742262345E-02
(PID.TID 0000.0001) %MON dynstat_vvel_mean            =   2.1702828227616E-15
(PID.TID 0000.0001) %MON dynstat_vvel_sd              =   1.5486292056537E-03
(PID.TID 0000.0001) %MON dynstat_vvel_del2            =   7.2796019415947E-05
(PID.TID 0000.0001) %MON dynstat_wvel_max             =   1.3691629828692E-06
(PID.TID 0000.0001) %MON dynstat_wvel_min             =  -8.1261611856552E-07
(PID.TID 0000.0001) %MON dynstat_wvel_mean            =  -1.1703960524214E-24
(PID.TID 0000.0001) %MON dynstat_wvel_sd              =   2.5358415343056E-07
(PID.TID 0000.0001) %MON dynstat_wvel_del2            =   3.6739768442980E-08
(PID.TID 0000.0001) %MON dynstat_theta_max            =   2.6657018946892E+01
(PID.TID 0000.0001) %MON dynstat_theta_min            =  -9.3076280685773E-01
(PID.TID 0000.0001) %MON dynstat_theta_mean           =   2.2238852432947E+00
(PID.TID 0000.0001) %MON dynstat_theta_sd             =   3.9264847690291E+00
(PID.TID 0000.0001) %MON dynstat_theta_del2           =   4.1714388417167E-02
(PID.TID 0000.0001) %MON dynstat_salt_max             =   3.4700000000000E+01
(PID.TID 0000.0001) %MON dynstat_salt_min             =   3.4700000000000E+01
(PID.TID 0000.0001) %MON dynstat_salt_mean            =   3.4700000000000E+01
(PID.TID 0000.0001) %MON dynstat_salt_sd              =   2.8421709430404E-14
(PID.TID 0000.0001) %MON dynstat_salt_del2            =   0.0000000000000E+00
(PID.TID 0000.0001) %MON advcfl_uvel_max              =   1.0010540603121E-01
(PID.TID 0000.0001) %MON advcfl_vvel_max              =   5.9579747334167E-03
(PID.TID 0000.0001) %MON advcfl_wvel_max              =   1.9715946953317E-03
(PID.TID 0000.0001) %MON advcfl_W_hf_max              =   5.9147840859951E-03
(PID.TID 0000.0001) %MON ke_max                       =   7.4646052730507E-02
(PID.TID 0000.0001) %MON ke_mean                      =   2.4045493579362E-03
(PID.TID 0000.0001) %MON ke_volint                    =   1.8128580846782E+13
(PID.TID 0000.0001) %MON ke_volmean                   =   8.3067866135340E-04
(PID.TID 0000.0001) %MON ke_vol                       =   2.1823819113454E+16
(PID.TID 0000.0001) %MON surf_Corr_theta_mean         =   8.7718008842414E-09
(PID.TID 0000.0001) %MON surf_Corr_salt_mean          =  -1.0740966858884E-22
(PID.TID 0000.0001) // =======================================================
(PID.TID 0000.0001) // End MONITOR dynamic field statistics
(PID.TID 0000.0001) // =======================================================
 cg2d: Sum(rhs),rhsMax =   2.33146835171283E-15  1.48308465734488E+00
(PID.TID 0000.0001)                    cg2d_init_res =    1.79550201426441E-05
(PID.TID 0000.0001)                       cg2d_iters =    24
(PID.TID 0000.0001)                         cg2d_res =    9.08653892532050E-13
(PID.TID 0000.0001) // =======================================================
(PID.TID 0000.0001) // Begin MONITOR dynamic field statistics
(PID.TID 0000.0001) // =======================================================
(PID.TID 0000.0001) %MON time_tsnumber                =                 36007
(PID.TID 0000.0001) %MON time_secondsf                =   3.1110048000000E+09
(PID.TID 0000.0001) %MON dynstat_eta_max              =   1.6201097486191E+00
(PID.TID 0000.0001) %MON dynstat_eta_min              =  -3.9377496431411E+00
(PID.TID 0000.0001) %MON dynstat_eta_mean             =  -9.1140015332696E-17
(PID.TID 0000.0001) %MON dynstat_eta_sd               =   1.6564142523355E+00
(PID.TID 0000.0001) %MON dynstat_eta_del2             =   1.3977133222232E-02
(PID.TID 0000.0001) %MON dynstat_uvel_max             =   1.4272811897637E-01
(PID.TID 0000.0001) %MON dynstat_uvel_min             =  -3.8630707320164E-01
(PID.TID 0000.0001) %MON dynstat_uvel_mean            =   1.2661459206534E-02
(PID.TID 0000.0001) %MON dynstat_uvel_sd              =   3.8710051460835E-02
(PID.TID 0000.0001) %MON dynstat_uvel_del2            =   6.1842482095054E-04
(PID.TID 0000.0001) %MON dynstat_vvel_max             =   2.2999740853904E-02
(PID.TID 0000.0001) %MON dynstat_vvel_min             =  -2.2999740853869E-02
(PID.TID 0000.0001) %MON dynstat_vvel_mean            =   2.0198275515225E-15
(PID.TID 0000.0001) %MON dynstat_vvel_sd              =   1.5486296292274E-03
(PID.TID 0000.0001) %MON dynstat_vvel_del2            =   7.2796163690708E-05
(PID.TID 0000.0001) %MON dynstat_wvel_max             =   1.3691616052895E-06
(PID.TID 0000.0001) %MON dynstat_wvel_min             =  -8.1261613519295E-07
(PID.TID 0000.0001) %MON dynstat_wvel_mean            =   1.0229906703897E-25
(PID.TID 0000.0001) %MON dynstat_wvel_sd              =   2.5358441164929E-07
(PID.TID 0000.0001) %MON dynstat_wvel_del2            =   3.6739504769243E-08
(PID.TID 0000.0001) %MON dynstat_theta_max            =   2.6657018526704E+01
(PID.TID 0000.0001) %MON dynstat_theta_min            =  -9.3076345622097E-01
(PID.TID 0000.0001) %MON dynstat_theta_mean           =   2.2238764819180E+00
(PID.TID 0000.0001) %MON dynstat_theta_sd             =   3.9264856972471E+00
(PID.TID 0000.0001) %MON dynstat_theta_del2           =   4.1714416086027E-02
(PID.TID 0000.0001) %MON dynstat_salt_max             =   3.4700000000000E+01
(PID.TID 0000.0001) %MON dynstat_salt_min             =   3.4700000000000E+01
(PID.TID 0000.0001) %MON dynstat_salt_mean            =   3.4700000000000E+01
(PID.TID 0000.0001) %MON dynstat_salt_sd              =   2.8421709430404E-14
(PID.TID 0000.0001) %MON dynstat_salt_del2            =   0.0000000000000E+00
(PID.TID 0000.0001) %MON advcfl_uvel_max              =   1.0010532853257E-01
(PID.TID 0000.0001) %MON advcfl_vvel_max              =   5.9579743685576E-03
(PID.TID 0000.0001) %MON advcfl_wvel_max              =   1.9715927116169E-03
(PID.TID 0000.0001) %MON advcfl_W_hf_max              =   5.9147781348507E-03
(PID.TID 0000.0001) %MON ke_max                       =   7.4645937144793E-02
(PID.TID 0000.0001) %MON ke_mean                      =   2.4045464991039E-03
(PID.TID 0000.0001) %MON ke_volint                    =   1.8128587091483E+13
(PID.TID 0000.0001) %MON ke_volmean                   =   8.3067894749489E-04
(PID.TID 0000.0001) %MON ke_vol                       =   2.1823819113454E+16
(PID.TID 0000.0001) %MON surf_Corr_theta_mean         =   8.7713691615387E-09
(PID.TID 0000.0001) %MON surf_Corr_salt_mean          =  -2.5387522268394E-22
(PID.TID 0000.0001) // =======================================================
(PID.TID 0000.0001) // End MONITOR dynamic field statistics
(PID.TID 0000.0001) // =======================================================
 cg2d: Sum(rhs),rhsMax =   7.77156117237610E-16  1.48308582106660E+00
(PID.TID 0000.0001)                    cg2d_init_res =    1.79542749509216E-05
(PID.TID 0000.0001)                       cg2d_iters =    24
(PID.TID 0000.0001)                         cg2d_res =    9.09648205984725E-13
(PID.TID 0000.0001) // =======================================================
(PID.TID 0000.0001) // Begin MONITOR dynamic field statistics
(PID.TID 0000.0001) // =======================================================
(PID.TID 0000.0001) %MON time_tsnumber                =                 36008
(PID.TID 0000.0001) %MON time_secondsf                =   3.1110912000000E+09
(PID.TID 0000.0001) %MON dynstat_eta_max              =   1.6201110669494E+00
(PID.TID 0000.0001) %MON dynstat_eta_min              =  -3.9377504287953E+00
(PID.TID 0000.0001) %MON dynstat_eta_mean             =  -8.4383222244155E-17
(PID.TID 0000.0001) %MON dynstat_eta_sd               =   1.6564164061264E+00
(PID.TID 0000.0001) %MON dynstat_eta_del2             =   1.3977142791693E-02
(PID.TID 0000.0001) %MON dynstat_uvel_max             =   1.4272833959900E-01
(PID.TID 0000.0001) %MON dynstat_uvel_min             =  -3.8630677413941E-01
(PID.TID 0000.0001) %MON dynstat_uvel_mean            =   1.2661682880995E-02
(PID.TID 0000.0001) %MON dynstat_uvel_sd              =   3.8709985675109E-02
(PID.TID 0000.0001) %MON dynstat_uvel_del2            =   6.1842433735600E-04
(PID.TID 0000.0001) %MON dynstat_vvel_max             =   2.2999739442589E-02
(PID.TID 0000.0001) %MON dynstat_vvel_min             =  -2.2999739442554E-02
(PID.TID 0000.0001) %MON dynstat_vvel_mean            =   2.1112454342950E-15
(PID.TID 0000.0001) %MON dynstat_vvel_sd              =   1.5486300527291E-03
(PID.TID 0000.0001) %MON dynstat_vvel_del2            =   7.2796307859688E-05
(PID.TID 0000.0001) %MON dynstat_wvel_max             =   1.3691602279079E-06
(PID.TID 0000.0001) %MON dynstat_wvel_min             =  -8.1261615178247E-07
(PID.TID 0000.0001) %MON dynstat_wvel_mean            =  -1.3554235416585E-25
(PID.TID 0000.0001) %MON dynstat_wvel_sd              =   2.5358466926604E-07
(PID.TID 0000.0001) %MON dynstat_wvel_del2            =   3.6739240805140E-08
(PID.TID 0000.0001) %MON dynstat_theta_max            =   2.6657018106537E+01
(PID.TID 0000.0001) %MON dynstat_theta_min            =  -9.3076410552523E-01
(PID.TID 0000.0001) %MON dynstat_theta_mean           =   2.2238677206943E+00
(PID.TID 0000.0001) %MON dynstat_theta_sd             =   3.9264866254282E+00
(PID.TID 0000.0001) %MON dynstat_theta_del2           =   4.1714443739760E-02
(PID.TID 0000.0001) %MON dynstat_salt_max             =   3.4700000000000E+01
(PID.TID 0000.0001) %MON dynstat_salt_min             =   3.4700000000000E+01
(PID.TID 0000.0001) %MON dynstat_salt_mean            =   3.4700000000000E+01
(PID.TID 0000.0001) %MON dynstat_salt_sd              =   2.8421709430404E-14
(PID.TID 0000.0001) %MON dynstat_salt_del2            =   0.0000000000000E+00
(PID.TID 0000.0001) %MON advcfl_uvel_max              =   1.0010525103535E-01
(PID.TID 0000.0001) %MON advcfl_vvel_max              =   5.9579740029631E-03
(PID.TID 0000.0001) %MON advcfl_wvel_max              =   1.9715907281874E-03
(PID.TID 0000.0001) %MON advcfl_W_hf_max              =   5.9147721845623E-03
(PID.TID 0000.0001) %MON ke_max                       =   7.4645821561294E-02
(PID.TID 0000.0001) %MON ke_mean                      =   2.4045436403260E-03
(PID.TID 0000.0001) %MON ke_volint                    =   1.8128593337219E+13
(PID.TID 0000.0001) %MON ke_volmean                   =   8.3067923368386E-04
(PID.TID 0000.0001) %MON ke_vol                       =   2.1823819113454E+16
(PID.TID 0000.0001) %MON surf_Corr_theta_mean         =   8.7709373795472E-09
(PID.TID 0000.0001) %MON surf_Corr_salt_mean          =   1.4568799702345E-22
(PID.TID 0000.0001) // =======================================================
(PID.TID 0000.0001) // End MONITOR dynamic field statistics
(PID.TID 0000.0001) // =======================================================
 cg2d: Sum(rhs),rhsMax =   6.21724893790088E-15  1.48308698470702E+00
(PID.TID 0000.0001)                    cg2d_init_res =    1.79535295813193E-05
(PID.TID 0000.0001)                       cg2d_iters =    24
(PID.TID 0000.0001)                         cg2d_res =    9.10533922950593E-13
(PID.TID 0000.0001) // =======================================================
(PID.TID 0000.0001) // Begin MONITOR dynamic field statistics
(PID.TID 0000.0001) // =======================================================
(PID.TID 0000.0001) %MON time_tsnumber                =                 36009
(PID.TID 0000.0001) %MON time_secondsf                =   3.1111776000000E+09
(PID.TID 0000.0001) %MON dynstat_eta_max              =   1.6201123851893E+00
(PID.TID 0000.0001) %MON dynstat_eta_min              =  -3.9377512143057E+00
(PID.TID 0000.0001) %MON dynstat_eta_mean             =  -3.0587923916213E-17
(PID.TID 0000.0001) %MON dynstat_eta_sd               =   1.6564185597929E+00
(PID.TID 0000.0001) %MON dynstat_eta_del2             =   1.3977152360505E-02
(PID.TID 0000.0001) %MON dynstat_uvel_max             =   1.4272856021107E-01
(PID.TID 0000.0001) %MON dynstat_uvel_min             =  -3.8630647508265E-01
(PID.TID 0000.0001) %MON dynstat_uvel_mean            =   1.2661906551011E-02
(PID.TID 0000.0001) %MON dynstat_uvel_sd              =   3.8709919890670E-02
(PID.TID 0000.0001) %MON dynstat_uvel_del2            =   6.1842385360366E-04
(PID.TID 0000.0001) %MON dynstat_vvel_max             =   2.2999738028422E-02
(PID.TID 0000.0001) %MON dynstat_vvel_min             =  -2.2999738028388E-02
(PID.TID 0000.0001) %MON dynstat_vvel_mean            =   1.8333779985441E-15
(PID.TID 0000.0001) %MON dynstat_vvel_sd              =   1.5486304761605E-03
(PID.TID 0000.0001) %MON dynstat_vvel_del2            =   7.2796451923737E-05
(PID.TID 0000.0001) %MON dynstat_wvel_max             =   1.3691588507207E-06
(PID.TID 0000.0001) %MON dynstat_wvel_min             =  -8.1261616833264E-07
(PID.TID 0000.0001) %MON dynstat_wvel_mean            =   3.1700646685945E-24
(PID.TID 0000.0001) %MON dynstat_wvel_sd              =   2.5358492628784E-07
(PID.TID 0000.0001) %MON dynstat_wvel_del2            =   3.6738976581706E-08
(PID.TID 0000.0001) %MON dynstat_theta_max            =   2.6657017686393E+01
(PID.TID 0000.0001) %MON dynstat_theta_min            =  -9.3076475475322E-01
(PID.TID 0000.0001) %MON dynstat_theta_mean           =   2.2238589596238E+00
(PID.TID 0000.0001) %MON dynstat_theta_sd             =   3.9264875535722E+00
(PID.TID 0000.0001) %MON dynstat_theta_del2           =   4.1714471378378E-02
(PID.TID 0000.0001) %MON dynstat_salt_max             =   3.4700000000000E+01
(PID.TID 0000.0001) %MON dynstat_salt_min             =   3.4700000000000E+01
(PID.TID 0000.0001) %MON dynstat_salt_mean            =   3.4700000000000E+01
(PID.TID 0000.0001) %MON dynstat_salt_sd              =   2.8421709430404E-14
(PID.TID 0000.0001) %MON dynstat_salt_del2            =   0.0000000000000E+00
(PID.TID 0000.0001) %MON advcfl_uvel_max              =   1.0010517353955E-01
(PID.TID 0000.0001) %MON advcfl_vvel_max              =   5.9579736366298E-03
(PID.TID 0000.0001) %MON advcfl_wvel_max              =   1.9715887450378E-03
(PID.TID 0000.0001) %MON advcfl_W_hf_max              =   5.9147662351134E-03
(PID.TID 0000.0001) %MON ke_max                       =   7.4645705980009E-02
(PID.TID 0000.0001) %MON ke_mean                      =   2.4045407816038E-03
(PID.TID 0000.0001) %MON ke_volint                    =   1.8128599583999E+13
(PID.TID 0000.0001) %MON ke_volmean                   =   8.3067951992065E-04
(PID.TID 0000.0001) %MON ke_vol                       =   2.1823819113454E+16
(PID.TID 0000.0001) %MON surf_Corr_theta_mean         =   8.7705055367115E-09
(PID.TID 0000.0001) %MON surf_Corr_salt_mean          =   9.3731687857475E-22
(PID.TID 0000.0001) // =======================================================
(PID.TID 0000.0001) // End MONITOR dynamic field statistics
(PID.TID 0000.0001) // =======================================================
 cg2d: Sum(rhs),rhsMax =   3.55271367880050E-15  1.48308814826605E+00
(PID.TID 0000.0001)                    cg2d_init_res =    1.79527840382639E-05
(PID.TID 0000.0001)                       cg2d_iters =    24
(PID.TID 0000.0001)                         cg2d_res =    9.11328972515653E-13
(PID.TID 0000.0001) // =======================================================
(PID.TID 0000.0001) // Begin MONITOR dynamic field statistics
(PID.TID 0000.0001) // =======================================================
(PID.TID 0000.0001) %MON time_tsnumber                =                 36010
(PID.TID 0000.0001) %MON time_secondsf                =   3.1112640000000E+09
(PID.TID 0000.0001) %MON dynstat_eta_max              =   1.6201137033387E+00
(PID.TID 0000.0001) %MON dynstat_eta_min              =  -3.9377519996733E+00
(PID.TID 0000.0001) %MON dynstat_eta_mean             =  -1.7064453074615E-16
(PID.TID 0000.0001) %MON dynstat_eta_sd               =   1.6564207133353E+00
(PID.TID 0000.0001) %MON dynstat_eta_del2             =   1.3977161928686E-02
(PID.TID 0000.0001) %MON dynstat_uvel_max             =   1.4272878081277E-01
(PID.TID 0000.0001) %MON dynstat_uvel_min             =  -3.8630617603137E-01
(PID.TID 0000.0001) %MON dynstat_uvel_mean            =   1.2662130216582E-02
(PID.TID 0000.0001) %MON dynstat_uvel_sd              =   3.8709854107528E-02
(PID.TID 0000.0001) %MON dynstat_uvel_del2            =   6.1842336969361E-04
(PID.TID 0000.0001) %MON dynstat_vvel_max             =   2.2999736611403E-02
(PID.TID 0000.0001) %MON dynstat_vvel_min             =  -2.2999736611369E-02
(PID.TID 0000.0001) %MON dynstat_vvel_mean            =   1.6992775813501E-15
(PID.TID 0000.0001) %MON dynstat_vvel_sd              =   1.5486308995234E-03
(PID.TID 0000.0001) %MON dynstat_vvel_del2            =   7.2796595882664E-05
(PID.TID 0000.0001) %MON dynstat_wvel_max             =   1.3691574737239E-06
(PID.TID 0000.0001) %MON dynstat_wvel_min             =  -8.1261618484777E-07
(PID.TID 0000.0001) %MON dynstat_wvel_mean            =   7.7500647206415E-26
(PID.TID 0000.0001) %MON dynstat_wvel_sd              =   2.5358518270178E-07
(PID.TID 0000.0001) %MON dynstat_wvel_del2            =   3.6738712081651E-08
(PID.TID 0000.0001) %MON dynstat_theta_max            =   2.6657017266272E+01
(PID.TID 0000.0001) %MON dynstat_theta_min            =  -9.3076540391766E-01
(PID.TID 0000.0001) %MON dynstat_theta_mean           =   2.2238501987065E+00
(PID.TID 0000.0001) %MON dynstat_theta_sd             =   3.9264884816792E+00
(PID.TID 0000.0001) %MON dynstat_theta_del2           =   4.1714499001892E-02
(PID.TID 0000.0001) %MON dynstat_salt_max             =   3.4700000000000E+01
(PID.TID 0000.0001) %MON dynstat_salt_min             =   3.4700000000000E+01
(PID.TID 0000.0001) %MON dynstat_salt_mean            =   3.4700000000000E+01
(PID.TID 0000.0001) %MON dynstat_salt_sd              =   2.8421709430404E-14
(PID.TID 0000.0001) %MON dynstat_salt_del2            =   0.0000000000000E+00
(PID.TID 0000.0001) %MON advcfl_uvel_max              =   1.0010509604517E-01
(PID.TID 0000.0001) %MON advcfl_vvel_max              =   5.9579732695576E-03
(PID.TID 0000.0001) %MON advcfl_wvel_max              =   1.9715867621624E-03
(PID.TID 0000.0001) %MON advcfl_W_hf_max              =   5.9147602864873E-03
(PID.TID 0000.0001) %MON ke_max                       =   7.4645590400935E-02
(PID.TID 0000.0001) %MON ke_mean                      =   2.4045379229387E-03
(PID.TID 0000.0001) %MON ke_volint                    =   1.8128605831830E+13
(PID.TID 0000.0001) %MON ke_volmean                   =   8.3067980620563E-04
(PID.TID 0000.0001) %MON ke_vol                       =   2.1823819113454E+16
(PID.TID 0000.0001) %MON surf_Corr_theta_mean         =   8.7700736338727E-09
(PID.TID 0000.0001) %MON surf_Corr_salt_mean          =   4.9042403400694E-22
(PID.TID 0000.0001) // =======================================================
(PID.TID 0000.0001) // End MONITOR dynamic field statistics
(PID.TID 0000.0001) // =======================================================
 cg2d: Sum(rhs),rhsMax =   4.99600361081320E-15  1.48308931174365E+00
(PID.TID 0000.0001)                    cg2d_init_res =    1.79520383312936E-05
(PID.TID 0000.0001)                       cg2d_iters =    24
(PID.TID 0000.0001)                         cg2d_res =    9.12044592561342E-13
(PID.TID 0000.0001) // =======================================================
(PID.TID 0000.0001) // Begin MONITOR dynamic field statistics
(PID.TID 0000.0001) // =======================================================
(PID.TID 0000.0001) %MON time_tsnumber                =                 36011
(PID.TID 0000.0001) %MON time_secondsf                =   3.1113504000000E+09
(PID.TID 0000.0001) %MON dynstat_eta_max              =   1.6201150213976E+00
(PID.TID 0000.0001) %MON dynstat_eta_min              =  -3.9377527848998E+00
(PID.TID 0000.0001) %MON dynstat_eta_mean             =  -1.1598119981023E-16
(PID.TID 0000.0001) %MON dynstat_eta_sd               =   1.6564228667533E+00
(PID.TID 0000.0001) %MON dynstat_eta_del2             =   1.3977171496289E-02
(PID.TID 0000.0001) %MON dynstat_uvel_max             =   1.4272900140427E-01
(PID.TID 0000.0001) %MON dynstat_uvel_min             =  -3.8630587698556E-01
(PID.TID 0000.0001) %MON dynstat_uvel_mean            =   1.2662353877709E-02
(PID.TID 0000.0001) %MON dynstat_uvel_sd              =   3.8709788325691E-02
(PID.TID 0000.0001) %MON dynstat_uvel_del2            =   6.1842288562581E-04
(PID.TID 0000.0001) %MON dynstat_vvel_max             =   2.2999735191541E-02
(PID.TID 0000.0001) %MON dynstat_vvel_min             =  -2.2999735191509E-02
(PID.TID 0000.0001) %MON dynstat_vvel_mean            =   1.5933690160802E-15
(PID.TID 0000.0001) %MON dynstat_vvel_sd              =   1.5486313228199E-03
(PID.TID 0000.0001) %MON dynstat_vvel_del2            =   7.2796739735551E-05
(PID.TID 0000.0001) %MON dynstat_wvel_max             =   1.3691560969122E-06
(PID.TID 0000.0001) %MON dynstat_wvel_min             =  -8.1261620132941E-07
(PID.TID 0000.0001) %MON dynstat_wvel_mean            =   1.8592112598783E-25
(PID.TID 0000.0001) %MON dynstat_wvel_sd              =   2.5358543849432E-07
(PID.TID 0000.0001) %MON dynstat_wvel_del2            =   3.6738447291320E-08
(PID.TID 0000.0001) %MON dynstat_theta_max            =   2.6657016846175E+01
(PID.TID 0000.0001) %MON dynstat_theta_min            =  -9.3076605302035E-01
(PID.TID 0000.0001) %MON dynstat_theta_mean           =   2.2238414379422E+00
(PID.TID 0000.0001) %MON dynstat_theta_sd             =   3.9264894097493E+00
(PID.TID 0000.0001) %MON dynstat_theta_del2           =   4.1714526610315E-02
(PID.TID 0000.0001) %MON dynstat_salt_max             =   3.4700000000000E+01
(PID.TID 0000.0001) %MON dynstat_salt_min             =   3.4700000000000E+01
(PID.TID 0000.0001) %MON dynstat_salt_mean            =   3.4700000000000E+01
(PID.TID 0000.0001) %MON dynstat_salt_sd              =   2.8421709430404E-14
(PID.TID 0000.0001) %MON dynstat_salt_del2            =   0.0000000000000E+00
(PID.TID 0000.0001) %MON advcfl_uvel_max              =   1.0010501855221E-01
(PID.TID 0000.0001) %MON advcfl_vvel_max              =   5.9579729017492E-03
(PID.TID 0000.0001) %MON advcfl_wvel_max              =   1.9715847795536E-03
(PID.TID 0000.0001) %MON advcfl_W_hf_max              =   5.9147543386609E-03
(PID.TID 0000.0001) %MON ke_max                       =   7.4645474824071E-02
(PID.TID 0000.0001) %MON ke_mean                      =   2.4045350643321E-03
(PID.TID 0000.0001) %MON ke_volint                    =   1.8128612080720E+13
(PID.TID 0000.0001) %MON ke_volmean                   =   8.3068009253910E-04
(PID.TID 0000.0001) %MON ke_vol                       =   2.1823819113454E+16
(PID.TID 0000.0001) %MON surf_Corr_theta_mean         =   8.7696416736320E-09
(PID.TID 0000.0001) %MON surf_Corr_salt_mean          =   3.7378179651735E-22
(PID.TID 0000.0001) // =======================================================
(PID.TID 0000.0001) // End MONITOR dynamic field statistics
(PID.TID 0000.0001) // =======================================================
 cg2d: Sum(rhs),rhsMax =   5.88418203051333E-15  1.48309047513981E+00
(PID.TID 0000.0001)                    cg2d_init_res =    1.79512924842481E-05
(PID.TID 0000.0001)                       cg2d_iters =    24
(PID.TID 0000.0001)                         cg2d_res =    9.12708039833449E-13
(PID.TID 0000.0001) // =======================================================
(PID.TID 0000.0001) // Begin MONITOR dynamic field statistics
(PID.TID 0000.0001) // =======================================================
(PID.TID 0000.0001) %MON time_tsnumber                =                 36012
(PID.TID 0000.0001) %MON time_secondsf                =   3.1114368000000E+09
(PID.TID 0000.0001) %MON dynstat_eta_max              =   1.6201163393660E+00
(PID.TID 0000.0001) %MON dynstat_eta_min              =  -3.9377535699832E+00
(PID.TID 0000.0001) %MON dynstat_eta_mean             =  -6.0201015400953E-17
(PID.TID 0000.0001) %MON dynstat_eta_sd               =   1.6564250200471E+00
(PID.TID 0000.0001) %MON dynstat_eta_del2             =   1.3977181063251E-02
(PID.TID 0000.0001) %MON dynstat_uvel_max             =   1.4272922198575E-01
(PID.TID 0000.0001) %MON dynstat_uvel_min             =  -3.8630557794521E-01
(PID.TID 0000.0001) %MON dynstat_uvel_mean            =   1.2662577534394E-02
(PID.TID 0000.0001) %MON dynstat_uvel_sd              =   3.8709722545167E-02
(PID.TID 0000.0001) %MON dynstat_uvel_del2            =   6.1842240140045E-04
(PID.TID 0000.0001) %MON dynstat_vvel_max             =   2.2999733768861E-02
(PID.TID 0000.0001) %MON dynstat_vvel_min             =  -2.2999733768830E-02
(PID.TID 0000.0001) %MON dynstat_vvel_mean            =   1.2589626602289E-15
(PID.TID 0000.0001) %MON dynstat_vvel_sd              =   1.5486317460521E-03
(PID.TID 0000.0001) %MON dynstat_vvel_del2            =   7.2796883482675E-05
(PID.TID 0000.0001) %MON dynstat_wvel_max             =   1.3691547202801E-06
(PID.TID 0000.0001) %MON dynstat_wvel_min             =  -8.1261621778388E-07
(PID.TID 0000.0001) %MON dynstat_wvel_mean            =  -1.9648167828950E-24
(PID.TID 0000.0001) %MON dynstat_wvel_sd              =   2.5358569367238E-07
(PID.TID 0000.0001) %MON dynstat_wvel_del2            =   3.6738182238901E-08
(PID.TID 0000.0001) %MON dynstat_theta_max            =   2.6657016426105E+01
(PID.TID 0000.0001) %MON dynstat_theta_min            =  -9.3076670205111E-01
(PID.TID 0000.0001) %MON dynstat_theta_mean           =   2.2238326773310E+00
(PID.TID 0000.0001) %MON dynstat_theta_sd             =   3.9264903377824E+00
(PID.TID 0000.0001) %MON dynstat_theta_del2           =   4.1714554203657E-02
(PID.TID 0000.0001) %MON dynstat_salt_max             =   3.4700000000000E+01
(PID.TID 0000.0001) %MON dynstat_salt_min             =   3.4700000000000E+01
(PID.TID 0000.0001) %MON dynstat_salt_mean            =   3.4700000000000E+01
(PID.TID 0000.0001) %MON dynstat_salt_sd              =   2.8421709430404E-14
(PID.TID 0000.0001) %MON dynstat_salt_del2            =   0.0000000000000E+00
(PID.TID 0000.0001) %MON advcfl_uvel_max              =   1.0010494106066E-01
(PID.TID 0000.0001) %MON advcfl_vvel_max              =   5.9579725332104E-03
(PID.TID 0000.0001) %MON advcfl_wvel_max              =   1.9715827972033E-03
(PID.TID 0000.0001) %MON advcfl_W_hf_max              =   5.9147483916099E-03
(PID.TID 0000.0001) %MON ke_max                       =   7.4645359249415E-02
(PID.TID 0000.0001) %MON ke_mean                      =   2.4045322057853E-03
(PID.TID 0000.0001) %MON ke_volint                    =   1.8128618330676E+13
(PID.TID 0000.0001) %MON ke_volmean                   =   8.3068037892139E-04
(PID.TID 0000.0001) %MON ke_vol                       =   2.1823819113454E+16
(PID.TID 0000.0001) %MON surf_Corr_theta_mean         =   8.7692096571558E-09
(PID.TID 0000.0001) %MON surf_Corr_salt_mean          =  -3.4164053997882E-22
(PID.TID 0000.0001) // =======================================================
(PID.TID 0000.0001) // End MONITOR dynamic field statistics
(PID.TID 0000.0001) // =======================================================
 cg2d: Sum(rhs),rhsMax =   3.44169137633799E-15  1.48309163845454E+00
(PID.TID 0000.0001)                    cg2d_init_res =    1.79505465061708E-05
(PID.TID 0000.0001)                       cg2d_iters =    24
(PID.TID 0000.0001)                         cg2d_res =    9.13316577848047E-13
(PID.TID 0000.0001) // =======================================================
(PID.TID 0000.0001) // Begin MONITOR dynamic field statistics
(PID.TID 0000.0001) // =======================================================
(PID.TID 0000.0001) %MON time_tsnumber                =                 36013
(PID.TID 0000.0001) %MON time_secondsf                =   3.1115232000000E+09
(PID.TID 0000.0001) %MON dynstat_eta_max              =   1.6201176572438E+00
(PID.TID 0000.0001) %MON dynstat_eta_min              =  -3.9377543549234E+00
(PID.TID 0000.0001) %MON dynstat_eta_mean             =  -1.1777180110627E-16
(PID.TID 0000.0001) %MON dynstat_eta_sd               =   1.6564271732166E+00
(PID.TID 0000.0001) %MON dynstat_eta_del2             =   1.3977190629552E-02
(PID.TID 0000.0001) %MON dynstat_uvel_max             =   1.4272944255735E-01
(PID.TID 0000.0001) %MON dynstat_uvel_min             =  -3.8630527891032E-01
(PID.TID 0000.0001) %MON dynstat_uvel_mean            =   1.2662801186637E-02
(PID.TID 0000.0001) %MON dynstat_uvel_sd              =   3.8709656765962E-02
(PID.TID 0000.0001) %MON dynstat_uvel_del2            =   6.1842191701768E-04
(PID.TID 0000.0001) %MON dynstat_vvel_max             =   2.2999732343394E-02
(PID.TID 0000.0001) %MON dynstat_vvel_min             =  -2.2999732343365E-02
(PID.TID 0000.0001) %MON dynstat_vvel_mean            =   1.0289915334559E-15
(PID.TID 0000.0001) %MON dynstat_vvel_sd              =   1.5486321692227E-03
(PID.TID 0000.0001) %MON dynstat_vvel_del2            =   7.2797027123999E-05
(PID.TID 0000.0001) %MON dynstat_wvel_max             =   1.3691533438221E-06
(PID.TID 0000.0001) %MON dynstat_wvel_min             =  -8.1261623420723E-07
(PID.TID 0000.0001) %MON dynstat_wvel_mean            =  -1.6905820050170E-24
(PID.TID 0000.0001) %MON dynstat_wvel_sd              =   2.5358594823266E-07
(PID.TID 0000.0001) %MON dynstat_wvel_del2            =   3.6737916923261E-08
(PID.TID 0000.0001) %MON dynstat_theta_max            =   2.6657016006062E+01
(PID.TID 0000.0001) %MON dynstat_theta_min            =  -9.3076735101496E-01
(PID.TID 0000.0001) %MON dynstat_theta_mean           =   2.2238239168730E+00
(PID.TID 0000.0001) %MON dynstat_theta_sd             =   3.9264912657784E+00
(PID.TID 0000.0001) %MON dynstat_theta_del2           =   4.1714581781929E-02
(PID.TID 0000.0001) %MON dynstat_salt_max             =   3.4700000000000E+01
(PID.TID 0000.0001) %MON dynstat_salt_min             =   3.4700000000000E+01
(PID.TID 0000.0001) %MON dynstat_salt_mean            =   3.4700000000000E+01
(PID.TID 0000.0001) %MON dynstat_salt_sd              =   2.8421709430404E-14
(PID.TID 0000.0001) %MON dynstat_salt_del2            =   0.0000000000000E+00
(PID.TID 0000.0001) %MON advcfl_uvel_max              =   1.0010486357053E-01
(PID.TID 0000.0001) %MON advcfl_vvel_max              =   5.9579721639501E-03
(PID.TID 0000.0001) %MON advcfl_wvel_max              =   1.9715808151038E-03
(PID.TID 0000.0001) %MON advcfl_W_hf_max              =   5.9147424453115E-03
(PID.TID 0000.0001) %MON ke_max                       =   7.4645243676964E-02
(PID.TID 0000.0001) %MON ke_mean                      =   2.4045293472995E-03
(PID.TID 0000.0001) %MON ke_volint                    =   1.8128624581702E+13
(PID.TID 0000.0001) %MON ke_volmean                   =   8.3068066535278E-04
(PID.TID 0000.0001) %MON ke_vol                       =   2.1823819113454E+16
(PID.TID 0000.0001) %MON surf_Corr_theta_mean         =   8.7687775861116E-09
(PID.TID 0000.0001) %MON surf_Corr_salt_mean          =   1.0772173699132E-22
(PID.TID 0000.0001) // =======================================================
(PID.TID 0000.0001) // End MONITOR dynamic field statistics
(PID.TID 0000.0001) // =======================================================
 cg2d: Sum(rhs),rhsMax =   4.32986979603811E-15  1.48309280168791E+00
(PID.TID 0000.0001)                    cg2d_init_res =    1.79498003835711E-05
(PID.TID 0000.0001)                       cg2d_iters =    24
(PID.TID 0000.0001)                         cg2d_res =    9.13878503753300E-13
(PID.TID 0000.0001) // =======================================================
(PID.TID 0000.0001) // Begin MONITOR dynamic field statistics
(PID.TID 0000.0001) // =======================================================
(PID.TID 0000.0001) %MON time_tsnumber                =                 36014
(PID.TID 0000.0001) %MON time_secondsf                =   3.1116096000000E+09
(PID.TID 0000.0001) %MON dynstat_eta_max              =   1.6201189750310E+00
(PID.TID 0000.0001) %MON dynstat_eta_min              =  -3.9377551397236E+00
(PID.TID 0000.0001) %MON dynstat_eta_mean             =  -1.2109963815963E-16
(PID.TID 0000.0001) %MON dynstat_eta_sd               =   1.6564293262618E+00
(PID.TID 0000.0001) %MON dynstat_eta_del2             =   1.3977200195287E-02
(PID.TID 0000.0001) %MON dynstat_uvel_max             =   1.4272966311918E-01
(PID.TID 0000.0001) %MON dynstat_uvel_min             =  -3.8630497988090E-01
(PID.TID 0000.0001) %MON dynstat_uvel_mean            =   1.2663024834441E-02
(PID.TID 0000.0001) %MON dynstat_uvel_sd              =   3.8709590988082E-02
(PID.TID 0000.0001) %MON dynstat_uvel_del2            =   6.1842143247733E-04
(PID.TID 0000.0001) %MON dynstat_vvel_max             =   2.2999730915188E-02
(PID.TID 0000.0001) %MON dynstat_vvel_min             =  -2.2999730915159E-02
(PID.TID 0000.0001) %MON dynstat_vvel_mean            =   7.9835701628273E-16
(PID.TID 0000.0001) %MON dynstat_vvel_sd              =   1.5486325923342E-03
(PID.TID 0000.0001) %MON dynstat_vvel_del2            =   7.2797170657737E-05
(PID.TID 0000.0001) %MON dynstat_wvel_max             =   1.3691519675324E-06
(PID.TID 0000.0001) %MON dynstat_wvel_min             =  -8.1261625060166E-07
(PID.TID 0000.0001) %MON dynstat_wvel_mean            =   3.1133410758424E-24
(PID.TID 0000.0001) %MON dynstat_wvel_sd              =   2.5358620215355E-07
(PID.TID 0000.0001) %MON dynstat_wvel_del2            =   3.6737651306715E-08
(PID.TID 0000.0001) %MON dynstat_theta_max            =   2.6657015586048E+01
(PID.TID 0000.0001) %MON dynstat_theta_min            =  -9.3076799992155E-01
(PID.TID 0000.0001) %MON dynstat_theta_mean           =   2.2238151565679E+00
(PID.TID 0000.0001) %MON dynstat_theta_sd             =   3.9264921937376E+00
(PID.TID 0000.0001) %MON dynstat_theta_del2           =   4.1714609345142E-02
(PID.TID 0000.0001) %MON dynstat_salt_max             =   3.4700000000000E+01
(PID.TID 0000.0001) %MON dynstat_salt_min             =   3.4700000000000E+01
(PID.TID 0000.0001) %MON dynstat_salt_mean            =   3.4700000000000E+01
(PID.TID 0000.0001) %MON dynstat_salt_sd              =   2.8421709430404E-14
(PID.TID 0000.0001) %MON dynstat_salt_del2            =   0.0000000000000E+00
(PID.TID 0000.0001) %MON advcfl_uvel_max              =   1.0010478608182E-01
(PID.TID 0000.0001) %MON advcfl_vvel_max              =   5.9579717939800E-03
(PID.TID 0000.0001) %MON advcfl_wvel_max              =   1.9715788332467E-03
(PID.TID 0000.0001) %MON advcfl_W_hf_max              =   5.9147364997401E-03
(PID.TID 0000.0001) %MON ke_max                       =   7.4645128106718E-02
(PID.TID 0000.0001) %MON ke_mean                      =   2.4045264888757E-03
(PID.TID 0000.0001) %MON ke_volint                    =   1.8128630833806E+13
(PID.TID 0000.0001) %MON ke_volmean                   =   8.3068095183351E-04
(PID.TID 0000.0001) %MON ke_vol                       =   2.1823819113454E+16
(PID.TID 0000.0001) %MON surf_Corr_theta_mean         =   8.7683454656077E-09
(PID.TID 0000.0001) %MON surf_Corr_salt_mean          =  -2.0485850726613E-22
(PID.TID 0000.0001) // =======================================================
(PID.TID 0000.0001) // End MONITOR dynamic field statistics
(PID.TID 0000.0001) // =======================================================
 cg2d: Sum(rhs),rhsMax =   4.44089209850063E-15  1.48309396483998E+00
(PID.TID 0000.0001)                    cg2d_init_res =    1.79490541384562E-05
(PID.TID 0000.0001)                       cg2d_iters =    24
(PID.TID 0000.0001)                         cg2d_res =    9.14412618018293E-13
(PID.TID 0000.0001) // =======================================================
(PID.TID 0000.0001) // Begin MONITOR dynamic field statistics
(PID.TID 0000.0001) // =======================================================
(PID.TID 0000.0001) %MON time_tsnumber                =                 36015
(PID.TID 0000.0001) %MON time_secondsf                =   3.1116960000000E+09
(PID.TID 0000.0001) %MON dynstat_eta_max              =   1.6201202927277E+00
(PID.TID 0000.0001) %MON dynstat_eta_min              =  -3.9377559243802E+00
(PID.TID 0000.0001) %MON dynstat_eta_mean             =  -1.6527840769971E-16
(PID.TID 0000.0001) %MON dynstat_eta_sd               =   1.6564314791827E+00
(PID.TID 0000.0001) %MON dynstat_eta_del2             =   1.3977209760336E-02
(PID.TID 0000.0001) %MON dynstat_uvel_max             =   1.4272988367137E-01
(PID.TID 0000.0001) %MON dynstat_uvel_min             =  -3.8630468085692E-01
(PID.TID 0000.0001) %MON dynstat_uvel_mean            =   1.2663248477805E-02
(PID.TID 0000.0001) %MON dynstat_uvel_sd              =   3.8709525211534E-02
(PID.TID 0000.0001) %MON dynstat_uvel_del2            =   6.1842094777974E-04
(PID.TID 0000.0001) %MON dynstat_vvel_max             =   2.2999729484299E-02
(PID.TID 0000.0001) %MON dynstat_vvel_min             =  -2.2999729484271E-02
(PID.TID 0000.0001) %MON dynstat_vvel_mean            =   3.1956327749836E-16
(PID.TID 0000.0001) %MON dynstat_vvel_sd              =   1.5486330153894E-03
(PID.TID 0000.0001) %MON dynstat_vvel_del2            =   7.2797314084662E-05
(PID.TID 0000.0001) %MON dynstat_wvel_max             =   1.3691505914037E-06
(PID.TID 0000.0001) %MON dynstat_wvel_min             =  -8.1261626697308E-07
(PID.TID 0000.0001) %MON dynstat_wvel_mean            =  -3.4266724615645E-24
(PID.TID 0000.0001) %MON dynstat_wvel_sd              =   2.5358645545449E-07
(PID.TID 0000.0001) %MON dynstat_wvel_del2            =   3.6737385442616E-08
(PID.TID 0000.0001) %MON dynstat_theta_max            =   2.6657015166063E+01
(PID.TID 0000.0001) %MON dynstat_theta_min            =  -9.3076864875193E-01
(PID.TID 0000.0001) %MON dynstat_theta_mean           =   2.2238063964161E+00
(PID.TID 0000.0001) %MON dynstat_theta_sd             =   3.9264931216598E+00
(PID.TID 0000.0001) %MON dynstat_theta_del2           =   4.1714636893306E-02
(PID.TID 0000.0001) %MON dynstat_salt_max             =   3.4700000000000E+01
(PID.TID 0000.0001) %MON dynstat_salt_min             =   3.4700000000000E+01
(PID.TID 0000.0001) %MON dynstat_salt_mean            =   3.4700000000000E+01
(PID.TID 0000.0001) %MON dynstat_salt_sd              =   2.8421709430404E-14
(PID.TID 0000.0001) %MON dynstat_salt_del2            =   0.0000000000000E+00
(PID.TID 0000.0001) %MON advcfl_uvel_max              =   1.0010470859452E-01
(PID.TID 0000.0001) %MON advcfl_vvel_max              =   5.9579714233149E-03
(PID.TID 0000.0001) %MON advcfl_wvel_max              =   1.9715768516214E-03
(PID.TID 0000.0001) %MON advcfl_W_hf_max              =   5.9147305548641E-03
(PID.TID 0000.0001) %MON ke_max                       =   7.4645012538673E-02
(PID.TID 0000.0001) %MON ke_mean                      =   2.4045236305149E-03
(PID.TID 0000.0001) %MON ke_volint                    =   1.8128637086992E+13
(PID.TID 0000.0001) %MON ke_volmean                   =   8.3068123836382E-04
(PID.TID 0000.0001) %MON ke_vol                       =   2.1823819113454E+16
(PID.TID 0000.0001) %MON surf_Corr_theta_mean         =   8.7679132974655E-09
(PID.TID 0000.0001) %MON surf_Corr_salt_mean          =  -4.0989482490796E-22
(PID.TID 0000.0001) // =======================================================
(PID.TID 0000.0001) // End MONITOR dynamic field statistics
(PID.TID 0000.0001) // =======================================================
 cg2d: Sum(rhs),rhsMax =   3.44169137633799E-15  1.48309512791089E+00
(PID.TID 0000.0001)                    cg2d_init_res =    1.79483077401438E-05
(PID.TID 0000.0001)                       cg2d_iters =    24
(PID.TID 0000.0001)                         cg2d_res =    9.14915647336811E-13
(PID.TID 0000.0001) // =======================================================
(PID.TID 0000.0001) // Begin MONITOR dynamic field statistics
(PID.TID 0000.0001) // =======================================================
(PID.TID 0000.0001) %MON time_tsnumber                =                 36016
(PID.TID 0000.0001) %MON time_secondsf                =   3.1117824000000E+09
(PID.TID 0000.0001) %MON dynstat_eta_max              =   1.6201216103338E+00
(PID.TID 0000.0001) %MON dynstat_eta_min              =  -3.9377567088983E+00
(PID.TID 0000.0001) %MON dynstat_eta_mean             =  -2.2342068607755E-16
(PID.TID 0000.0001) %MON dynstat_eta_sd               =   1.6564336319793E+00
(PID.TID 0000.0001) %MON dynstat_eta_del2             =   1.3977219324833E-02
(PID.TID 0000.0001) %MON dynstat_uvel_max             =   1.4273010421398E-01
(PID.TID 0000.0001) %MON dynstat_uvel_min             =  -3.8630438183840E-01
(PID.TID 0000.0001) %MON dynstat_uvel_mean            =   1.2663472116733E-02
(PID.TID 0000.0001) %MON dynstat_uvel_sd              =   3.8709459436321E-02
(PID.TID 0000.0001) %MON dynstat_uvel_del2            =   6.1842046292470E-04
(PID.TID 0000.0001) %MON dynstat_vvel_max             =   2.2999728050796E-02
(PID.TID 0000.0001) %MON dynstat_vvel_min             =  -2.2999728050769E-02
(PID.TID 0000.0001) %MON dynstat_vvel_mean            =   5.5367453557021E-17
(PID.TID 0000.0001) %MON dynstat_vvel_sd              =   1.5486334383914E-03
(PID.TID 0000.0001) %MON dynstat_vvel_del2            =   7.2797457402217E-05
(PID.TID 0000.0001) %MON dynstat_wvel_max             =   1.3691492154298E-06
(PID.TID 0000.0001) %MON dynstat_wvel_min             =  -8.1261628332092E-07
(PID.TID 0000.0001) %MON dynstat_wvel_mean            =  -8.6747553484517E-25
(PID.TID 0000.0001) %MON dynstat_wvel_sd              =   2.5358670810137E-07
(PID.TID 0000.0001) %MON dynstat_wvel_del2            =   3.6737119259002E-08
(PID.TID 0000.0001) %MON dynstat_theta_max            =   2.6657014746108E+01
(PID.TID 0000.0001) %MON dynstat_theta_min            =  -9.3076929753329E-01
(PID.TID 0000.0001) %MON dynstat_theta_mean           =   2.2237976364172E+00
(PID.TID 0000.0001) %MON dynstat_theta_sd             =   3.9264940495452E+00
(PID.TID 0000.0001) %MON dynstat_theta_del2           =   4.1714664426431E-02
(PID.TID 0000.0001) %MON dynstat_salt_max             =   3.4700000000000E+01
(PID.TID 0000.0001) %MON dynstat_salt_min             =   3.4700000000000E+01
(PID.TID 0000.0001) %MON dynstat_salt_mean            =   3.4700000000000E+01
(PID.TID 0000.0001) %MON dynstat_salt_sd              =   2.8421709430404E-14
(PID.TID 0000.0001) %MON dynstat_salt_del2            =   0.0000000000000E+00
(PID.TID 0000.0001) %MON advcfl_uvel_max              =   1.0010463110862E-01
(PID.TID 0000.0001) %MON advcfl_vvel_max              =   5.9579710519729E-03
(PID.TID 0000.0001) %MON advcfl_wvel_max              =   1.9715748702189E-03
(PID.TID 0000.0001) %MON advcfl_W_hf_max              =   5.9147246106567E-03
(PID.TID 0000.0001) %MON ke_max                       =   7.4644896972829E-02
(PID.TID 0000.0001) %MON ke_mean                      =   2.4045207722180E-03
(PID.TID 0000.0001) %MON ke_volint                    =   1.8128643341264E+13
(PID.TID 0000.0001) %MON ke_volmean                   =   8.3068152494391E-04
(PID.TID 0000.0001) %MON ke_vol                       =   2.1823819113454E+16
(PID.TID 0000.0001) %MON surf_Corr_theta_mean         =   8.7674810902102E-09
(PID.TID 0000.0001) %MON surf_Corr_salt_mean          =  -5.8330400279092E-22
(PID.TID 0000.0001) // =======================================================
(PID.TID 0000.0001) // End MONITOR dynamic field statistics
(PID.TID 0000.0001) // =======================================================
 cg2d: Sum(rhs),rhsMax =   2.99760216648792E-15  1.48309629090075E+00
(PID.TID 0000.0001)                    cg2d_init_res =    1.79475612182893E-05
(PID.TID 0000.0001)                       cg2d_iters =    24
(PID.TID 0000.0001)                         cg2d_res =    9.15388051208582E-13
(PID.TID 0000.0001) // =======================================================
(PID.TID 0000.0001) // Begin MONITOR dynamic field statistics
(PID.TID 0000.0001) // =======================================================
(PID.TID 0000.0001) %MON time_tsnumber                =                 36017
(PID.TID 0000.0001) %MON time_secondsf                =   3.1118688000000E+09
(PID.TID 0000.0001) %MON dynstat_eta_max              =   1.6201229278495E+00
(PID.TID 0000.0001) %MON dynstat_eta_min              =  -3.9377574932751E+00
(PID.TID 0000.0001) %MON dynstat_eta_mean             =  -9.5675599326215E-17
(PID.TID 0000.0001) %MON dynstat_eta_sd               =   1.6564357846515E+00
(PID.TID 0000.0001) %MON dynstat_eta_del2             =   1.3977228888640E-02
(PID.TID 0000.0001) %MON dynstat_uvel_max             =   1.4273032474709E-01
(PID.TID 0000.0001) %MON dynstat_uvel_min             =  -3.8630408282532E-01
(PID.TID 0000.0001) %MON dynstat_uvel_mean            =   1.2663695751225E-02
(PID.TID 0000.0001) %MON dynstat_uvel_sd              =   3.8709393662447E-02
(PID.TID 0000.0001) %MON dynstat_uvel_del2            =   6.1841997791264E-04
(PID.TID 0000.0001) %MON dynstat_vvel_max             =   2.2999726614760E-02
(PID.TID 0000.0001) %MON dynstat_vvel_min             =  -2.2999726614733E-02
(PID.TID 0000.0001) %MON dynstat_vvel_mean            =   3.6277511483066E-17
(PID.TID 0000.0001) %MON dynstat_vvel_sd              =   1.5486338613434E-03
(PID.TID 0000.0001) %MON dynstat_vvel_del2            =   7.2797600611239E-05
(PID.TID 0000.0001) %MON dynstat_wvel_max             =   1.3691478396026E-06
(PID.TID 0000.0001) %MON dynstat_wvel_min             =  -8.1261629965608E-07
(PID.TID 0000.0001) %MON dynstat_wvel_mean            =   2.6819155935123E-24
(PID.TID 0000.0001) %MON dynstat_wvel_sd              =   2.5358696011780E-07
(PID.TID 0000.0001) %MON dynstat_wvel_del2            =   3.6736852819900E-08
(PID.TID 0000.0001) %MON dynstat_theta_max            =   2.6657014326185E+01
(PID.TID 0000.0001) %MON dynstat_theta_min            =  -9.3076994624231E-01
(PID.TID 0000.0001) %MON dynstat_theta_mean           =   2.2237888765714E+00
(PID.TID 0000.0001) %MON dynstat_theta_sd             =   3.9264949773935E+00
(PID.TID 0000.0001) %MON dynstat_theta_del2           =   4.1714691944527E-02
(PID.TID 0000.0001) %MON dynstat_salt_max             =   3.4700000000000E+01
(PID.TID 0000.0001) %MON dynstat_salt_min             =   3.4700000000000E+01
(PID.TID 0000.0001) %MON dynstat_salt_mean            =   3.4700000000000E+01
(PID.TID 0000.0001) %MON dynstat_salt_sd              =   2.8421709430404E-14
(PID.TID 0000.0001) %MON dynstat_salt_del2            =   0.0000000000000E+00
(PID.TID 0000.0001) %MON advcfl_uvel_max              =   1.0010455362415E-01
(PID.TID 0000.0001) %MON advcfl_vvel_max              =   5.9579706799744E-03
(PID.TID 0000.0001) %MON advcfl_wvel_max              =   1.9715728890278E-03
(PID.TID 0000.0001) %MON advcfl_W_hf_max              =   5.9147186670833E-03
(PID.TID 0000.0001) %MON ke_max                       =   7.4644781409184E-02
(PID.TID 0000.0001) %MON ke_mean                      =   2.4045179139858E-03
(PID.TID 0000.0001) %MON ke_volint                    =   1.8128649596625E+13
(PID.TID 0000.0001) %MON ke_volmean                   =   8.3068181157392E-04
(PID.TID 0000.0001) %MON ke_vol                       =   2.1823819113454E+16
(PID.TID 0000.0001) %MON surf_Corr_theta_mean         =   8.7670488484156E-09
(PID.TID 0000.0001) %MON surf_Corr_salt_mean          =  -7.1814682013050E-23
(PID.TID 0000.0001) // =======================================================
(PID.TID 0000.0001) // End MONITOR dynamic field statistics
(PID.TID 0000.0001) // =======================================================
 cg2d: Sum(rhs),rhsMax =   9.99200722162641E-16  1.48309745380973E+00
(PID.TID 0000.0001)                    cg2d_init_res =    1.79468145850128E-05
(PID.TID 0000.0001)                       cg2d_iters =    24
(PID.TID 0000.0001)                         cg2d_res =    9.15833725983427E-13
(PID.TID 0000.0001) // =======================================================
(PID.TID 0000.0001) // Begin MONITOR dynamic field statistics
(PID.TID 0000.0001) // =======================================================
(PID.TID 0000.0001) %MON time_tsnumber                =                 36018
(PID.TID 0000.0001) %MON time_secondsf                =   3.1119552000000E+09
(PID.TID 0000.0001) %MON dynstat_eta_max              =   1.6201242452748E+00
(PID.TID 0000.0001) %MON dynstat_eta_min              =  -3.9377582775081E+00
(PID.TID 0000.0001) %MON dynstat_eta_mean             =  -1.5213862090485E-16
(PID.TID 0000.0001) %MON dynstat_eta_sd               =   1.6564379371995E+00
(PID.TID 0000.0001) %MON dynstat_eta_del2             =   1.3977238451745E-02
(PID.TID 0000.0001) %MON dynstat_uvel_max             =   1.4273054527073E-01
(PID.TID 0000.0001) %MON dynstat_uvel_min             =  -3.8630378381768E-01
(PID.TID 0000.0001) %MON dynstat_uvel_mean            =   1.2663919381284E-02
(PID.TID 0000.0001) %MON dynstat_uvel_sd              =   3.8709327889914E-02
(PID.TID 0000.0001) %MON dynstat_uvel_del2            =   6.1841949274374E-04
(PID.TID 0000.0001) %MON dynstat_vvel_max             =   2.2999725176281E-02
(PID.TID 0000.0001) %MON dynstat_vvel_min             =  -2.2999725176255E-02
(PID.TID 0000.0001) %MON dynstat_vvel_mean            =  -2.7320371234842E-16
(PID.TID 0000.0001) %MON dynstat_vvel_sd              =   1.5486342842488E-03
(PID.TID 0000.0001) %MON dynstat_vvel_del2            =   7.2797743711550E-05
(PID.TID 0000.0001) %MON dynstat_wvel_max             =   1.3691464639128E-06
(PID.TID 0000.0001) %MON dynstat_wvel_min             =  -8.1261631597946E-07
(PID.TID 0000.0001) %MON dynstat_wvel_mean            =   1.5142674740994E-25
(PID.TID 0000.0001) %MON dynstat_wvel_sd              =   2.5358721149687E-07
(PID.TID 0000.0001) %MON dynstat_wvel_del2            =   3.6736586108244E-08
(PID.TID 0000.0001) %MON dynstat_theta_max            =   2.6657013906294E+01
(PID.TID 0000.0001) %MON dynstat_theta_min            =  -9.3077059488005E-01
(PID.TID 0000.0001) %MON dynstat_theta_mean           =   2.2237801168787E+00
(PID.TID 0000.0001) %MON dynstat_theta_sd             =   3.9264959052049E+00
(PID.TID 0000.0001) %MON dynstat_theta_del2           =   4.1714719447603E-02
(PID.TID 0000.0001) %MON dynstat_salt_max             =   3.4700000000000E+01
(PID.TID 0000.0001) %MON dynstat_salt_min             =   3.4700000000000E+01
(PID.TID 0000.0001) %MON dynstat_salt_mean            =   3.4700000000000E+01
(PID.TID 0000.0001) %MON dynstat_salt_sd              =   2.8421709430404E-14
(PID.TID 0000.0001) %MON dynstat_salt_del2            =   0.0000000000000E+00
(PID.TID 0000.0001) %MON advcfl_uvel_max              =   1.0010447614108E-01
(PID.TID 0000.0001) %MON advcfl_vvel_max              =   5.9579703073433E-03
(PID.TID 0000.0001) %MON advcfl_wvel_max              =   1.9715709080345E-03
(PID.TID 0000.0001) %MON advcfl_W_hf_max              =   5.9147127241034E-03
(PID.TID 0000.0001) %MON ke_max                       =   7.4644665847735E-02
(PID.TID 0000.0001) %MON ke_mean                      =   2.4045150558187E-03
(PID.TID 0000.0001) %MON ke_volint                    =   1.8128655853079E+13
(PID.TID 0000.0001) %MON ke_volmean                   =   8.3068209825398E-04
(PID.TID 0000.0001) %MON ke_vol                       =   2.1823819113454E+16
(PID.TID 0000.0001) %MON surf_Corr_theta_mean         =   8.7666165790919E-09
(PID.TID 0000.0001) %MON surf_Corr_salt_mean          =   9.8834647238875E-23
(PID.TID 0000.0001) // =======================================================
(PID.TID 0000.0001) // End MONITOR dynamic field statistics
(PID.TID 0000.0001) // =======================================================
 cg2d: Sum(rhs),rhsMax =   4.55191440096314E-15  1.48309861663804E+00
(PID.TID 0000.0001)                    cg2d_init_res =    1.79460678658864E-05
(PID.TID 0000.0001)                       cg2d_iters =    24
(PID.TID 0000.0001)                         cg2d_res =    9.16243410206032E-13
(PID.TID 0000.0001) // =======================================================
(PID.TID 0000.0001) // Begin MONITOR dynamic field statistics
(PID.TID 0000.0001) // =======================================================
(PID.TID 0000.0001) %MON time_tsnumber                =                 36019
(PID.TID 0000.0001) %MON time_secondsf                =   3.1120416000000E+09
(PID.TID 0000.0001) %MON dynstat_eta_max              =   1.6201255626098E+00
(PID.TID 0000.0001) %MON dynstat_eta_min              =  -3.9377590615992E+00
(PID.TID 0000.0001) %MON dynstat_eta_mean             =  -1.2096443412776E-16
(PID.TID 0000.0001) %MON dynstat_eta_sd               =   1.6564400896231E+00
(PID.TID 0000.0001) %MON dynstat_eta_del2             =   1.3977248014180E-02
(PID.TID 0000.0001) %MON dynstat_uvel_max             =   1.4273076578490E-01
(PID.TID 0000.0001) %MON dynstat_uvel_min             =  -3.8630348481549E-01
(PID.TID 0000.0001) %MON dynstat_uvel_mean            =   1.2664143006911E-02
(PID.TID 0000.0001) %MON dynstat_uvel_sd              =   3.8709262118724E-02
(PID.TID 0000.0001) %MON dynstat_uvel_del2            =   6.1841900741804E-04
(PID.TID 0000.0001) %MON dynstat_vvel_max             =   2.2999723735462E-02
(PID.TID 0000.0001) %MON dynstat_vvel_min             =  -2.2999723735435E-02
(PID.TID 0000.0001) %MON dynstat_vvel_mean            =  -2.3568169225024E-16
(PID.TID 0000.0001) %MON dynstat_vvel_sd              =   1.5486347071110E-03
(PID.TID 0000.0001) %MON dynstat_vvel_del2            =   7.2797886702658E-05
(PID.TID 0000.0001) %MON dynstat_wvel_max             =   1.3691450883524E-06
(PID.TID 0000.0001) %MON dynstat_wvel_min             =  -8.1261633229239E-07
(PID.TID 0000.0001) %MON dynstat_wvel_mean            =  -2.0266787869637E-24
(PID.TID 0000.0001) %MON dynstat_wvel_sd              =   2.5358746223298E-07
(PID.TID 0000.0001) %MON dynstat_wvel_del2            =   3.6736319115605E-08
(PID.TID 0000.0001) %MON dynstat_theta_max            =   2.6657013486435E+01
(PID.TID 0000.0001) %MON dynstat_theta_min            =  -9.3077124345665E-01
(PID.TID 0000.0001) %MON dynstat_theta_mean           =   2.2237713573391E+00
(PID.TID 0000.0001) %MON dynstat_theta_sd             =   3.9264968329794E+00
(PID.TID 0000.0001) %MON dynstat_theta_del2           =   4.1714746935668E-02
(PID.TID 0000.0001) %MON dynstat_salt_max             =   3.4700000000000E+01
(PID.TID 0000.0001) %MON dynstat_salt_min             =   3.4700000000000E+01
(PID.TID 0000.0001) %MON dynstat_salt_mean            =   3.4700000000000E+01
(PID.TID 0000.0001) %MON dynstat_salt_sd              =   2.8421709430404E-14
(PID.TID 0000.0001) %MON dynstat_salt_del2            =   0.0000000000000E+00
(PID.TID 0000.0001) %MON advcfl_uvel_max              =   1.0010439865942E-01
(PID.TID 0000.0001) %MON advcfl_vvel_max              =   5.9579699341058E-03
(PID.TID 0000.0001) %MON advcfl_wvel_max              =   1.9715689272274E-03
(PID.TID 0000.0001) %MON advcfl_W_hf_max              =   5.9147067816822E-03
(PID.TID 0000.0001) %MON ke_max                       =   7.4644550288483E-02
(PID.TID 0000.0001) %MON ke_mean                      =   2.4045121977174E-03
(PID.TID 0000.0001) %MON ke_volint                    =   1.8128662110627E+13
(PID.TID 0000.0001) %MON ke_volmean                   =   8.3068238498417E-04
(PID.TID 0000.0001) %MON ke_vol                       =   2.1823819113454E+16
(PID.TID 0000.0001) %MON surf_Corr_theta_mean         =   8.7661842901446E-09
(PID.TID 0000.0001) %MON surf_Corr_salt_mean          =   9.1768433214645E-23
(PID.TID 0000.0001) // =======================================================
(PID.TID 0000.0001) // End MONITOR dynamic field statistics
(PID.TID 0000.0001) // =======================================================
 cg2d: Sum(rhs),rhsMax =   4.55191440096314E-15  1.48309977938587E+00
(PID.TID 0000.0001)                    cg2d_init_res =    1.79453210834883E-05
(PID.TID 0000.0001)                       cg2d_iters =    24
(PID.TID 0000.0001)                         cg2d_res =    9.16622862223866E-13
(PID.TID 0000.0001) // =======================================================
(PID.TID 0000.0001) // Begin MONITOR dynamic field statistics
(PID.TID 0000.0001) // =======================================================
(PID.TID 0000.0001) %MON time_tsnumber                =                 36020
(PID.TID 0000.0001) %MON time_secondsf                =   3.1121280000000E+09
(PID.TID 0000.0001) %MON dynstat_eta_max              =   1.6201268798545E+00
(PID.TID 0000.0001) %MON dynstat_eta_min              =  -3.9377598455496E+00
(PID.TID 0000.0001) %MON dynstat_eta_mean             =  -1.5863863994967E-16
(PID.TID 0000.0001) %MON dynstat_eta_sd               =   1.6564422419224E+00
(PID.TID 0000.0001) %MON dynstat_eta_del2             =   1.3977257575979E-02
(PID.TID 0000.0001) %MON dynstat_uvel_max             =   1.4273098628961E-01
(PID.TID 0000.0001) %MON dynstat_uvel_min             =  -3.8630318581873E-01
(PID.TID 0000.0001) %MON dynstat_uvel_mean            =   1.2664366628108E-02
(PID.TID 0000.0001) %MON dynstat_uvel_sd              =   3.8709196348877E-02
(PID.TID 0000.0001) %MON dynstat_uvel_del2            =   6.1841852193553E-04
(PID.TID 0000.0001) %MON dynstat_vvel_max             =   2.2999722292413E-02
(PID.TID 0000.0001) %MON dynstat_vvel_min             =  -2.2999722292387E-02
(PID.TID 0000.0001) %MON dynstat_vvel_mean            =  -1.8911218709234E-16
(PID.TID 0000.0001) %MON dynstat_vvel_sd              =   1.5486351299335E-03
(PID.TID 0000.0001) %MON dynstat_vvel_del2            =   7.2798029583685E-05
(PID.TID 0000.0001) %MON dynstat_wvel_max             =   1.3691437129098E-06
(PID.TID 0000.0001) %MON dynstat_wvel_min             =  -8.1261634859665E-07
(PID.TID 0000.0001) %MON dynstat_wvel_mean            =  -2.5474009216098E-24
(PID.TID 0000.0001) %MON dynstat_wvel_sd              =   2.5358771232071E-07
(PID.TID 0000.0001) %MON dynstat_wvel_del2            =   3.6736051833694E-08
(PID.TID 0000.0001) %MON dynstat_theta_max            =   2.6657013066611E+01
(PID.TID 0000.0001) %MON dynstat_theta_min            =  -9.3077189197019E-01
(PID.TID 0000.0001) %MON dynstat_theta_mean           =   2.2237625979525E+00
(PID.TID 0000.0001) %MON dynstat_theta_sd             =   3.9264977607171E+00
(PID.TID 0000.0001) %MON dynstat_theta_del2           =   4.1714774408730E-02
(PID.TID 0000.0001) %MON dynstat_salt_max             =   3.4700000000000E+01
(PID.TID 0000.0001) %MON dynstat_salt_min             =   3.4700000000000E+01
(PID.TID 0000.0001) %MON dynstat_salt_mean            =   3.4700000000000E+01
(PID.TID 0000.0001) %MON dynstat_salt_sd              =   2.8421709430404E-14
(PID.TID 0000.0001) %MON dynstat_salt_del2            =   0.0000000000000E+00
(PID.TID 0000.0001) %MON advcfl_uvel_max              =   1.0010432117917E-01
(PID.TID 0000.0001) %MON advcfl_vvel_max              =   5.9579695602908E-03
(PID.TID 0000.0001) %MON advcfl_wvel_max              =   1.9715669465902E-03
(PID.TID 0000.0001) %MON advcfl_W_hf_max              =   5.9147008397705E-03
(PID.TID 0000.0001) %MON ke_max                       =   7.4644434731425E-02
(PID.TID 0000.0001) %MON ke_mean                      =   2.4045093396820E-03
(PID.TID 0000.0001) %MON ke_volint                    =   1.8128668369270E+13
(PID.TID 0000.0001) %MON ke_volmean                   =   8.3068267176453E-04
(PID.TID 0000.0001) %MON ke_vol                       =   2.1823819113454E+16
(PID.TID 0000.0001) %MON surf_Corr_theta_mean         =   8.7657519904579E-09
(PID.TID 0000.0001) %MON surf_Corr_salt_mean          =   4.9704644790930E-23
(PID.TID 0000.0001) // =======================================================
(PID.TID 0000.0001) // End MONITOR dynamic field statistics
(PID.TID 0000.0001) // =======================================================
(PID.TID 0000.0001)   Seconds in section "ALL                    [THE_MODEL_MAIN]":
(PID.TID 0000.0001)           User time:  2.78999995
(PID.TID 0000.0001)         System time:  0.200000003
(PID.TID 0000.0001)     Wall clock time:  2.99005008
(PID.TID 0000.0001)          No. starts: 1
(PID.TID 0000.0001)           No. stops: 1
(PID.TID 0000.0001)   Seconds in section "INITIALISE_FIXED       [THE_MODEL_MAIN]":
(PID.TID 0000.0001)           User time:  0.130000001
(PID.TID 0000.0001)         System time:  0.0599999987
(PID.TID 0000.0001)     Wall clock time:  0.192502022
(PID.TID 0000.0001)          No. starts: 1
(PID.TID 0000.0001)           No. stops: 1
(PID.TID 0000.0001)   Seconds in section "THE_MAIN_LOOP          [THE_MODEL_MAIN]":
(PID.TID 0000.0001)           User time:  2.59000002
(PID.TID 0000.0001)         System time:  0.0999999978
(PID.TID 0000.0001)     Wall clock time:  2.68299103
(PID.TID 0000.0001)          No. starts: 1
(PID.TID 0000.0001)           No. stops: 1
(PID.TID 0000.0001)   Seconds in section "INITIALISE_VARIA    [THE_MAIN_LOOP]":
(PID.TID 0000.0001)           User time:  0.0600000024
(PID.TID 0000.0001)         System time:  0.0400000028
(PID.TID 0000.0001)     Wall clock time:  0.0922790766
(PID.TID 0000.0001)          No. starts: 1
(PID.TID 0000.0001)           No. stops: 1
(PID.TID 0000.0001)   Seconds in section "WRITE_STATE         [THE_MAIN_LOOP]":
(PID.TID 0000.0001)           User time:  0.0199999958
(PID.TID 0000.0001)         System time:  0.00999999791
(PID.TID 0000.0001)     Wall clock time:  0.0335630178
(PID.TID 0000.0001)          No. starts: 1
(PID.TID 0000.0001)           No. stops: 1
(PID.TID 0000.0001)   Seconds in section "MONITOR             [THE_MAIN_LOOP]":
(PID.TID 0000.0001)           User time:  0.0100000054
(PID.TID 0000.0001)         System time:  0.
(PID.TID 0000.0001)     Wall clock time:  0.00786399841
(PID.TID 0000.0001)          No. starts: 1
(PID.TID 0000.0001)           No. stops: 1
(PID.TID 0000.0001)   Seconds in section "MAIN LOOP           [THE_MAIN_LOOP]":
(PID.TID 0000.0001)           User time:  2.50000001
(PID.TID 0000.0001)         System time:  0.049999997
(PID.TID 0000.0001)     Wall clock time:  2.54880393
(PID.TID 0000.0001)          No. starts: 1
(PID.TID 0000.0001)           No. stops: 1
(PID.TID 0000.0001)   Seconds in section "FORWARD_STEP        [THE_MAIN_LOOP]":
(PID.TID 0000.0001)           User time:  2.50000001
(PID.TID 0000.0001)         System time:  0.049999997
(PID.TID 0000.0001)     Wall clock time:  2.54730904
(PID.TID 0000.0001)          No. starts: 20
(PID.TID 0000.0001)           No. stops: 20
(PID.TID 0000.0001)   Seconds in section "UPDATE_ETAH        [FORWARD_STEP]":
(PID.TID 0000.0001)           User time:  0.
(PID.TID 0000.0001)         System time:  0.
(PID.TID 0000.0001)     Wall clock time:  0.00173687935
(PID.TID 0000.0001)          No. starts: 20
(PID.TID 0000.0001)           No. stops: 20
(PID.TID 0000.0001)   Seconds in section "EXTERNAL_FIELDS_LOAD[FORWARD_STEP]":
(PID.TID 0000.0001)           User time:  0.00999999046
(PID.TID 0000.0001)         System time:  0.
(PID.TID 0000.0001)     Wall clock time:  0.00143432617
(PID.TID 0000.0001)          No. starts: 20
(PID.TID 0000.0001)           No. stops: 20
(PID.TID 0000.0001)   Seconds in section "THERMODYNAMICS      [FORWARD_STEP]":
(PID.TID 0000.0001)           User time:  1.15999986
(PID.TID 0000.0001)         System time:  0.00999999791
(PID.TID 0000.0001)     Wall clock time:  1.18634319
(PID.TID 0000.0001)          No. starts: 20
(PID.TID 0000.0001)           No. stops: 20
(PID.TID 0000.0001)   Seconds in section "BLOCKING_EXCHANGES  [FORWARD_STEP]":
(PID.TID 0000.0001)           User time:  0.149999917
(PID.TID 0000.0001)         System time:  0.
(PID.TID 0000.0001)     Wall clock time:  0.135967851
(PID.TID 0000.0001)          No. starts: 40
(PID.TID 0000.0001)           No. stops: 40
(PID.TID 0000.0001)   Seconds in section "DYNAMICS            [FORWARD_STEP]":
(PID.TID 0000.0001)           User time:  0.80000025
(PID.TID 0000.0001)         System time:  0.
(PID.TID 0000.0001)     Wall clock time:  0.807241678
(PID.TID 0000.0001)          No. starts: 20
(PID.TID 0000.0001)           No. stops: 20
(PID.TID 0000.0001)   Seconds in section "SOLVE_FOR_PRESSURE  [FORWARD_STEP]":
(PID.TID 0000.0001)           User time:  0.100000054
(PID.TID 0000.0001)         System time:  0.
(PID.TID 0000.0001)     Wall clock time:  0.104051232
(PID.TID 0000.0001)          No. starts: 20
(PID.TID 0000.0001)           No. stops: 20
(PID.TID 0000.0001)   Seconds in section "THE_CORRECTION_STEP [FORWARD_STEP]":
(PID.TID 0000.0001)           User time:  0.0999999344
(PID.TID 0000.0001)         System time:  0.
(PID.TID 0000.0001)     Wall clock time:  0.0973459482
(PID.TID 0000.0001)          No. starts: 20
(PID.TID 0000.0001)           No. stops: 20
(PID.TID 0000.0001)   Seconds in section "MONITOR             [FORWARD_STEP]":
(PID.TID 0000.0001)           User time:  0.140000045
(PID.TID 0000.0001)         System time:  0.0100000054
(PID.TID 0000.0001)     Wall clock time:  0.159022093
(PID.TID 0000.0001)          No. starts: 20
(PID.TID 0000.0001)           No. stops: 20
(PID.TID 0000.0001)   Seconds in section "DO_THE_MODEL_IO     [FORWARD_STEP]":
(PID.TID 0000.0001)           User time:  0.00999999046
(PID.TID 0000.0001)         System time:  0.0199999958
(PID.TID 0000.0001)     Wall clock time:  0.0351420641
(PID.TID 0000.0001)          No. starts: 20
(PID.TID 0000.0001)           No. stops: 20
(PID.TID 0000.0001)   Seconds in section "WRITE_CHECKPOINT    [FORWARD_STEP]":
(PID.TID 0000.0001)           User time:  0.00999999046
(PID.TID 0000.0001)         System time:  0.
(PID.TID 0000.0001)     Wall clock time:  0.00144910812
(PID.TID 0000.0001)          No. starts: 20
(PID.TID 0000.0001)           No. stops: 20
(PID.TID 0000.0001)   Seconds in section "WRITE_CHECKPOINT       [THE_MODEL_MAIN]":
(PID.TID 0000.0001)           User time:  0.0699999332
(PID.TID 0000.0001)         System time:  0.0400000066
(PID.TID 0000.0001)     Wall clock time:  0.114220977
(PID.TID 0000.0001)          No. starts: 1
(PID.TID 0000.0001)           No. stops: 1
(PID.TID 0000.0001) // ======================================================
(PID.TID 0000.0001) // Tile <-> Tile communication statistics
(PID.TID 0000.0001) // ======================================================
(PID.TID 0000.0001) // o Tile number: 000001
(PID.TID 0000.0001) //         No. X exchanges =              0
(PID.TID 0000.0001) //            Max. X spins =              0
(PID.TID 0000.0001) //            Min. X spins =     1000000000
(PID.TID 0000.0001) //          Total. X spins =              0
(PID.TID 0000.0001) //            Avg. X spins =       0.00E+00
(PID.TID 0000.0001) //         No. Y exchanges =              0
(PID.TID 0000.0001) //            Max. Y spins =              0
(PID.TID 0000.0001) //            Min. Y spins =     1000000000
(PID.TID 0000.0001) //          Total. Y spins =              0
(PID.TID 0000.0001) //            Avg. Y spins =       0.00E+00
(PID.TID 0000.0001) // o Thread number: 000001
(PID.TID 0000.0001) //            No. barriers =          11634
(PID.TID 0000.0001) //      Max. barrier spins =              1
(PID.TID 0000.0001) //      Min. barrier spins =              1
(PID.TID 0000.0001) //     Total barrier spins =          11634
(PID.TID 0000.0001) //      Avg. barrier spins =       1.00E+00
