(PID.TID 0000.0001) 
(PID.TID 0000.0001) // ======================================================
(PID.TID 0000.0001) //                      MITgcm UV
(PID.TID 0000.0001) //                      =========
(PID.TID 0000.0001) // ======================================================
(PID.TID 0000.0001) // execution environment starting up...
(PID.TID 0000.0001) 
(PID.TID 0000.0001) // MITgcmUV version:  checkpoint61e
(PID.TID 0000.0001) // Build user:        jmc
(PID.TID 0000.0001) // Build host:        faulks
(PID.TID 0000.0001) // Build date:        Mon Oct 27 18:14:05 EDT 2008
(PID.TID 0000.0001) 
(PID.TID 0000.0001) // =======================================================
(PID.TID 0000.0001) // Execution Environment parameter file "eedata"
(PID.TID 0000.0001) // =======================================================
(PID.TID 0000.0001) ># Example "eedata" file
(PID.TID 0000.0001) ># Lines beginning "#" are comments
(PID.TID 0000.0001) ># nTx - No. threads per process in X
(PID.TID 0000.0001) ># nTy - No. threads per process in Y
(PID.TID 0000.0001) > &EEPARMS
(PID.TID 0000.0001) > nTx=1,
(PID.TID 0000.0001) > nTy=1,
(PID.TID 0000.0001) > &
(PID.TID 0000.0001) ># Note: Some systems use & as the
(PID.TID 0000.0001) ># namelist terminator. Other systems
(PID.TID 0000.0001) ># use a / character (as shown here).
(PID.TID 0000.0001) 
(PID.TID 0000.0001) // =======================================================
(PID.TID 0000.0001) // Computational Grid Specification ( see files "SIZE.h" )
(PID.TID 0000.0001) //                                  ( and "eedata"       )
(PID.TID 0000.0001) // =======================================================
(PID.TID 0000.0001)      nPx =    1 ; /* No. processes in X */
(PID.TID 0000.0001)      nPy =    1 ; /* No. processes in Y */
(PID.TID 0000.0001)      nSx =    1 ; /* No. tiles in X per process */
(PID.TID 0000.0001)      nSy =    4 ; /* No. tiles in Y per process */
(PID.TID 0000.0001)      sNx =    1 ; /* Tile size in X */
(PID.TID 0000.0001)      sNy =   14 ; /* Tile size in Y */
(PID.TID 0000.0001)      OLx =    3 ; /* Tile overlap distance in X */
(PID.TID 0000.0001)      OLy =    3 ; /* Tile overlap distance in Y */
(PID.TID 0000.0001)      nTx =    1 ; /* No. threads in X per process */
(PID.TID 0000.0001)      nTy =    1 ; /* No. threads in Y per process */
(PID.TID 0000.0001)       Nr =   15 ; /* No. levels in the vertical   */
(PID.TID 0000.0001)       nX =    1 ; /* Total domain size in X ( = nPx*nSx*sNx ) */
(PID.TID 0000.0001)       nY =   56 ; /* Total domain size in Y ( = nPy*nSy*sNy ) */
(PID.TID 0000.0001)   nTiles =    4 ; /* Total no. tiles per process ( = nSx*nSy ) */
(PID.TID 0000.0001)   nProcs =    1 ; /* Total no. processes ( = nPx*nPy ) */
(PID.TID 0000.0001) nThreads =    1 ; /* Total no. threads per process ( = nTx*nTy ) */
(PID.TID 0000.0001) usingMPI =    F ; /* Flag used to control whether MPI is in use */
(PID.TID 0000.0001)                   /*  note: To execute a program with MPI calls */
(PID.TID 0000.0001)                   /*  it must be launched appropriately e.g     */
(PID.TID 0000.0001)                   /*  "mpirun -np 64 ......"                    */
(PID.TID 0000.0001) useCoupler=   F ; /* Flag used to control communications with */
(PID.TID 0000.0001)                   /*  other model components, through a coupler */
(PID.TID 0000.0001) 
(PID.TID 0000.0001) // ======================================================
(PID.TID 0000.0001) // Mapping of tiles to threads
(PID.TID 0000.0001) // ======================================================
(PID.TID 0000.0001) // -o- Thread   1, tiles (   1:   1,   1:   4)
(PID.TID 0000.0001) 
(PID.TID 0000.0001) // ======================================================
(PID.TID 0000.0001) // Tile <-> Tile connectvity table
(PID.TID 0000.0001) // ======================================================
(PID.TID 0000.0001) // Tile number: 000001 (process no. = 000001)
(PID.TID 0000.0001) //        WEST: Tile = 000001, Process = 000001, Comm = put
(PID.TID 0000.0001) //                bi = 000001, bj = 000001
(PID.TID 0000.0001) //        EAST: Tile = 000001, Process = 000001, Comm = put
(PID.TID 0000.0001) //                bi = 000001, bj = 000001
(PID.TID 0000.0001) //       SOUTH: Tile = 000004, Process = 000001, Comm = put
(PID.TID 0000.0001) //                bi = 000001, bj = 000004
(PID.TID 0000.0001) //       NORTH: Tile = 000002, Process = 000001, Comm = put
(PID.TID 0000.0001) //                bi = 000001, bj = 000002
(PID.TID 0000.0001) // Tile number: 000002 (process no. = 000001)
(PID.TID 0000.0001) //        WEST: Tile = 000002, Process = 000001, Comm = put
(PID.TID 0000.0001) //                bi = 000001, bj = 000002
(PID.TID 0000.0001) //        EAST: Tile = 000002, Process = 000001, Comm = put
(PID.TID 0000.0001) //                bi = 000001, bj = 000002
(PID.TID 0000.0001) //       SOUTH: Tile = 000001, Process = 000001, Comm = put
(PID.TID 0000.0001) //                bi = 000001, bj = 000001
(PID.TID 0000.0001) //       NORTH: Tile = 000003, Process = 000001, Comm = put
(PID.TID 0000.0001) //                bi = 000001, bj = 000003
(PID.TID 0000.0001) // Tile number: 000003 (process no. = 000001)
(PID.TID 0000.0001) //        WEST: Tile = 000003, Process = 000001, Comm = put
(PID.TID 0000.0001) //                bi = 000001, bj = 000003
(PID.TID 0000.0001) //        EAST: Tile = 000003, Process = 000001, Comm = put
(PID.TID 0000.0001) //                bi = 000001, bj = 000003
(PID.TID 0000.0001) //       SOUTH: Tile = 000002, Process = 000001, Comm = put
(PID.TID 0000.0001) //                bi = 000001, bj = 000002
(PID.TID 0000.0001) //       NORTH: Tile = 000004, Process = 000001, Comm = put
(PID.TID 0000.0001) //                bi = 000001, bj = 000004
(PID.TID 0000.0001) // Tile number: 000004 (process no. = 000001)
(PID.TID 0000.0001) //        WEST: Tile = 000004, Process = 000001, Comm = put
(PID.TID 0000.0001) //                bi = 000001, bj = 000004
(PID.TID 0000.0001) //        EAST: Tile = 000004, Process = 000001, Comm = put
(PID.TID 0000.0001) //                bi = 000001, bj = 000004
(PID.TID 0000.0001) //       SOUTH: Tile = 000003, Process = 000001, Comm = put
(PID.TID 0000.0001) //                bi = 000001, bj = 000003
(PID.TID 0000.0001) //       NORTH: Tile = 000001, Process = 000001, Comm = put
(PID.TID 0000.0001) //                bi = 000001, bj = 000001
(PID.TID 0000.0001) 
(PID.TID 0000.0001) // =======================================================
(PID.TID 0000.0001) // Model parameter file "data"
(PID.TID 0000.0001) // =======================================================
(PID.TID 0000.0001) ># ====================
(PID.TID 0000.0001) ># | Model parameters |
(PID.TID 0000.0001) ># ====================
(PID.TID 0000.0001) >#
(PID.TID 0000.0001) ># Continuous equation parameters
(PID.TID 0000.0001) > &PARM01
(PID.TID 0000.0001) > tRef= 18.8, 16.3, 13.1, 10.4, 8.1, 6.0, 4.5,
(PID.TID 0000.0001) >      3.4, 2.7, 2.2, 1.8, 1.5, 1.2, 1.0, 0.9,
(PID.TID 0000.0001) > sRef= 15*34.7,
(PID.TID 0000.0001) > cosPower=1.,
(PID.TID 0000.0001) > viscAr=1.E-3,
(PID.TID 0000.0001) > viscAh=12.E5,
(PID.TID 0000.0001) > no_slip_sides=.FALSE.,
(PID.TID 0000.0001) > no_slip_bottom=.TRUE.,
(PID.TID 0000.0001) > bottomDragLinear=1.E-3,
(PID.TID 0000.0001) >#diffK4T=2.E12,
(PID.TID 0000.0001) > diffKhT=0.E3,
(PID.TID 0000.0001) > diffKrNrT=1.E-4, 14*1.E-5,
(PID.TID 0000.0001) > ivdc_kappa=100.,
(PID.TID 0000.0001) > implicitDiffusion=.TRUE.,
(PID.TID 0000.0001) > eosType='LINEAR',
(PID.TID 0000.0001) > tAlpha=2.E-4,
(PID.TID 0000.0001) > sBeta =0.E-4,
(PID.TID 0000.0001) > saltStepping=.FALSE.,
(PID.TID 0000.0001) > rotationPeriod=86400.,
(PID.TID 0000.0001) > gravity=9.81,
(PID.TID 0000.0001) > rhonil=1035.,
(PID.TID 0000.0001) > implicitFreeSurface=.TRUE.,
(PID.TID 0000.0001) > exactConserv=.TRUE.,
(PID.TID 0000.0001) > staggerTimeStep=.TRUE.,
(PID.TID 0000.0001) > useCDscheme=.TRUE.,
(PID.TID 0000.0001) > readBinaryPrec=64,
(PID.TID 0000.0001) > tempAdvScheme=77,
(PID.TID 0000.0001) > usePickupBeforeC54=.TRUE.,
(PID.TID 0000.0001) > &
(PID.TID 0000.0001) >
(PID.TID 0000.0001) ># Elliptic solver parameters
(PID.TID 0000.0001) > &PARM02
(PID.TID 0000.0001) > cg2dMaxIters=1000,
(PID.TID 0000.0001) >#cg2dTargetResidual=1.E-13,
(PID.TID 0000.0001) > cg2dTargetResWunit=1.E-17,
(PID.TID 0000.0001) > &
(PID.TID 0000.0001) >
(PID.TID 0000.0001) ># Time stepping parameters
(PID.TID 0000.0001) > &PARM03
(PID.TID 0000.0001) > niter0=36000,
(PID.TID 0000.0001) > nTimeSteps=20,
(PID.TID 0000.0001) >#endTime=3110400000.,
(PID.TID 0000.0001) > deltaTmom=1200.0,
(PID.TID 0000.0001) > deltaTfreesurf=3600.0,
(PID.TID 0000.0001) > deltaTtracer=86400.0,
(PID.TID 0000.0001) > deltaTClock =86400.0,
(PID.TID 0000.0001) > abEps=0.1,
(PID.TID 0000.0001) > tauCD=321428.,
(PID.TID 0000.0001) > tauThetaClimRelax=2592000.0,
(PID.TID 0000.0001) > pickupStrictlyMatch=.FALSE.,
(PID.TID 0000.0001) > chkptFreq=0.0,
(PID.TID 0000.0001) > pChkptFreq=3110400000.0,
(PID.TID 0000.0001) > taveFreq=1555200000.0,
(PID.TID 0000.0001) > dumpFreq=1555200000.0,
(PID.TID 0000.0001) > diagFreq=1555200000.0,
(PID.TID 0000.0001) >#monitorFreq=31104000.0,
(PID.TID 0000.0001) > monitorFreq=1.0,
(PID.TID 0000.0001) > &
(PID.TID 0000.0001) >
(PID.TID 0000.0001) ># Gridding parameters
(PID.TID 0000.0001) > &PARM04
(PID.TID 0000.0001) > usingCartesianGrid=.FALSE.,
(PID.TID 0000.0001) > usingSphericalPolarGrid=.TRUE.,
(PID.TID 0000.0001) > delRc= 20.,  60.,  85., 120., 165., 215., 265., 315.,
(PID.TID 0000.0001) >       365., 415., 465., 515., 565., 615., 665., 350.,
(PID.TID 0000.0001) > phiMin=-84.,
(PID.TID 0000.0001) > delY=56*3,
(PID.TID 0000.0001) > delX=1*3,
(PID.TID 0000.0001) > &
(PID.TID 0000.0001) >
(PID.TID 0000.0001) ># Input datasets
(PID.TID 0000.0001) > &PARM05
(PID.TID 0000.0001) > bathyFile='topo_sl.bin',
(PID.TID 0000.0001) > zonalWindFile='taux_sl.bin',
(PID.TID 0000.0001) > thetaClimFile='sst_sl.bin',
(PID.TID 0000.0001) > &
(PID.TID 0000.0001) 
(PID.TID 0000.0001) S/R INI_PARMS ; starts to read PARM01
(PID.TID 0000.0001) S/R INI_PARMS ; read PARM01 : OK
(PID.TID 0000.0001) S/R INI_PARMS ; starts to read PARM02
(PID.TID 0000.0001) S/R INI_PARMS ; read PARM02 : OK
(PID.TID 0000.0001) S/R INI_PARMS ; starts to read PARM03
(PID.TID 0000.0001) S/R INI_PARMS ; read PARM03 : OK
(PID.TID 0000.0001) S/R INI_PARMS ; starts to read PARM04
(PID.TID 0000.0001) S/R INI_PARMS ; read PARM04 : OK
(PID.TID 0000.0001) S/R INI_PARMS ; starts to read PARM05
(PID.TID 0000.0001) S/R INI_PARMS ; read PARM05 : OK
(PID.TID 0000.0001)  PACKAGES_BOOT: opening data.pkg
(PID.TID 0000.0001)  OPEN_COPY_DATA_FILE: opening file data.pkg
(PID.TID 0000.0001) // =======================================================
(PID.TID 0000.0001) // Parameter file "data.pkg"
(PID.TID 0000.0001) // =======================================================
(PID.TID 0000.0001) ># Packages
(PID.TID 0000.0001) > &PACKAGES
(PID.TID 0000.0001) > useGMRedi=.TRUE.,
(PID.TID 0000.0001) > useDiagnostics=.TRUE.,
(PID.TID 0000.0001) > useMNC=.TRUE.,
(PID.TID 0000.0001) > &
(PID.TID 0000.0001) >
(PID.TID 0000.0001) 
(PID.TID 0000.0001)  PACKAGES_BOOT: finished reading data.pkg
(PID.TID 0000.0001)  MNC_READPARMS: opening file 'data.mnc'
(PID.TID 0000.0001)  OPEN_COPY_DATA_FILE: opening file data.mnc
(PID.TID 0000.0001) // =======================================================
(PID.TID 0000.0001) // Parameter file "data.mnc"
(PID.TID 0000.0001) // =======================================================
(PID.TID 0000.0001) ># Example "data.mnc" file
(PID.TID 0000.0001) ># Lines beginning "#" are comments
(PID.TID 0000.0001) > &MNC_01
(PID.TID 0000.0001) ># mnc_echo_gvtypes=.FALSE.,
(PID.TID 0000.0001) ># mnc_use_indir=.FALSE.,
(PID.TID 0000.0001) > mnc_use_outdir=.TRUE.,
(PID.TID 0000.0001) > mnc_outdir_str='mnc_test_',
(PID.TID 0000.0001) >#mnc_outdir_date=.TRUE.,
(PID.TID 0000.0001) > monitor_mnc=.FALSE.,
(PID.TID 0000.0001) >#snapshot_mnc=.FALSE.,
(PID.TID 0000.0001) >#timeave_mnc=.FALSE.,
(PID.TID 0000.0001) > pickup_read_mnc=.FALSE.,
(PID.TID 0000.0001) > pickup_write_mnc=.FALSE.,
(PID.TID 0000.0001) > &
(PID.TID 0000.0001) ># Note: Some systems use & as the
(PID.TID 0000.0001) ># namelist terminator. Other systems
(PID.TID 0000.0001) ># use a / character (as shown here).
(PID.TID 0000.0001) 
(PID.TID 0000.0001)  MNC_READPARMS: finished reading data.mnc
(PID.TID 0000.0001)  GM_READPARMS: opening data.gmredi
(PID.TID 0000.0001)  OPEN_COPY_DATA_FILE: opening file data.gmredi
(PID.TID 0000.0001) // =======================================================
(PID.TID 0000.0001) // Parameter file "data.gmredi"
(PID.TID 0000.0001) // =======================================================
(PID.TID 0000.0001) ># from MOM
(PID.TID 0000.0001) ># GM_background_K: 	isopycnal diffusion coefficien
(PID.TID 0000.0001) ># GM_maxSlope:		max slope of isopycnals
(PID.TID 0000.0001) ># GM_Scrit:		transition for scaling diffusion coefficient
(PID.TID 0000.0001) ># GM_Sd:		half width scaling for diffusion coefficient
(PID.TID 0000.0001) ># real background diff:	horizontal diffusion
(PID.TID 0000.0001) >
(PID.TID 0000.0001) > &GM_PARM01
(PID.TID 0000.0001) >  GM_AdvForm=.TRUE.,
(PID.TID 0000.0001) ># GM_AdvSeparate=.TRUE.,
(PID.TID 0000.0001) ># GM_background_K=1000.,
(PID.TID 0000.0001) >  GM_background_K=10.,
(PID.TID 0000.0001) ># GM_isopycK=1000.,
(PID.TID 0000.0001) ># GM_taper_scheme    = 'clipping',
(PID.TID 0000.0001) >  GM_taper_scheme    = 'linear',
(PID.TID 0000.0001) ># GM_taper_scheme    = 'gkw91',
(PID.TID 0000.0001) ># GM_taper_scheme    = 'ldd97',
(PID.TID 0000.0001) >  GM_Small_Number    = 1.e-18,
(PID.TID 0000.0001) >  GM_maxSlope        = 1.e-2,
(PID.TID 0000.0001) >  GM_Scrit           = 4.e-3,
(PID.TID 0000.0001) >  GM_Sd              = 1.e-3,
(PID.TID 0000.0001) >  GM_Visbeck_alpha   = 1.e-2,
(PID.TID 0000.0001) >  GM_Visbeck_length  = 2.e+5,
(PID.TID 0000.0001) >  GM_Visbeck_depth   = 1.e+3,
(PID.TID 0000.0001) >  GM_Visbeck_maxval_K= 2.5e+3,
(PID.TID 0000.0001) > &
(PID.TID 0000.0001) >
(PID.TID 0000.0001) >
(PID.TID 0000.0001) 
(PID.TID 0000.0001)  GM_READPARMS: finished reading data.gmredi
(PID.TID 0000.0001)  DIAGNOSTICS_READPARMS: opening data.diagnostics
(PID.TID 0000.0001)  OPEN_COPY_DATA_FILE: opening file data.diagnostics
(PID.TID 0000.0001) // =======================================================
(PID.TID 0000.0001) // Parameter file "data.diagnostics"
(PID.TID 0000.0001) // =======================================================
(PID.TID 0000.0001) ># Diagnostic Package Choices
(PID.TID 0000.0001) >#-----------------
(PID.TID 0000.0001) ># for each output-stream:
(PID.TID 0000.0001) >#  filename(n) : prefix of the output file name (only 8.c long) for outp.stream n
(PID.TID 0000.0001) >#  frequency(n):< 0 : write snap-shot output every |frequency| seconds
(PID.TID 0000.0001) >#               > 0 : write time-average output every frequency seconds
(PID.TID 0000.0001) >#  timePhase(n)     : write at time = timePhase + multiple of |frequency|
(PID.TID 0000.0001) >#  levels(:,n) : list of levels to write to file (Notes: declared as REAL)
(PID.TID 0000.0001) >#                 when this entry is missing, select all common levels of this list
(PID.TID 0000.0001) >#  fields(:,n) : list of diagnostics fields (8.c) (see "available_diagnostics.log"
(PID.TID 0000.0001) >#                 file for the list of all available diag. in this particular config)
(PID.TID 0000.0001) >#-----------------
(PID.TID 0000.0001) > &diagnostics_list
(PID.TID 0000.0001) ># diag_mnc     = .FALSE.,
(PID.TID 0000.0001) >  frequency(1) = -864000.,
(PID.TID 0000.0001) >   filename(1) = 'surfDiag',
(PID.TID 0000.0001) >   levels(1,1) = 1.,
(PID.TID 0000.0001) >   fields(1,1) = 'ETAN    ','ETANSQ  ','DETADT2 ','PHIBOT  ','PHIBOTSQ',
(PID.TID 0000.0001) >                 'GM_VisbK',
(PID.TID 0000.0001) >   fileflags(1)= 'D       ',
(PID.TID 0000.0001) >  frequency(2) = 1728000.,
(PID.TID 0000.0001) >   filename(2) = 'dynDiag',
(PID.TID 0000.0001) ># do not specify levels => all levels are selected
(PID.TID 0000.0001) >   fields(1,2) = 'UVEL    ','VVEL    ','WVEL    ','PHIHYD  ',
(PID.TID 0000.0001) >                 'VVELMASS',
(PID.TID 0000.0001) >                 'THETA   ','VTHMASS ','WTHMASS ',
(PID.TID 0000.0001) >#                'SALT    ','USLTMASS','VSLTMASS','WSLTMASS',
(PID.TID 0000.0001) >                 'THETASQ ','UVELSQ  ',
(PID.TID 0000.0001) >                 'UV_VEL_Z','WU_VEL  ',
(PID.TID 0000.0001) >  frequency(3) = 864000.,
(PID.TID 0000.0001) >   filename(3) = 'oceDiag',
(PID.TID 0000.0001) >   levels(1,3) = 2., 3., 4., 5., 6., 7., 8., 9., 10., 11., 12., 13.,
(PID.TID 0000.0001) >   fields(1,3) = 'DRHODR  ','RHOAnoma',
(PID.TID 0000.0001) >                 'GM_PsiY ','GM_Kvy  ','GM_Kvz  ','GM_Kwy  ','GM_Kwz  ',
(PID.TID 0000.0001) >  frequency(4) = 1728000.,
(PID.TID 0000.0001) >   filename(4) = 'flxDiag',
(PID.TID 0000.0001) >   fields(1,4) = 'ADVy_TH ','ADVr_TH ',
(PID.TID 0000.0001) >                 'DFyE_TH ','DFrE_TH ',
(PID.TID 0000.0001) >                 'DFrI_TH ',
(PID.TID 0000.0001) >#                'ADVx_SLT',
(PID.TID 0000.0001) > &
(PID.TID 0000.0001) >
(PID.TID 0000.0001) ># Parameter for Diagnostics of per level statistics:
(PID.TID 0000.0001) >#-----------------
(PID.TID 0000.0001) ># for each output-stream:
(PID.TID 0000.0001) >#  stat_fname(n) : prefix of the output file name (only 8.c long) for outp.stream n
(PID.TID 0000.0001) >#  stat_freq(n):< 0 : write snap-shot output every |stat_freq| seconds
(PID.TID 0000.0001) >#               > 0 : write time-average output every stat_freq seconds
(PID.TID 0000.0001) >#  stat_phase(n)    : write at time = stat_phase + multiple of |stat_freq|
(PID.TID 0000.0001) >#  stat_region(:,n) : list of "regions" (default: 1 region only=global)
(PID.TID 0000.0001) >#  stat_fields(:,n) : list of diagnostics fields (8.c) (see "available_diagnostics.log"
(PID.TID 0000.0001) >#                 file for the list of all available diag. in this particular config)
(PID.TID 0000.0001) >#-----------------
(PID.TID 0000.0001) > &DIAG_STATIS_PARMS
(PID.TID 0000.0001) ># an example just to check the agreement with MONITOR output:
(PID.TID 0000.0001) > stat_fields(1,1)= 'ETAN    ','UVEL    ','VVEL    ','WVEL    ', 'THETA   ',
(PID.TID 0000.0001) >    stat_fname(1)= 'dynStDiag',
(PID.TID 0000.0001) >     stat_freq(1)= -864000.,
(PID.TID 0000.0001) >    stat_phase(1)= 0.,
(PID.TID 0000.0001) > &
(PID.TID 0000.0001) >
(PID.TID 0000.0001) 
(PID.TID 0000.0001) S/R DIAGNOSTICS_READPARMS, read namelist "diagnostics_list": start
(PID.TID 0000.0001) S/R DIAGNOSTICS_READPARMS, read namelist "diagnostics_list": OK
(PID.TID 0000.0001) S/R DIAGNOSTICS_READPARMS, read namelist "DIAG_STATIS_PARMS": start
(PID.TID 0000.0001) S/R DIAGNOSTICS_READPARMS, read namelist "DIAG_STATIS_PARMS": OK
(PID.TID 0000.0001) -----------------------------------------------------
(PID.TID 0000.0001)  DIAGNOSTICS_READPARMS: active diagnostics summary:
(PID.TID 0000.0001) -----------------------------------------------------
(PID.TID 0000.0001) Creating Output Stream: surfDiag
(PID.TID 0000.0001) Output Frequency:    -864000.000000 ; Phase:      432000.000000
(PID.TID 0000.0001)  Averaging Freq.:          0.000000 , Phase:           0.000000 , Cycle:   1
(PID.TID 0000.0001)  missing value:  1.234567000000E+05 ; for integers:   123456789
(PID.TID 0000.0001)  Levels:       1.
(PID.TID 0000.0001)  Fields:    ETAN     ETANSQ   DETADT2  PHIBOT   PHIBOTSQ GM_VisbK
(PID.TID 0000.0001) Creating Output Stream: dynDiag
(PID.TID 0000.0001) Output Frequency:    1728000.000000 ; Phase:           0.000000
(PID.TID 0000.0001)  Averaging Freq.:    1728000.000000 , Phase:           0.000000 , Cycle:   1
(PID.TID 0000.0001)  missing value:  1.234567000000E+05 ; for integers:   123456789
(PID.TID 0000.0001)  Levels:    will be set later
(PID.TID 0000.0001)  Fields:    UVEL     VVEL     WVEL     PHIHYD   VVELMASS THETA    VTHMASS  WTHMASS  THETASQ  UVELSQ
(PID.TID 0000.0001)  Fields:    UV_VEL_Z WU_VEL
(PID.TID 0000.0001) Creating Output Stream: oceDiag
(PID.TID 0000.0001) Output Frequency:     864000.000000 ; Phase:           0.000000
(PID.TID 0000.0001)  Averaging Freq.:     864000.000000 , Phase:           0.000000 , Cycle:   1
(PID.TID 0000.0001)  missing value:  1.234567000000E+05 ; for integers:   123456789
(PID.TID 0000.0001)  Levels:       2.   3.   4.   5.   6.   7.   8.   9.  10.  11.  12.  13.
(PID.TID 0000.0001)  Fields:    DRHODR   RHOAnoma GM_PsiY  GM_Kvy   GM_Kvz   GM_Kwy   GM_Kwz
(PID.TID 0000.0001) Creating Output Stream: flxDiag
(PID.TID 0000.0001) Output Frequency:    1728000.000000 ; Phase:           0.000000
(PID.TID 0000.0001)  Averaging Freq.:    1728000.000000 , Phase:           0.000000 , Cycle:   1
(PID.TID 0000.0001)  missing value:  1.234567000000E+05 ; for integers:   123456789
(PID.TID 0000.0001)  Levels:    will be set later
(PID.TID 0000.0001)  Fields:    ADVy_TH  ADVr_TH  DFyE_TH  DFrE_TH  DFrI_TH
(PID.TID 0000.0001) -----------------------------------------------------
(PID.TID 0000.0001)  DIAGNOSTICS_READPARMS: statistics diags. summary:
(PID.TID 0000.0001) Creating Stats. Output Stream: dynStDiag
(PID.TID 0000.0001) Output Frequency:    -864000.000000 ; Phase:           0.000000
(PID.TID 0000.0001)  Regions:   0
(PID.TID 0000.0001)  Fields:    ETAN     UVEL     VVEL     WVEL     THETA
(PID.TID 0000.0001) -----------------------------------------------------
(PID.TID 0000.0001) 
(PID.TID 0000.0001) SET_PARMS: done
(PID.TID 0000.0001) Enter INI_VERTICAL_GRID: setInterFDr=    F ; setCenterDr=    T
(PID.TID 0000.0001) %MON XC_max                       =   1.5000000000000E+00
(PID.TID 0000.0001) %MON XC_min                       =   1.5000000000000E+00
(PID.TID 0000.0001) %MON XC_mean                      =   1.5000000000000E+00
(PID.TID 0000.0001) %MON XC_sd                        =   0.0000000000000E+00
(PID.TID 0000.0001) %MON XG_max                       =   0.0000000000000E+00
(PID.TID 0000.0001) %MON XG_min                       =   0.0000000000000E+00
(PID.TID 0000.0001) %MON XG_mean                      =   0.0000000000000E+00
(PID.TID 0000.0001) %MON XG_sd                        =   0.0000000000000E+00
(PID.TID 0000.0001) %MON DXC_max                      =   3.3341812682592E+05
(PID.TID 0000.0001) %MON DXC_min                      =   4.3534716771864E+04
(PID.TID 0000.0001) %MON DXC_mean                     =   2.2627957857351E+05
(PID.TID 0000.0001) %MON DXC_sd                       =   9.1462046601761E+04
(PID.TID 0000.0001) %MON DXF_max                      =   3.3341812682592E+05
(PID.TID 0000.0001) %MON DXF_min                      =   4.3534716771864E+04
(PID.TID 0000.0001) %MON DXF_mean                     =   2.2627957857351E+05
(PID.TID 0000.0001) %MON DXF_sd                       =   9.1462046601761E+04
(PID.TID 0000.0001) %MON DXG_max                      =   3.3353242005612E+05
(PID.TID 0000.0001) %MON DXG_min                      =   3.4863631318407E+04
(PID.TID 0000.0001) %MON DXG_mean                     =   2.2620203821339E+05
(PID.TID 0000.0001) %MON DXG_sd                       =   9.1624145029333E+04
(PID.TID 0000.0001) %MON DXV_max                      =   3.3353242005612E+05
(PID.TID 0000.0001) %MON DXV_min                      =   3.4863631318407E+04
(PID.TID 0000.0001) %MON DXV_mean                     =   2.2620203821339E+05
(PID.TID 0000.0001) %MON DXV_sd                       =   9.1624145029333E+04
(PID.TID 0000.0001) %MON YC_max                       =   8.2500000000000E+01
(PID.TID 0000.0001) %MON YC_min                       =  -8.2500000000000E+01
(PID.TID 0000.0001) %MON YC_mean                      =   0.0000000000000E+00
(PID.TID 0000.0001) %MON YC_sd                        =   4.8489689625734E+01
(PID.TID 0000.0001) %MON YG_max                       =   8.1000000000000E+01
(PID.TID 0000.0001) %MON YG_min                       =  -8.4000000000000E+01
(PID.TID 0000.0001) %MON YG_mean                      =  -1.5000000000000E+00
(PID.TID 0000.0001) %MON YG_sd                        =   4.8489689625734E+01
(PID.TID 0000.0001) %MON DYC_max                      =   3.3353242005612E+05
(PID.TID 0000.0001) %MON DYC_min                      =   3.3353242005612E+05
(PID.TID 0000.0001) %MON DYC_mean                     =   3.3353242005612E+05
(PID.TID 0000.0001) %MON DYC_sd                       =   0.0000000000000E+00
(PID.TID 0000.0001) %MON DYF_max                      =   3.3353242005612E+05
(PID.TID 0000.0001) %MON DYF_min                      =   3.3353242005612E+05
(PID.TID 0000.0001) %MON DYF_mean                     =   3.3353242005612E+05
(PID.TID 0000.0001) %MON DYF_sd                       =   0.0000000000000E+00
(PID.TID 0000.0001) %MON DYG_max                      =   3.3353242005612E+05
(PID.TID 0000.0001) %MON DYG_min                      =   3.3353242005612E+05
(PID.TID 0000.0001) %MON DYG_mean                     =   3.3353242005612E+05
(PID.TID 0000.0001) %MON DYG_sd                       =   0.0000000000000E+00
(PID.TID 0000.0001) %MON DYU_max                      =   3.3353242005612E+05
(PID.TID 0000.0001) %MON DYU_min                      =   3.3353242005612E+05
(PID.TID 0000.0001) %MON DYU_mean                     =   3.3353242005612E+05
(PID.TID 0000.0001) %MON DYU_sd                       =   0.0000000000000E+00
(PID.TID 0000.0001) %MON RA_max                       =   1.1119305196237E+11
(PID.TID 0000.0001) %MON RA_min                       =   1.4518580829015E+10
(PID.TID 0000.0001) %MON RA_mean                      =   7.5462954512622E+10
(PID.TID 0000.0001) %MON RA_sd                        =   3.0502073169179E+10
(PID.TID 0000.0001) %MON RAW_max                      =   1.1119305196237E+11
(PID.TID 0000.0001) %MON RAW_min                      =   1.4518580829015E+10
(PID.TID 0000.0001) %MON RAW_mean                     =   7.5462954512622E+10
(PID.TID 0000.0001) %MON RAW_sd                       =   3.0502073169179E+10
(PID.TID 0000.0001) %MON RAS_max                      =   1.1123116810562E+11
(PID.TID 0000.0001) %MON RAS_min                      =   1.1626823069547E+10
(PID.TID 0000.0001) %MON RAS_mean                     =   7.5437095242840E+10
(PID.TID 0000.0001) %MON RAS_sd                       =   3.0556132074289E+10
(PID.TID 0000.0001) %MON RAZ_max                      =   1.1123116810562E+11
(PID.TID 0000.0001) %MON RAZ_min                      =   1.1626823069547E+10
(PID.TID 0000.0001) %MON RAZ_mean                     =   7.5437095242840E+10
(PID.TID 0000.0001) %MON RAZ_sd                       =   3.0556132074289E+10
(PID.TID 0000.0001) %MON AngleCS_max                  =   1.0000000000000E+00
(PID.TID 0000.0001) %MON AngleCS_min                  =   1.0000000000000E+00
(PID.TID 0000.0001) %MON AngleCS_mean                 =   1.0000000000000E+00
(PID.TID 0000.0001) %MON AngleCS_sd                   =   0.0000000000000E+00
(PID.TID 0000.0001) %MON AngleSN_max                  =   0.0000000000000E+00
(PID.TID 0000.0001) %MON AngleSN_min                  =   0.0000000000000E+00
(PID.TID 0000.0001) %MON AngleSN_mean                 =   0.0000000000000E+00
(PID.TID 0000.0001) %MON AngleSN_sd                   =   0.0000000000000E+00
(PID.TID 0000.0001)  MDS_READ_FIELD: opening global file: topo_sl.bin
(PID.TID 0000.0001) // =======================================================
(PID.TID 0000.0001) // Field Model R_low (ini_masks_etc) at iteration          1
(PID.TID 0000.0001) // CMIN =         -5.200000000000000E+03
(PID.TID 0000.0001) // CMAX =         -5.200000000000000E+03
(PID.TID 0000.0001) // CINT =          0.000000000000000E+00
(PID.TID 0000.0001) // SYMBOLS (CMIN->CMAX): -abcdefghijklmnopqrstuvwxyz+
(PID.TID 0000.0001) //                  0.0: .
(PID.TID 0000.0001) // RANGE I (Lo:Hi:Step):(  -2:   4:   1)
(PID.TID 0000.0001) // RANGE J (Lo:Hi:Step):(  59:  -2:  -1)
(PID.TID 0000.0001) // RANGE K (Lo:Hi:Step):(   1:   1:   1)
(PID.TID 0000.0001) // =======================================================
(PID.TID 0000.0001) // =======================================================
(PID.TID 0000.0001) // END OF FIELD                                          =
(PID.TID 0000.0001) // =======================================================
(PID.TID 0000.0001) 
(PID.TID 0000.0001) // =======================================================
(PID.TID 0000.0001) // Field Model Ro_surf (ini_masks_etc) at iteration          1
(PID.TID 0000.0001) // CMIN =          1.000000000000000E+32
(PID.TID 0000.0001) // CMAX =         -1.000000000000000E+32
(PID.TID 0000.0001) // CINT =          0.000000000000000E+00
(PID.TID 0000.0001) // SYMBOLS (CMIN->CMAX): -abcdefghijklmnopqrstuvwxyz+
(PID.TID 0000.0001) //                  0.0: .
(PID.TID 0000.0001) // RANGE I (Lo:Hi:Step):(  -2:   4:   1)
(PID.TID 0000.0001) // RANGE J (Lo:Hi:Step):(  59:  -2:  -1)
(PID.TID 0000.0001) // RANGE K (Lo:Hi:Step):(   1:   1:   1)
(PID.TID 0000.0001) // =======================================================
(PID.TID 0000.0001) // =======================================================
(PID.TID 0000.0001) // END OF FIELD                                          =
(PID.TID 0000.0001) // =======================================================
(PID.TID 0000.0001) 
(PID.TID 0000.0001) // =======================================================
(PID.TID 0000.0001) // Field hFacC at iteration          1
(PID.TID 0000.0001) // CMIN =          1.000000000000000E+00
(PID.TID 0000.0001) // CMAX =          1.000000000000000E+00
(PID.TID 0000.0001) // CINT =          0.000000000000000E+00
(PID.TID 0000.0001) // SYMBOLS (CMIN->CMAX): -abcdefghijklmnopqrstuvwxyz+
(PID.TID 0000.0001) //                  0.0: .
(PID.TID 0000.0001) // RANGE I (Lo:Hi:Step):(  -2:   4:   1)
(PID.TID 0000.0001) // RANGE J (Lo:Hi:Step):(  59:  -2:  -1)
(PID.TID 0000.0001) // RANGE K (Lo:Hi:Step):(   1:   1:   1)
(PID.TID 0000.0001) // =======================================================
(PID.TID 0000.0001) // =======================================================
(PID.TID 0000.0001) // END OF FIELD                                          =
(PID.TID 0000.0001) // =======================================================
(PID.TID 0000.0001) 
(PID.TID 0000.0001) // =======================================================
(PID.TID 0000.0001) // Field hFacW at iteration          1
(PID.TID 0000.0001) // CMIN =          1.000000000000000E+00
(PID.TID 0000.0001) // CMAX =          1.000000000000000E+00
(PID.TID 0000.0001) // CINT =          0.000000000000000E+00
(PID.TID 0000.0001) // SYMBOLS (CMIN->CMAX): -abcdefghijklmnopqrstuvwxyz+
(PID.TID 0000.0001) //                  0.0: .
(PID.TID 0000.0001) // RANGE I (Lo:Hi:Step):(  -2:   4:   1)
(PID.TID 0000.0001) // RANGE J (Lo:Hi:Step):(  59:  -2:  -1)
(PID.TID 0000.0001) // RANGE K (Lo:Hi:Step):(   1:   1:   1)
(PID.TID 0000.0001) // =======================================================
(PID.TID 0000.0001) // =======================================================
(PID.TID 0000.0001) // END OF FIELD                                          =
(PID.TID 0000.0001) // =======================================================
(PID.TID 0000.0001) 
(PID.TID 0000.0001) // =======================================================
(PID.TID 0000.0001) // Field hFacS at iteration          1
(PID.TID 0000.0001) // CMIN =          1.000000000000000E+00
(PID.TID 0000.0001) // CMAX =          1.000000000000000E+00
(PID.TID 0000.0001) // CINT =          0.000000000000000E+00
(PID.TID 0000.0001) // SYMBOLS (CMIN->CMAX): -abcdefghijklmnopqrstuvwxyz+
(PID.TID 0000.0001) //                  0.0: .
(PID.TID 0000.0001) // RANGE I (Lo:Hi:Step):(  -2:   4:   1)
(PID.TID 0000.0001) // RANGE J (Lo:Hi:Step):(  59:  -2:  -1)
(PID.TID 0000.0001) // RANGE K (Lo:Hi:Step):(   1:   1:   1)
(PID.TID 0000.0001) // =======================================================
(PID.TID 0000.0001) // =======================================================
(PID.TID 0000.0001) // END OF FIELD                                          =
(PID.TID 0000.0001) // =======================================================
(PID.TID 0000.0001) 
(PID.TID 0000.0001) 
(PID.TID 0000.0001) // ===================================
(PID.TID 0000.0001) // GAD parameters :
(PID.TID 0000.0001) // ===================================
(PID.TID 0000.0001) tempAdvScheme =   /* Temp. Horiz.Advection scheme selector */
(PID.TID 0000.0001)                      77
(PID.TID 0000.0001)     ;
(PID.TID 0000.0001) tempVertAdvScheme =   /* Temp. Vert. Advection scheme selector */
(PID.TID 0000.0001)                      77
(PID.TID 0000.0001)     ;
(PID.TID 0000.0001) tempMultiDimAdvec =   /* use Muti-Dim Advec method for Temp */
(PID.TID 0000.0001)                   T
(PID.TID 0000.0001)     ;
(PID.TID 0000.0001) tempSOM_Advection = /* use 2nd Order Moment Advection for Temp */
(PID.TID 0000.0001)                   F
(PID.TID 0000.0001)     ;
(PID.TID 0000.0001) AdamsBashforthGt = /* apply Adams-Bashforth extrapolation on Gt */
(PID.TID 0000.0001)                   F
(PID.TID 0000.0001)     ;
(PID.TID 0000.0001) AdamsBashforth_T = /* apply Adams-Bashforth extrapolation on Temp */
(PID.TID 0000.0001)                   F
(PID.TID 0000.0001)     ;
(PID.TID 0000.0001) saltAdvScheme =   /* Salt. Horiz.advection scheme selector */
(PID.TID 0000.0001)                       2
(PID.TID 0000.0001)     ;
(PID.TID 0000.0001) saltVertAdvScheme =   /* Salt. Vert. Advection scheme selector */
(PID.TID 0000.0001)                       2
(PID.TID 0000.0001)     ;
(PID.TID 0000.0001) saltMultiDimAdvec =   /* use Muti-Dim Advec method for Salt */
(PID.TID 0000.0001)                   F
(PID.TID 0000.0001)     ;
(PID.TID 0000.0001) saltSOM_Advection = /* use 2nd Order Moment Advection for Salt */
(PID.TID 0000.0001)                   F
(PID.TID 0000.0001)     ;
(PID.TID 0000.0001) AdamsBashforthGs = /* apply Adams-Bashforth extrapolation on Gs */
(PID.TID 0000.0001)                   F
(PID.TID 0000.0001)     ;
(PID.TID 0000.0001) AdamsBashforth_S = /* apply Adams-Bashforth extrapolation on Salt */
(PID.TID 0000.0001)                   F
(PID.TID 0000.0001)     ;
(PID.TID 0000.0001) // ===================================
(PID.TID 0000.0001) ------------------------------------------------------------
(PID.TID 0000.0001) DIAGNOSTICS_SET_LEVELS: done
(PID.TID 0000.0001)  Total Nb of available Diagnostics: ndiagt=   187
(PID.TID 0000.0001)  write list of available Diagnostics to file: available_diagnostics.log
(PID.TID 0000.0001) SETDIAG: Allocate  1 x  1 Levels for Diagnostic #    23 ETAN
(PID.TID 0000.0001) SETDIAG: Allocate  1 x  1 Levels for Diagnostic #    24 ETANSQ
(PID.TID 0000.0001) SETDIAG: Allocate  1 x  1 Levels for Diagnostic #    25 DETADT2
(PID.TID 0000.0001) SETDIAG: Allocate  1 x  1 Levels for Diagnostic #    69 PHIBOT
(PID.TID 0000.0001) SETDIAG: Allocate  1 x  1 Levels for Diagnostic #    70 PHIBOTSQ
(PID.TID 0000.0001) SETDIAG: Allocate  1 x  1 Levels for Diagnostic #   171 GM_VisbK
(PID.TID 0000.0001) SETDIAG: Allocate 15 x  1 Levels for Diagnostic #    30 UVEL
(PID.TID 0000.0001) SETDIAG: Allocate 15 x  1 Levels for Diagnostic #    31 VVEL
(PID.TID 0000.0001) SETDIAG: Allocate 15 x  1 Levels for Diagnostic #    32 WVEL
(PID.TID 0000.0001) SETDIAG: Allocate 15 x  1 Levels for Diagnostic #    67 PHIHYD
(PID.TID 0000.0001) SETDIAG: Allocate 15 x  1 Levels for Diagnostic #    46 VVELMASS
(PID.TID 0000.0001) SETDIAG: Allocate 15 x  1 Levels for Diagnostic #    26 THETA
(PID.TID 0000.0001) SETDIAG: Allocate 15 x  1 Levels for Diagnostic #    49 VTHMASS
(PID.TID 0000.0001) SETDIAG: Allocate 15 x  1 Levels for Diagnostic #    50 WTHMASS
(PID.TID 0000.0001) SETDIAG: Allocate 15 x  1 Levels for Diagnostic #    33 THETASQ
(PID.TID 0000.0001) SETDIAG: Allocate 15 x  1 Levels for Diagnostic #    36 UVELSQ
(PID.TID 0000.0001) SETDIAG: Allocate 15 x  1 Levels for Diagnostic #    42 UV_VEL_Z
(PID.TID 0000.0001) SETDIAG: Allocate 15 x  1 Levels for Diagnostic #    43 WU_VEL
(PID.TID 0000.0001) SETDIAG: Allocate 15 x  1 Levels for Diagnostic #    72 DRHODR
(PID.TID 0000.0001) SETDIAG: Allocate 15 x  1 Levels for Diagnostic #    62 RHOAnoma
(PID.TID 0000.0001) SETDIAG: Allocate 15 x  1 Levels for Diagnostic #   183 GM_PsiY
(PID.TID 0000.0001) SETDIAG: Allocate 15 x  1 Levels for Diagnostic #   176 GM_Kvy
(PID.TID 0000.0001) SETDIAG: Allocate 15 x  1 Levels for Diagnostic #   178 GM_Kvz
(PID.TID 0000.0001) SETDIAG: Allocate 15 x  1 Levels for Diagnostic #   180 GM_Kwy
(PID.TID 0000.0001) SETDIAG: Allocate 15 x  1 Levels for Diagnostic #   181 GM_Kwz
(PID.TID 0000.0001) SETDIAG: Allocate 15 x  1 Levels for Diagnostic #    97 ADVy_TH
(PID.TID 0000.0001) SETDIAG: Allocate 15 x  1 Levels for Diagnostic #    95 ADVr_TH
(PID.TID 0000.0001) SETDIAG: Allocate 15 x  1 Levels for Diagnostic #   100 DFyE_TH
(PID.TID 0000.0001) SETDIAG: Allocate 15 x  1 Levels for Diagnostic #    98 DFrE_TH
(PID.TID 0000.0001) SETDIAG: Allocate 15 x  1 Levels for Diagnostic #   101 DFrI_TH
(PID.TID 0000.0001)   space allocated for all diagnostics:     366 levels
(PID.TID 0000.0001)   set mate pointer for diag #    30  UVEL     , Parms: UU      MR , mate:    31
(PID.TID 0000.0001)   set mate pointer for diag #    31  VVEL     , Parms: VV      MR , mate:    30
(PID.TID 0000.0001)   set mate pointer for diag #    42  UV_VEL_Z , Parms: UZ      MR , mate:    42
(PID.TID 0000.0001) DIAGNOSTICS_SET_POINTERS: Set levels for Outp.Stream: dynDiag
(PID.TID 0000.0001)  Levels:       1.   2.   3.   4.   5.   6.   7.   8.   9.  10.  11.  12.  13.  14.  15.
(PID.TID 0000.0001) DIAGNOSTICS_SET_POINTERS: Set levels for Outp.Stream: flxDiag
(PID.TID 0000.0001)  Levels:       1.   2.   3.   4.   5.   6.   7.   8.   9.  10.  11.  12.  13.  14.  15.
(PID.TID 0000.0001) DIAGNOSTICS_SET_POINTERS: done
(PID.TID 0000.0001) ------------------------------------------------------------
(PID.TID 0000.0001) DIAGSTATS_SET_REGIONS: define no region
(PID.TID 0000.0001) ------------------------------------------------------------
(PID.TID 0000.0001) SETDIAG: Allocate  1 Levels for Stats-Diag #    23 ETAN
(PID.TID 0000.0001) SETDIAG: Allocate 15 Levels for Stats-Diag #    30 UVEL
(PID.TID 0000.0001) SETDIAG: Allocate 15 Levels for Stats-Diag #    31 VVEL
(PID.TID 0000.0001) SETDIAG: Allocate 15 Levels for Stats-Diag #    32 WVEL
(PID.TID 0000.0001) SETDIAG: Allocate 15 Levels for Stats-Diag #    26 THETA
(PID.TID 0000.0001)   space allocated for all stats-diags:      61 levels
(PID.TID 0000.0001) DIAGSTATS_SET_POINTERS: done
(PID.TID 0000.0001) ------------------------------------------------------------
(PID.TID 0000.0001) %MON fCori_max                    =   1.4419980985793E-04
(PID.TID 0000.0001) %MON fCori_min                    =  -1.4419980985793E-04
(PID.TID 0000.0001) %MON fCori_mean                   =   7.7443012320393E-21
(PID.TID 0000.0001) %MON fCori_sd                     =   9.9129524406610E-05
(PID.TID 0000.0001) %MON fCoriG_max                   =   1.4365344605787E-04
(PID.TID 0000.0001) %MON fCoriG_min                   =  -1.4464734631126E-04
(PID.TID 0000.0001) %MON fCoriG_mean                  =  -2.5829883269867E-06
(PID.TID 0000.0001) %MON fCoriG_sd                    =   9.9101054904195E-05
(PID.TID 0000.0001) %MON fCoriCos_max                 =   1.4539426427085E-04
(PID.TID 0000.0001) %MON fCoriCos_min                 =   1.8984265119424E-05
(PID.TID 0000.0001) %MON fCoriCos_mean                =   9.8674157759248E-05
(PID.TID 0000.0001) %MON fCoriCos_sd                  =   3.9884025205722E-05
(PID.TID 0000.0001) INI_CG2D: CG2D normalisation factor =  3.5045293363874508E-05
(PID.TID 0000.0001) INI_CG2D: cg2dTolerance = 1.225676511460127E-12 (Area=4.1968882910E+12)
(PID.TID 0000.0001) 
(PID.TID 0000.0001) // =======================================================
(PID.TID 0000.0001) // Model configuration
(PID.TID 0000.0001) // =======================================================
(PID.TID 0000.0001) //
(PID.TID 0000.0001) // "Physical" paramters ( PARM01 in namelist )
(PID.TID 0000.0001) //
(PID.TID 0000.0001) buoyancyRelation = /* Type of relation to get Buoyancy */
(PID.TID 0000.0001)               'OCEANIC'
(PID.TID 0000.0001)     ;
(PID.TID 0000.0001) fluidIsAir  =  /* fluid major constituent is Air */
(PID.TID 0000.0001)                   F
(PID.TID 0000.0001)     ;
(PID.TID 0000.0001) fluidIsWater=  /* fluid major constituent is Water */
(PID.TID 0000.0001)                   T
(PID.TID 0000.0001)     ;
(PID.TID 0000.0001) usingPCoords =  /* use p (or p*) vertical coordinate */
(PID.TID 0000.0001)                   F
(PID.TID 0000.0001)     ;
(PID.TID 0000.0001) usingZCoords =  /* use z (or z*) vertical coordinate */
(PID.TID 0000.0001)                   T
(PID.TID 0000.0001)     ;
(PID.TID 0000.0001) tRef =   /* Reference temperature profile ( oC or K ) */
(PID.TID 0000.0001)                 1.880000000000000E+01,      /* K =  1 */
(PID.TID 0000.0001)                 1.630000000000000E+01,      /* K =  2 */
(PID.TID 0000.0001)                 1.310000000000000E+01,      /* K =  3 */
(PID.TID 0000.0001)                 1.040000000000000E+01,      /* K =  4 */
(PID.TID 0000.0001)                 8.100000000000000E+00,      /* K =  5 */
(PID.TID 0000.0001)                 6.000000000000000E+00,      /* K =  6 */
(PID.TID 0000.0001)                 4.500000000000000E+00,      /* K =  7 */
(PID.TID 0000.0001)                 3.400000000000000E+00,      /* K =  8 */
(PID.TID 0000.0001)                 2.700000000000000E+00,      /* K =  9 */
(PID.TID 0000.0001)                 2.200000000000000E+00,      /* K = 10 */
(PID.TID 0000.0001)                 1.800000000000000E+00,      /* K = 11 */
(PID.TID 0000.0001)                 1.500000000000000E+00,      /* K = 12 */
(PID.TID 0000.0001)                 1.200000000000000E+00,      /* K = 13 */
(PID.TID 0000.0001)                 1.000000000000000E+00,      /* K = 14 */
(PID.TID 0000.0001)                 9.000000000000000E-01       /* K = 15 */
(PID.TID 0000.0001)     ;
(PID.TID 0000.0001) sRef =   /* Reference salinity profile ( psu ) */
(PID.TID 0000.0001)    15 @  3.470000000000000E+01              /* K =  1: 15 */
(PID.TID 0000.0001)     ;
(PID.TID 0000.0001) viscAh =   /* Lateral eddy viscosity ( m^2/s ) */
(PID.TID 0000.0001)                 1.200000000000000E+06
(PID.TID 0000.0001)     ;
(PID.TID 0000.0001) viscAhMax =   /* Maximum lateral eddy viscosity ( m^2/s ) */
(PID.TID 0000.0001)                 1.000000000000000E+21
(PID.TID 0000.0001)     ;
(PID.TID 0000.0001) viscAhGrid =   /* Grid dependent lateral eddy viscosity ( non-dim. ) */
(PID.TID 0000.0001)                 0.000000000000000E+00
(PID.TID 0000.0001)     ;
(PID.TID 0000.0001) useFullLeith =   /* Use Full Form of Leith Viscosity on/off flag*/
(PID.TID 0000.0001)                   F
(PID.TID 0000.0001)     ;
(PID.TID 0000.0001) useStrainTensionVisc =   /* Use StrainTension Form of Viscous Operator on/off flag*/
(PID.TID 0000.0001)                   F
(PID.TID 0000.0001)     ;
(PID.TID 0000.0001) useAreaViscLength =   /* Use area for visc length instead of geom. mean*/
(PID.TID 0000.0001)                   F
(PID.TID 0000.0001)     ;
(PID.TID 0000.0001) viscC2leith = /* Leith harmonic visc. factor (on grad(vort),non-dim.) */
(PID.TID 0000.0001)                 0.000000000000000E+00
(PID.TID 0000.0001)     ;
(PID.TID 0000.0001) viscC2leithD = /* Leith harmonic viscosity factor (on grad(div),non-dim.) */
(PID.TID 0000.0001)                 0.000000000000000E+00
(PID.TID 0000.0001)     ;
(PID.TID 0000.0001) viscC2smag =   /* Smagorinsky harmonic viscosity factor (non-dim.) */
(PID.TID 0000.0001)                 0.000000000000000E+00
(PID.TID 0000.0001)     ;
(PID.TID 0000.0001) viscA4 =   /* Lateral biharmonic viscosity ( m^4/s ) */
(PID.TID 0000.0001)                 0.000000000000000E+00
(PID.TID 0000.0001)     ;
(PID.TID 0000.0001) viscA4Max =   /* Maximum biharmonic viscosity ( m^2/s ) */
(PID.TID 0000.0001)                 1.000000000000000E+21
(PID.TID 0000.0001)     ;
(PID.TID 0000.0001) viscA4Grid =   /* Grid dependent biharmonic viscosity ( non-dim. ) */
(PID.TID 0000.0001)                 0.000000000000000E+00
(PID.TID 0000.0001)     ;
(PID.TID 0000.0001) viscC4leith = /* Leith biharm viscosity factor (on grad(vort), non-dim.) */
(PID.TID 0000.0001)                 0.000000000000000E+00
(PID.TID 0000.0001)     ;
(PID.TID 0000.0001) viscC4leithD = /* Leith biharm viscosity factor (on grad(div), non-dim.) */
(PID.TID 0000.0001)                 0.000000000000000E+00
(PID.TID 0000.0001)     ;
(PID.TID 0000.0001) viscC4Smag = /* Smagorinsky biharm viscosity factor (non-dim) */
(PID.TID 0000.0001)                 0.000000000000000E+00
(PID.TID 0000.0001)     ;
(PID.TID 0000.0001) no_slip_sides =  /* Viscous BCs: No-slip sides */
(PID.TID 0000.0001)                   F
(PID.TID 0000.0001)     ;
(PID.TID 0000.0001) sideDragFactor = /* side-drag scaling factor (non-dim) */
(PID.TID 0000.0001)                 2.000000000000000E+00
(PID.TID 0000.0001)     ;
(PID.TID 0000.0001) viscAr =   /* Vertical eddy viscosity ( m^2/s ) */
(PID.TID 0000.0001)                 1.000000000000000E-03
(PID.TID 0000.0001)     ;
(PID.TID 0000.0001) no_slip_bottom =  /* Viscous BCs: No-slip bottom */
(PID.TID 0000.0001)                   T
(PID.TID 0000.0001)     ;
(PID.TID 0000.0001) bottomDragLinear = /* linear bottom-drag coefficient ( m/s ) */
(PID.TID 0000.0001)                 1.000000000000000E-03
(PID.TID 0000.0001)     ;
(PID.TID 0000.0001) bottomDragQuadratic = /* quadratic bottom-drag coefficient (-) */
(PID.TID 0000.0001)                 0.000000000000000E+00
(PID.TID 0000.0001)     ;
(PID.TID 0000.0001) diffKhT =   /* Laplacian diffusion of heat laterally ( m^2/s ) */
(PID.TID 0000.0001)                 0.000000000000000E+00
(PID.TID 0000.0001)     ;
(PID.TID 0000.0001) diffK4T =   /* Biharmonic diffusion of heat laterally ( m^4/s ) */
(PID.TID 0000.0001)                 0.000000000000000E+00
(PID.TID 0000.0001)     ;
(PID.TID 0000.0001) diffKhS =   /* Laplacian diffusion of salt laterally ( m^2/s ) */
(PID.TID 0000.0001)                 0.000000000000000E+00
(PID.TID 0000.0001)     ;
(PID.TID 0000.0001) diffK4S =   /* Biharmonic diffusion of salt laterally ( m^4/s ) */
(PID.TID 0000.0001)                 0.000000000000000E+00
(PID.TID 0000.0001)     ;
(PID.TID 0000.0001) diffKrNrT = /* vertical profile of vertical diffusion of Temp ( m^2/s )*/
(PID.TID 0000.0001)                 1.000000000000000E-04,      /* K =  1 */
(PID.TID 0000.0001)    14 @  1.000000000000000E-05              /* K =  2: 15 */
(PID.TID 0000.0001)     ;
(PID.TID 0000.0001) diffKrNrS = /* vertical profile of vertical diffusion of Salt ( m^2/s )*/
(PID.TID 0000.0001)    15 @  0.000000000000000E+00              /* K =  1: 15 */
(PID.TID 0000.0001)     ;
(PID.TID 0000.0001) diffKrBL79surf = /* Surface diffusion for Bryan and Lewis 79 ( m^2/s ) */
(PID.TID 0000.0001)                 0.000000000000000E+00
(PID.TID 0000.0001)     ;
(PID.TID 0000.0001) diffKrBL79deep = /* Deep diffusion for Bryan and Lewis 1979 ( m^2/s ) */
(PID.TID 0000.0001)                 0.000000000000000E+00
(PID.TID 0000.0001)     ;
(PID.TID 0000.0001) diffKrBL79scl = /* Depth scale for Bryan and Lewis 1979 ( m ) */
(PID.TID 0000.0001)                 2.000000000000000E+02
(PID.TID 0000.0001)     ;
(PID.TID 0000.0001) diffKrBL79Ho = /* Turning depth for Bryan and Lewis 1979 ( m ) */
(PID.TID 0000.0001)                -2.000000000000000E+03
(PID.TID 0000.0001)     ;
(PID.TID 0000.0001) ivdc_kappa = /* Implicit Vertical Diffusivity for Convection ( m^2/s ) */
(PID.TID 0000.0001)                 1.000000000000000E+02
(PID.TID 0000.0001)     ;
(PID.TID 0000.0001) hMixCriteria=  /* Criteria for mixed-layer diagnostic */
(PID.TID 0000.0001)                -8.000000000000000E-01
(PID.TID 0000.0001)     ;
(PID.TID 0000.0001) eosType =  /* Type of Equation of State */
(PID.TID 0000.0001)               'LINEAR'
(PID.TID 0000.0001)     ;
(PID.TID 0000.0001) tAlpha =   /* Linear EOS thermal expansion coefficient ( 1/oC ) */
(PID.TID 0000.0001)                 2.000000000000000E-04
(PID.TID 0000.0001)     ;
(PID.TID 0000.0001) sBeta =   /* Linear EOS haline contraction coefficient ( 1/psu ) */
(PID.TID 0000.0001)                 0.000000000000000E+00
(PID.TID 0000.0001)     ;
(PID.TID 0000.0001) rhonil =   /* Reference density ( kg/m^3 ) */
(PID.TID 0000.0001)                 1.035000000000000E+03
(PID.TID 0000.0001)     ;
(PID.TID 0000.0001) rhoConst =   /* Reference density ( kg/m^3 ) */
(PID.TID 0000.0001)                 1.035000000000000E+03
(PID.TID 0000.0001)     ;
(PID.TID 0000.0001) rhoFacC = /* normalized Reference density @ cell-Center (-) */
(PID.TID 0000.0001)    15 @  1.000000000000000E+00              /* K =  1: 15 */
(PID.TID 0000.0001)     ;
(PID.TID 0000.0001) rhoFacF = /* normalized Reference density @ W-Interface (-) */
(PID.TID 0000.0001)    16 @  1.000000000000000E+00              /* K =  1: 16 */
(PID.TID 0000.0001)     ;
(PID.TID 0000.0001) rhoConstFresh =   /* Reference density ( kg/m^3 ) */
(PID.TID 0000.0001)                 1.035000000000000E+03
(PID.TID 0000.0001)     ;
(PID.TID 0000.0001) gravity =   /* Gravitational acceleration ( m/s^2 ) */
(PID.TID 0000.0001)                 9.810000000000000E+00
(PID.TID 0000.0001)     ;
(PID.TID 0000.0001) gBaro =   /* Barotropic gravity ( m/s^2 ) */
(PID.TID 0000.0001)                 9.810000000000000E+00
(PID.TID 0000.0001)     ;
(PID.TID 0000.0001) rotationPeriod =   /* Rotation Period ( s ) */
(PID.TID 0000.0001)                 8.640000000000000E+04
(PID.TID 0000.0001)     ;
(PID.TID 0000.0001) omega =   /* Angular velocity ( rad/s ) */
(PID.TID 0000.0001)                 7.272205216643040E-05
(PID.TID 0000.0001)     ;
(PID.TID 0000.0001) f0 =   /* Reference coriolis parameter ( 1/s ) */
(PID.TID 0000.0001)                 1.000000000000000E-04
(PID.TID 0000.0001)     ;
(PID.TID 0000.0001) beta =   /* Beta ( 1/(m.s) ) */
(PID.TID 0000.0001)                 9.999999999999999E-12
(PID.TID 0000.0001)     ;
(PID.TID 0000.0001) freeSurfFac =   /* Implicit free surface factor */
(PID.TID 0000.0001)                 1.000000000000000E+00
(PID.TID 0000.0001)     ;
(PID.TID 0000.0001) implicitFreeSurface =   /* Implicit free surface on/off flag */
(PID.TID 0000.0001)                   T
(PID.TID 0000.0001)     ;
(PID.TID 0000.0001) rigidLid =   /* Rigid lid on/off flag */
(PID.TID 0000.0001)                   F
(PID.TID 0000.0001)     ;
(PID.TID 0000.0001) implicSurfPress =   /* Surface Pressure implicit factor (0-1)*/
(PID.TID 0000.0001)                 1.000000000000000E+00
(PID.TID 0000.0001)     ;
(PID.TID 0000.0001) implicDiv2Dflow =   /* Barot. Flow Div. implicit factor (0-1)*/
(PID.TID 0000.0001)                 1.000000000000000E+00
(PID.TID 0000.0001)     ;
(PID.TID 0000.0001) exactConserv =   /* Exact Volume Conservation on/off flag*/
(PID.TID 0000.0001)                   T
(PID.TID 0000.0001)     ;
(PID.TID 0000.0001) linFSConserveTr =   /* Tracer correction for Lin Free Surface on/off flag*/
(PID.TID 0000.0001)                   F
(PID.TID 0000.0001)     ;
(PID.TID 0000.0001) uniformLin_PhiSurf =   /* use uniform Bo_surf on/off flag*/
(PID.TID 0000.0001)                   T
(PID.TID 0000.0001)     ;
(PID.TID 0000.0001) nonlinFreeSurf =   /* Non-linear Free Surf. options (-1,0,1,2,3)*/
(PID.TID 0000.0001)                       0
(PID.TID 0000.0001)     ;
(PID.TID 0000.0001)      -1,0= Off ; 1,2,3= On, 2=+rescale gU,gV, 3=+update cg2d solv.
(PID.TID 0000.0001) hFacInf =   /* lower threshold for hFac (nonlinFreeSurf only)*/
(PID.TID 0000.0001)                 2.000000000000000E-01
(PID.TID 0000.0001)     ;
(PID.TID 0000.0001) hFacSup =   /* upper threshold for hFac (nonlinFreeSurf only)*/
(PID.TID 0000.0001)                 2.000000000000000E+00
(PID.TID 0000.0001)     ;
(PID.TID 0000.0001) select_rStar = /* r* Vertical coord. options (=0 r coord.; > 0 uses r*) */
(PID.TID 0000.0001)                       0
(PID.TID 0000.0001)     ;
(PID.TID 0000.0001) selectAddFluid = /* option for mass source/sink of fluid (=0: off) */
(PID.TID 0000.0001)                       0
(PID.TID 0000.0001)     ;
(PID.TID 0000.0001) useRealFreshWaterFlux = /* Real Fresh Water Flux on/off flag*/
(PID.TID 0000.0001)                   F
(PID.TID 0000.0001)     ;
(PID.TID 0000.0001) temp_EvPrRn = /* Temp. of Evap/Prec/R (UNSET=use local T)(oC)*/
(PID.TID 0000.0001)                 1.234567000000000E+05
(PID.TID 0000.0001)     ;
(PID.TID 0000.0001) salt_EvPrRn = /* Salin. of Evap/Prec/R (UNSET=use local S)(ppt)*/
(PID.TID 0000.0001)                 0.000000000000000E+00
(PID.TID 0000.0001)     ;
(PID.TID 0000.0001) convertFW2Salt = /* convert F.W. Flux to Salt Flux (-1=use local S)(ppt)*/
(PID.TID 0000.0001)                 3.500000000000000E+01
(PID.TID 0000.0001)     ;
(PID.TID 0000.0001) use3Dsolver = /* use 3-D pressure solver on/off flag */
(PID.TID 0000.0001)                   F
(PID.TID 0000.0001)     ;
(PID.TID 0000.0001) nonHydrostatic =  /* Non-Hydrostatic on/off flag */
(PID.TID 0000.0001)                   F
(PID.TID 0000.0001)     ;
(PID.TID 0000.0001) nh_Am2 = /* Non-Hydrostatic terms scaling factor */
(PID.TID 0000.0001)                 1.000000000000000E+00
(PID.TID 0000.0001)     ;
(PID.TID 0000.0001) quasiHydrostatic = /* Quasi-Hydrostatic on/off flag */
(PID.TID 0000.0001)                   F
(PID.TID 0000.0001)     ;
(PID.TID 0000.0001) momStepping =  /* Momentum equation on/off flag */
(PID.TID 0000.0001)                   T
(PID.TID 0000.0001)     ;
(PID.TID 0000.0001) vectorInvariantMomentum= /* Vector-Invariant Momentum on/off */
(PID.TID 0000.0001)                   F
(PID.TID 0000.0001)     ;
(PID.TID 0000.0001) momAdvection =  /* Momentum advection on/off flag */
(PID.TID 0000.0001)                   T
(PID.TID 0000.0001)     ;
(PID.TID 0000.0001) momViscosity =  /* Momentum viscosity on/off flag */
(PID.TID 0000.0001)                   T
(PID.TID 0000.0001)     ;
(PID.TID 0000.0001) momImplVertAdv =/* Momentum implicit vert. advection on/off*/
(PID.TID 0000.0001)                   F
(PID.TID 0000.0001)     ;
(PID.TID 0000.0001) implicitViscosity = /* Implicit viscosity on/off flag */
(PID.TID 0000.0001)                   F
(PID.TID 0000.0001)     ;
(PID.TID 0000.0001) metricTerms =  /* metric-Terms on/off flag */
(PID.TID 0000.0001)                   T
(PID.TID 0000.0001)     ;
(PID.TID 0000.0001) useNHMTerms = /* Non-Hydrostatic Metric-Terms on/off */
(PID.TID 0000.0001)                   F
(PID.TID 0000.0001)     ;
(PID.TID 0000.0001) useConstantF =  /* use Constant f0 Coriolis flag */
(PID.TID 0000.0001)                   F
(PID.TID 0000.0001)     ;
(PID.TID 0000.0001) useBetaPlaneF = /* use Beta-Plane Coriolis flag */
(PID.TID 0000.0001)                   F
(PID.TID 0000.0001)     ;
(PID.TID 0000.0001) useSphereF  =   /* use Spherical Coriolis flag */
(PID.TID 0000.0001)                   T
(PID.TID 0000.0001)     ;
(PID.TID 0000.0001) use3dCoriolis = /* 3-D Coriolis on/off flag */
(PID.TID 0000.0001)                   F
(PID.TID 0000.0001)     ;
(PID.TID 0000.0001) useCoriolis =  /* Coriolis on/off flag */
(PID.TID 0000.0001)                   T
(PID.TID 0000.0001)     ;
(PID.TID 0000.0001) useCDscheme =  /* CD scheme on/off flag */
(PID.TID 0000.0001)                   T
(PID.TID 0000.0001)     ;
(PID.TID 0000.0001) useJamartWetPoints= /* Coriolis WetPoints method flag */
(PID.TID 0000.0001)                   F
(PID.TID 0000.0001)     ;
(PID.TID 0000.0001) useJamartMomAdv= /* V.I. Non-linear terms Jamart flag */
(PID.TID 0000.0001)                   F
(PID.TID 0000.0001)     ;
(PID.TID 0000.0001) useAbsVorticity= /* Work with f+zeta in Coriolis */
(PID.TID 0000.0001)                   F
(PID.TID 0000.0001)     ;
(PID.TID 0000.0001) selectVortScheme= /* Scheme selector for Vorticity-Term */
(PID.TID 0000.0001)               123456789
(PID.TID 0000.0001)    = 0 : enstrophy (Shallow-Water Eq.) conserving scheme by Sadourny, JAS 75
(PID.TID 0000.0001)    = 1 : same as 0 with modified hFac
(PID.TID 0000.0001)    = 2 : energy conserving scheme (used by Sadourny in JAS 75 paper)
(PID.TID 0000.0001)    = 3 : energy (general) and enstrophy (2D, nonDiv.) conserving scheme
(PID.TID 0000.0001)          from Sadourny (Burridge & Haseler, ECMWF Rep.4, 1977)
(PID.TID 0000.0001)     ;
(PID.TID 0000.0001) upwindVorticity= /* Upwind bias vorticity flag */
(PID.TID 0000.0001)                   F
(PID.TID 0000.0001)     ;
(PID.TID 0000.0001) highOrderVorticity= /* High order interp. of vort. flag */
(PID.TID 0000.0001)                   F
(PID.TID 0000.0001)     ;
(PID.TID 0000.0001) upwindShear= /* Upwind vertical Shear advection flag */
(PID.TID 0000.0001)                   F
(PID.TID 0000.0001)     ;
(PID.TID 0000.0001) selectKEscheme= /* Kinetic Energy scheme selector */
(PID.TID 0000.0001)                       0
(PID.TID 0000.0001)     ;
(PID.TID 0000.0001) momForcing =  /* Momentum forcing on/off flag */
(PID.TID 0000.0001)                   T
(PID.TID 0000.0001)     ;
(PID.TID 0000.0001) momPressureForcing =  /* Momentum pressure term on/off flag */
(PID.TID 0000.0001)                   T
(PID.TID 0000.0001)     ;
(PID.TID 0000.0001) implicitIntGravWave= /* Implicit Internal Gravity Wave flag */
(PID.TID 0000.0001)                   F
(PID.TID 0000.0001)     ;
(PID.TID 0000.0001) staggerTimeStep =   /* Stagger time stepping on/off flag */
(PID.TID 0000.0001)                   T
(PID.TID 0000.0001)     ;
(PID.TID 0000.0001) multiDimAdvection =   /* enable/disable Multi-Dim Advection */
(PID.TID 0000.0001)                   T
(PID.TID 0000.0001)     ;
(PID.TID 0000.0001) useMultiDimAdvec =   /* Multi-Dim Advection is/is-not used */
(PID.TID 0000.0001)                   T
(PID.TID 0000.0001)     ;
(PID.TID 0000.0001) implicitDiffusion =/* Implicit Diffusion on/off flag */
(PID.TID 0000.0001)                   T
(PID.TID 0000.0001)     ;
(PID.TID 0000.0001) tempStepping =  /* Temperature equation on/off flag */
(PID.TID 0000.0001)                   T
(PID.TID 0000.0001)     ;
(PID.TID 0000.0001) tempAdvection=  /* Temperature advection on/off flag */
(PID.TID 0000.0001)                   T
(PID.TID 0000.0001)     ;
(PID.TID 0000.0001) tempImplVertAdv =/* Temp. implicit vert. advection on/off */
(PID.TID 0000.0001)                   F
(PID.TID 0000.0001)     ;
(PID.TID 0000.0001) tempForcing  =  /* Temperature forcing on/off flag */
(PID.TID 0000.0001)                   T
(PID.TID 0000.0001)     ;
(PID.TID 0000.0001) tempIsActiveTr = /* Temp. is a dynamically Active Tracer */
(PID.TID 0000.0001)                   T
(PID.TID 0000.0001)     ;
(PID.TID 0000.0001) saltStepping =  /* Salinity equation on/off flag */
(PID.TID 0000.0001)                   F
(PID.TID 0000.0001)     ;
(PID.TID 0000.0001) saltAdvection=  /* Salinity advection on/off flag */
(PID.TID 0000.0001)                   F
(PID.TID 0000.0001)     ;
(PID.TID 0000.0001) saltImplVertAdv =/* Sali. implicit vert. advection on/off */
(PID.TID 0000.0001)                   F
(PID.TID 0000.0001)     ;
(PID.TID 0000.0001) saltForcing  =  /* Salinity forcing on/off flag */
(PID.TID 0000.0001)                   F
(PID.TID 0000.0001)     ;
(PID.TID 0000.0001) saltIsActiveTr = /* Salt  is a dynamically Active Tracer */
(PID.TID 0000.0001)                   F
(PID.TID 0000.0001)     ;
(PID.TID 0000.0001)  readBinaryPrec = /* Precision used for reading binary files */
(PID.TID 0000.0001)                      64
(PID.TID 0000.0001)     ;
(PID.TID 0000.0001) writeBinaryPrec = /* Precision used for writing binary files */
(PID.TID 0000.0001)                      32
(PID.TID 0000.0001)     ;
(PID.TID 0000.0001)  globalFiles = /* write "global" (=not per tile) files */
(PID.TID 0000.0001)                   F
(PID.TID 0000.0001)     ;
(PID.TID 0000.0001)  useSingleCpuIO = /* only master MPI process does I/O */
(PID.TID 0000.0001)                   F
(PID.TID 0000.0001)     ;
(PID.TID 0000.0001)  debugMode  =  /* Debug Mode on/off flag */
(PID.TID 0000.0001)                   F
(PID.TID 0000.0001)     ;
(PID.TID 0000.0001)    debLevA  =  /* 1rst level of debugging */
(PID.TID 0000.0001)                       1
(PID.TID 0000.0001)     ;
(PID.TID 0000.0001)    debLevB  =  /* 2nd  level of debugging */
(PID.TID 0000.0001)                       2
(PID.TID 0000.0001)     ;
(PID.TID 0000.0001)  debugLevel =  /* select debugging level */
(PID.TID 0000.0001)                       1
(PID.TID 0000.0001)     ;
(PID.TID 0000.0001) //
(PID.TID 0000.0001) // Elliptic solver(s) paramters ( PARM02 in namelist )
(PID.TID 0000.0001) //
(PID.TID 0000.0001) cg2dMaxIters =   /* Upper limit on 2d con. grad iterations  */
(PID.TID 0000.0001)                    1000
(PID.TID 0000.0001)     ;
(PID.TID 0000.0001) cg2dChkResFreq =   /* 2d con. grad convergence test frequency */
(PID.TID 0000.0001)                       1
(PID.TID 0000.0001)     ;
(PID.TID 0000.0001) cg2dTargetResidual =   /* 2d con. grad target residual  */
(PID.TID 0000.0001)                 1.000000000000000E-07
(PID.TID 0000.0001)     ;
(PID.TID 0000.0001) cg2dTargetResWunit =   /* CG2d target residual [W units] */
(PID.TID 0000.0001)                 1.000000000000000E-17
(PID.TID 0000.0001)     ;
(PID.TID 0000.0001) cg2dPreCondFreq =   /* Freq. for updating cg2d preconditioner */
(PID.TID 0000.0001)                       1
(PID.TID 0000.0001)     ;
(PID.TID 0000.0001) //
(PID.TID 0000.0001) // Time stepping paramters ( PARM03 in namelist )
(PID.TID 0000.0001) //
(PID.TID 0000.0001) deltaTmom =   /* Momentum equation timestep ( s ) */
(PID.TID 0000.0001)                 1.200000000000000E+03
(PID.TID 0000.0001)     ;
(PID.TID 0000.0001) deltaTfreesurf =   /* FreeSurface equation timestep ( s ) */
(PID.TID 0000.0001)                 3.600000000000000E+03
(PID.TID 0000.0001)     ;
(PID.TID 0000.0001) dTtracerLev =   /* Tracer equation timestep ( s ) */
(PID.TID 0000.0001)    15 @  8.640000000000000E+04              /* K =  1: 15 */
(PID.TID 0000.0001)     ;
(PID.TID 0000.0001) deltaTClock  =   /* Model clock timestep ( s ) */
(PID.TID 0000.0001)                 8.640000000000000E+04
(PID.TID 0000.0001)     ;
(PID.TID 0000.0001) cAdjFreq =   /* Convective adjustment interval ( s ) */
(PID.TID 0000.0001)                 0.000000000000000E+00
(PID.TID 0000.0001)     ;
(PID.TID 0000.0001) momForcingOutAB = /* =1: take Momentum Forcing out of Adams-Bash. stepping */
(PID.TID 0000.0001)                       0
(PID.TID 0000.0001)     ;
(PID.TID 0000.0001) tracForcingOutAB = /* =1: take T,S,pTr Forcing out of Adams-Bash. stepping */
(PID.TID 0000.0001)                       0
(PID.TID 0000.0001)     ;
(PID.TID 0000.0001) momDissip_In_AB = /* put Dissipation Tendency in Adams-Bash. stepping */
(PID.TID 0000.0001)                   T
(PID.TID 0000.0001)     ;
(PID.TID 0000.0001) doAB_onGtGs = /* apply AB on Tendencies (rather than on T,S)*/
(PID.TID 0000.0001)                   T
(PID.TID 0000.0001)     ;
(PID.TID 0000.0001) abEps =   /* Adams-Bashforth-2 stabilizing weight */
(PID.TID 0000.0001)                 1.000000000000000E-01
(PID.TID 0000.0001)     ;
(PID.TID 0000.0001) tauCD =   /* CD coupling time-scale ( s ) */
(PID.TID 0000.0001)                 3.214280000000000E+05
(PID.TID 0000.0001)     ;
(PID.TID 0000.0001) rCD =   /* Normalised CD coupling parameter */
(PID.TID 0000.0001)                 9.962666600296178E-01
(PID.TID 0000.0001)     ;
(PID.TID 0000.0001) pickupStrictlyMatch= /* stop if pickup do not strictly match */
(PID.TID 0000.0001)                   F
(PID.TID 0000.0001)     ;
(PID.TID 0000.0001) nIter0 =   /* Run starting timestep number  */
(PID.TID 0000.0001)                   36000
(PID.TID 0000.0001)     ;
(PID.TID 0000.0001) nTimeSteps =   /* Number of timesteps */
(PID.TID 0000.0001)                      20
(PID.TID 0000.0001)     ;
(PID.TID 0000.0001) baseTime =   /* Model base time ( s ). */
(PID.TID 0000.0001)                 0.000000000000000E+00
(PID.TID 0000.0001)     ;
(PID.TID 0000.0001) startTime =   /* Run start time ( s ). */
(PID.TID 0000.0001)                 3.110400000000000E+09
(PID.TID 0000.0001)     ;
(PID.TID 0000.0001) endTime =   /* Integration ending time ( s ). */
(PID.TID 0000.0001)                 3.112128000000000E+09
(PID.TID 0000.0001)     ;
(PID.TID 0000.0001) pChkPtFreq =   /* Permanent restart/checkpoint file interval ( s ). */
(PID.TID 0000.0001)                 3.110400000000000E+09
(PID.TID 0000.0001)     ;
(PID.TID 0000.0001) chkPtFreq =   /* Rolling restart/checkpoint file interval ( s ). */
(PID.TID 0000.0001)                 0.000000000000000E+00
(PID.TID 0000.0001)     ;
(PID.TID 0000.0001) pickup_write_mdsio =   /* Model IO flag. */
(PID.TID 0000.0001)                   T
(PID.TID 0000.0001)     ;
(PID.TID 0000.0001) pickup_read_mdsio =   /* Model IO flag. */
(PID.TID 0000.0001)                   T
(PID.TID 0000.0001)     ;
(PID.TID 0000.0001) pickup_write_mnc =   /* Model IO flag. */
(PID.TID 0000.0001)                   F
(PID.TID 0000.0001)     ;
(PID.TID 0000.0001) pickup_read_mnc =   /* Model IO flag. */
(PID.TID 0000.0001)                   F
(PID.TID 0000.0001)     ;
(PID.TID 0000.0001) pickup_write_immed =   /* Model IO flag. */
(PID.TID 0000.0001)                   F
(PID.TID 0000.0001)     ;
(PID.TID 0000.0001) writePickupAtEnd =   /* Model IO flag. */
(PID.TID 0000.0001)                   T
(PID.TID 0000.0001)     ;
(PID.TID 0000.0001) dumpFreq =   /* Model state write out interval ( s ). */
(PID.TID 0000.0001)                 1.555200000000000E+09
(PID.TID 0000.0001)     ;
(PID.TID 0000.0001) dumpInitAndLast= /* write out Initial & Last iter. model state */
(PID.TID 0000.0001)                   T
(PID.TID 0000.0001)     ;
(PID.TID 0000.0001) snapshot_mdsio =   /* Model IO flag. */
(PID.TID 0000.0001)                   F
(PID.TID 0000.0001)     ;
(PID.TID 0000.0001) snapshot_mnc =   /* Model IO flag. */
(PID.TID 0000.0001)                   T
(PID.TID 0000.0001)     ;
(PID.TID 0000.0001) monitorFreq =   /* Monitor output interval ( s ). */
(PID.TID 0000.0001)                 1.000000000000000E+00
(PID.TID 0000.0001)     ;
(PID.TID 0000.0001) monitorSelect = /* select group of variables to monitor */
(PID.TID 0000.0001)                       3
(PID.TID 0000.0001)     ;
(PID.TID 0000.0001) monitor_stdio =   /* Model IO flag. */
(PID.TID 0000.0001)                   T
(PID.TID 0000.0001)     ;
(PID.TID 0000.0001) monitor_mnc =   /* Model IO flag. */
(PID.TID 0000.0001)                   F
(PID.TID 0000.0001)     ;
(PID.TID 0000.0001) externForcingPeriod =   /* forcing period (s) */
(PID.TID 0000.0001)                 0.000000000000000E+00
(PID.TID 0000.0001)     ;
(PID.TID 0000.0001) externForcingCycle =   /* period of the cyle (s). */
(PID.TID 0000.0001)                 0.000000000000000E+00
(PID.TID 0000.0001)     ;
(PID.TID 0000.0001) tauThetaClimRelax =   /* relaxation time scale (s) */
(PID.TID 0000.0001)                 2.592000000000000E+06
(PID.TID 0000.0001)     ;
(PID.TID 0000.0001) tauSaltClimRelax =   /* relaxation time scale (s) */
(PID.TID 0000.0001)                 0.000000000000000E+00
(PID.TID 0000.0001)     ;
(PID.TID 0000.0001) latBandClimRelax =   /* max. Lat. where relaxation */
(PID.TID 0000.0001)                 1.800000000000000E+02
(PID.TID 0000.0001)     ;
(PID.TID 0000.0001) //
(PID.TID 0000.0001) // Gridding paramters ( PARM04 in namelist )
(PID.TID 0000.0001) //
(PID.TID 0000.0001) usingCartesianGrid = /* Cartesian coordinates flag ( True/False ) */
(PID.TID 0000.0001)                   F
(PID.TID 0000.0001)     ;
(PID.TID 0000.0001) usingCylindricalGrid = /* Cylindrical coordinates flag ( True/False ) */
(PID.TID 0000.0001)                   F
(PID.TID 0000.0001)     ;
(PID.TID 0000.0001) usingSphericalPolarGrid = /* Spherical coordinates flag ( True/False ) */
(PID.TID 0000.0001)                   T
(PID.TID 0000.0001)     ;
(PID.TID 0000.0001) usingCurvilinearGrid = /* Curvilinear coordinates flag ( True/False ) */
(PID.TID 0000.0001)                   F
(PID.TID 0000.0001)     ;
(PID.TID 0000.0001) Ro_SeaLevel = /* r(1) ( units of r ==  m ) */
(PID.TID 0000.0001)                 0.000000000000000E+00
(PID.TID 0000.0001)     ;
(PID.TID 0000.0001) rkSign =   /* index orientation relative to vertical coordinate */
(PID.TID 0000.0001)                -1.000000000000000E+00
(PID.TID 0000.0001)     ;
(PID.TID 0000.0001) gravitySign = /* gravity orientation relative to vertical coordinate */
(PID.TID 0000.0001)                -1.000000000000000E+00
(PID.TID 0000.0001)     ;
(PID.TID 0000.0001) mass2rUnit = /* convert mass per unit area [kg/m2] to r-units [m] */
(PID.TID 0000.0001)                 9.661835748792270E-04
(PID.TID 0000.0001)     ;
(PID.TID 0000.0001) rUnit2mass = /* convert r-units [m] to mass per unit area [kg/m2] */
(PID.TID 0000.0001)                 1.035000000000000E+03
(PID.TID 0000.0001)     ;
(PID.TID 0000.0001) drC =   /* C spacing ( units of r ) */
(PID.TID 0000.0001)                 2.000000000000000E+01,      /* K =  1 */
(PID.TID 0000.0001)                 6.000000000000000E+01,      /* K =  2 */
(PID.TID 0000.0001)                 8.500000000000000E+01,      /* K =  3 */
(PID.TID 0000.0001)                 1.200000000000000E+02,      /* K =  4 */
(PID.TID 0000.0001)                 1.650000000000000E+02,      /* K =  5 */
(PID.TID 0000.0001)                 2.150000000000000E+02,      /* K =  6 */
(PID.TID 0000.0001)                 2.650000000000000E+02,      /* K =  7 */
(PID.TID 0000.0001)                 3.150000000000000E+02,      /* K =  8 */
(PID.TID 0000.0001)                 3.650000000000000E+02,      /* K =  9 */
(PID.TID 0000.0001)                 4.150000000000000E+02,      /* K = 10 */
(PID.TID 0000.0001)                 4.650000000000000E+02,      /* K = 11 */
(PID.TID 0000.0001)                 5.150000000000000E+02,      /* K = 12 */
(PID.TID 0000.0001)                 5.650000000000000E+02,      /* K = 13 */
(PID.TID 0000.0001)                 6.150000000000000E+02,      /* K = 14 */
(PID.TID 0000.0001)                 6.650000000000000E+02       /* K = 15 */
(PID.TID 0000.0001)     ;
(PID.TID 0000.0001) drF =   /* W spacing ( units of r ) */
(PID.TID 0000.0001)                 5.000000000000000E+01,      /* K =  1 */
(PID.TID 0000.0001)                 7.250000000000000E+01,      /* K =  2 */
(PID.TID 0000.0001)                 1.025000000000000E+02,      /* K =  3 */
(PID.TID 0000.0001)                 1.425000000000000E+02,      /* K =  4 */
(PID.TID 0000.0001)                 1.900000000000000E+02,      /* K =  5 */
(PID.TID 0000.0001)                 2.400000000000000E+02,      /* K =  6 */
(PID.TID 0000.0001)                 2.900000000000000E+02,      /* K =  7 */
(PID.TID 0000.0001)                 3.400000000000000E+02,      /* K =  8 */
(PID.TID 0000.0001)                 3.900000000000000E+02,      /* K =  9 */
(PID.TID 0000.0001)                 4.400000000000000E+02,      /* K = 10 */
(PID.TID 0000.0001)                 4.900000000000000E+02,      /* K = 11 */
(PID.TID 0000.0001)                 5.400000000000000E+02,      /* K = 12 */
(PID.TID 0000.0001)                 5.900000000000000E+02,      /* K = 13 */
(PID.TID 0000.0001)                 6.400000000000000E+02,      /* K = 14 */
(PID.TID 0000.0001)                 6.825000000000000E+02       /* K = 15 */
(PID.TID 0000.0001)     ;
(PID.TID 0000.0001) delX =   /* U spacing ( m - cartesian, degrees - spherical ) */
(PID.TID 0000.0001)                 3.000000000000000E+00       /* I =  1 */
(PID.TID 0000.0001)     ;
(PID.TID 0000.0001) delY =   /* V spacing ( m - cartesian, degrees - spherical ) */
(PID.TID 0000.0001)    56 @  3.000000000000000E+00              /* J =  1: 56 */
(PID.TID 0000.0001)     ;
(PID.TID 0000.0001) phiMin =    /* South edge (ignored - cartesian, degrees - spherical ) */
(PID.TID 0000.0001)                -8.400000000000000E+01
(PID.TID 0000.0001)     ;
(PID.TID 0000.0001) thetaMin =    /* West edge ( ignored - cartesian, degrees - spherical ) */
(PID.TID 0000.0001)                 0.000000000000000E+00
(PID.TID 0000.0001)     ;
(PID.TID 0000.0001) rSphere =  /* Radius ( ignored - cartesian, m - spherical ) */
(PID.TID 0000.0001)                 6.370000000000000E+06
(PID.TID 0000.0001)     ;
(PID.TID 0000.0001) deepAtmosphere = /* Deep/Shallow Atmosphere flag (True/False) */
(PID.TID 0000.0001)                   F
(PID.TID 0000.0001)     ;
(PID.TID 0000.0001) xcoord =   /* P-point X coord ( m - cartesian, degrees - spherical ) */
(PID.TID 0000.0001)                 1.500000000000000E+00       /* I =  1 */
(PID.TID 0000.0001)     ;
(PID.TID 0000.0001) ycoord =   /* P-point Y coord ( m - cartesian, degrees - spherical ) */
(PID.TID 0000.0001)                -8.250000000000000E+01,      /* J =  1 */
(PID.TID 0000.0001)                -7.950000000000000E+01,      /* J =  2 */
(PID.TID 0000.0001)                -7.650000000000000E+01,      /* J =  3 */
(PID.TID 0000.0001)                -7.350000000000000E+01,      /* J =  4 */
(PID.TID 0000.0001)                -7.050000000000000E+01,      /* J =  5 */
(PID.TID 0000.0001)                -6.750000000000000E+01,      /* J =  6 */
(PID.TID 0000.0001)                -6.450000000000000E+01,      /* J =  7 */
(PID.TID 0000.0001)                -6.150000000000000E+01,      /* J =  8 */
(PID.TID 0000.0001)                -5.850000000000000E+01,      /* J =  9 */
(PID.TID 0000.0001)                -5.550000000000000E+01,      /* J = 10 */
(PID.TID 0000.0001)                -5.250000000000000E+01,      /* J = 11 */
(PID.TID 0000.0001)                -4.950000000000000E+01,      /* J = 12 */
(PID.TID 0000.0001)                -4.650000000000000E+01,      /* J = 13 */
(PID.TID 0000.0001)                -4.350000000000000E+01,      /* J = 14 */
(PID.TID 0000.0001)                -4.050000000000000E+01,      /* J = 15 */
(PID.TID 0000.0001)                -3.750000000000000E+01,      /* J = 16 */
(PID.TID 0000.0001)                -3.450000000000000E+01,      /* J = 17 */
(PID.TID 0000.0001)                -3.150000000000000E+01,      /* J = 18 */
(PID.TID 0000.0001)                -2.850000000000000E+01,      /* J = 19 */
(PID.TID 0000.0001)                -2.550000000000000E+01,      /* J = 20 */
(PID.TID 0000.0001)                -2.250000000000000E+01,      /* J = 21 */
(PID.TID 0000.0001)                -1.950000000000000E+01,      /* J = 22 */
(PID.TID 0000.0001)                -1.650000000000000E+01,      /* J = 23 */
(PID.TID 0000.0001)                -1.350000000000000E+01,      /* J = 24 */
(PID.TID 0000.0001)                -1.050000000000000E+01,      /* J = 25 */
(PID.TID 0000.0001)                -7.500000000000000E+00,      /* J = 26 */
(PID.TID 0000.0001)                -4.500000000000000E+00,      /* J = 27 */
(PID.TID 0000.0001)                -1.500000000000000E+00,      /* J = 28 */
(PID.TID 0000.0001)                 1.500000000000000E+00,      /* J = 29 */
(PID.TID 0000.0001)                 4.500000000000000E+00,      /* J = 30 */
(PID.TID 0000.0001)                 7.500000000000000E+00,      /* J = 31 */
(PID.TID 0000.0001)                 1.050000000000000E+01,      /* J = 32 */
(PID.TID 0000.0001)                 1.350000000000000E+01,      /* J = 33 */
(PID.TID 0000.0001)                 1.650000000000000E+01,      /* J = 34 */
(PID.TID 0000.0001)                 1.950000000000000E+01,      /* J = 35 */
(PID.TID 0000.0001)                 2.250000000000000E+01,      /* J = 36 */
(PID.TID 0000.0001)                 2.550000000000000E+01,      /* J = 37 */
(PID.TID 0000.0001)                 2.850000000000000E+01,      /* J = 38 */
(PID.TID 0000.0001)                 3.150000000000000E+01,      /* J = 39 */
(PID.TID 0000.0001)                 3.450000000000000E+01,      /* J = 40 */
(PID.TID 0000.0001)                 3.750000000000000E+01,      /* J = 41 */
(PID.TID 0000.0001)                 4.050000000000000E+01,      /* J = 42 */
(PID.TID 0000.0001)                 4.350000000000000E+01,      /* J = 43 */
(PID.TID 0000.0001)                 4.650000000000000E+01,      /* J = 44 */
(PID.TID 0000.0001)                 4.950000000000000E+01,      /* J = 45 */
(PID.TID 0000.0001)                 5.250000000000000E+01,      /* J = 46 */
(PID.TID 0000.0001)                 5.550000000000000E+01,      /* J = 47 */
(PID.TID 0000.0001)                 5.850000000000000E+01,      /* J = 48 */
(PID.TID 0000.0001)                 6.150000000000000E+01,      /* J = 49 */
(PID.TID 0000.0001)                 6.450000000000000E+01,      /* J = 50 */
(PID.TID 0000.0001)                 6.750000000000000E+01,      /* J = 51 */
(PID.TID 0000.0001)                 7.050000000000000E+01,      /* J = 52 */
(PID.TID 0000.0001)                 7.350000000000000E+01,      /* J = 53 */
(PID.TID 0000.0001)                 7.650000000000000E+01,      /* J = 54 */
(PID.TID 0000.0001)                 7.950000000000000E+01,      /* J = 55 */
(PID.TID 0000.0001)                 8.250000000000000E+01       /* J = 56 */
(PID.TID 0000.0001)     ;
(PID.TID 0000.0001) rcoord =   /* P-point R coordinate (  units of r ) */
(PID.TID 0000.0001)                -2.000000000000000E+01,      /* K =  1 */
(PID.TID 0000.0001)                -8.000000000000000E+01,      /* K =  2 */
(PID.TID 0000.0001)                -1.650000000000000E+02,      /* K =  3 */
(PID.TID 0000.0001)                -2.850000000000000E+02,      /* K =  4 */
(PID.TID 0000.0001)                -4.500000000000000E+02,      /* K =  5 */
(PID.TID 0000.0001)                -6.650000000000000E+02,      /* K =  6 */
(PID.TID 0000.0001)                -9.300000000000000E+02,      /* K =  7 */
(PID.TID 0000.0001)                -1.245000000000000E+03,      /* K =  8 */
(PID.TID 0000.0001)                -1.610000000000000E+03,      /* K =  9 */
(PID.TID 0000.0001)                -2.025000000000000E+03,      /* K = 10 */
(PID.TID 0000.0001)                -2.490000000000000E+03,      /* K = 11 */
(PID.TID 0000.0001)                -3.005000000000000E+03,      /* K = 12 */
(PID.TID 0000.0001)                -3.570000000000000E+03,      /* K = 13 */
(PID.TID 0000.0001)                -4.185000000000000E+03,      /* K = 14 */
(PID.TID 0000.0001)                -4.850000000000000E+03       /* K = 15 */
(PID.TID 0000.0001)     ;
(PID.TID 0000.0001) rF =   /* W-Interf. R coordinate (  units of r ) */
(PID.TID 0000.0001)                 0.000000000000000E+00,      /* K =  1 */
(PID.TID 0000.0001)                -5.000000000000000E+01,      /* K =  2 */
(PID.TID 0000.0001)                -1.225000000000000E+02,      /* K =  3 */
(PID.TID 0000.0001)                -2.250000000000000E+02,      /* K =  4 */
(PID.TID 0000.0001)                -3.675000000000000E+02,      /* K =  5 */
(PID.TID 0000.0001)                -5.575000000000000E+02,      /* K =  6 */
(PID.TID 0000.0001)                -7.975000000000000E+02,      /* K =  7 */
(PID.TID 0000.0001)                -1.087500000000000E+03,      /* K =  8 */
(PID.TID 0000.0001)                -1.427500000000000E+03,      /* K =  9 */
(PID.TID 0000.0001)                -1.817500000000000E+03,      /* K = 10 */
(PID.TID 0000.0001)                -2.257500000000000E+03,      /* K = 11 */
(PID.TID 0000.0001)                -2.747500000000000E+03,      /* K = 12 */
(PID.TID 0000.0001)                -3.287500000000000E+03,      /* K = 13 */
(PID.TID 0000.0001)                -3.877500000000000E+03,      /* K = 14 */
(PID.TID 0000.0001)                -4.517500000000000E+03,      /* K = 15 */
(PID.TID 0000.0001)                -5.200000000000000E+03       /* K = 16 */
(PID.TID 0000.0001)     ;
(PID.TID 0000.0001) deepFacC = /* deep-model grid factor @ cell-Center (-) */
(PID.TID 0000.0001)    15 @  1.000000000000000E+00              /* K =  1: 15 */
(PID.TID 0000.0001)     ;
(PID.TID 0000.0001) deepFacF = /* deep-model grid factor @ W-Interface (-) */
(PID.TID 0000.0001)    16 @  1.000000000000000E+00              /* K =  1: 16 */
(PID.TID 0000.0001)     ;
(PID.TID 0000.0001) rVel2wUnit = /* convert units: rVel -> wSpeed (=1 if z-coord)*/
(PID.TID 0000.0001)    16 @  1.000000000000000E+00              /* K =  1: 16 */
(PID.TID 0000.0001)     ;
(PID.TID 0000.0001) wUnit2rVel = /* convert units: wSpeed -> rVel (=1 if z-coord)*/
(PID.TID 0000.0001)    16 @  1.000000000000000E+00              /* K =  1: 16 */
(PID.TID 0000.0001)     ;
(PID.TID 0000.0001) dBdrRef = /* Vertical gradient of reference boyancy [(m/s/r)^2)] */
(PID.TID 0000.0001)                 0.000000000000000E+00,      /* K =  1 */
(PID.TID 0000.0001)                 8.175000000000001E-05,      /* K =  2 */
(PID.TID 0000.0001)                 7.386352941176473E-05,      /* K =  3 */
(PID.TID 0000.0001)                 4.414500000000000E-05,      /* K =  4 */
(PID.TID 0000.0001)                 2.734909090909092E-05,      /* K =  5 */
(PID.TID 0000.0001)                 1.916372093023256E-05,      /* K =  6 */
(PID.TID 0000.0001)                 1.110566037735849E-05,      /* K =  7 */
(PID.TID 0000.0001)                 6.851428571428573E-06,      /* K =  8 */
(PID.TID 0000.0001)                 3.762739726027396E-06,      /* K =  9 */
(PID.TID 0000.0001)                 2.363855421686748E-06,      /* K = 10 */
(PID.TID 0000.0001)                 1.687741935483872E-06,      /* K = 11 */
(PID.TID 0000.0001)                 1.142912621359224E-06,      /* K = 12 */
(PID.TID 0000.0001)                 1.041769911504425E-06,      /* K = 13 */
(PID.TID 0000.0001)                 6.380487804878048E-07,      /* K = 14 */
(PID.TID 0000.0001)                 2.950375939849624E-07       /* K = 15 */
(PID.TID 0000.0001)     ;
(PID.TID 0000.0001) rotateGrid = /* use rotated grid ( True/False ) */
(PID.TID 0000.0001)                   F
(PID.TID 0000.0001)     ;
(PID.TID 0000.0001) phiEuler = /* Euler angle, rotation about original z-coordinate [rad] */
(PID.TID 0000.0001)                 0.000000000000000E+00
(PID.TID 0000.0001)     ;
(PID.TID 0000.0001) thetaEuler = /* Euler angle, rotation about new x-coordinate [rad] */
(PID.TID 0000.0001)                 0.000000000000000E+00
(PID.TID 0000.0001)     ;
(PID.TID 0000.0001) psiEuler = /* Euler angle, rotation about new z-coordinate [rad] */
(PID.TID 0000.0001)                 0.000000000000000E+00
(PID.TID 0000.0001)     ;
(PID.TID 0000.0001) dxF =  /* dxF(:,1,:,1) ( units: m ) */
(PID.TID 0000.0001)                 4.353471677186367E+04       /* I =  1 */
(PID.TID 0000.0001)     ;
(PID.TID 0000.0001) dxF =  /* dxF(1,:,1,:) ( units: m ) */
(PID.TID 0000.0001)                 4.353471677186367E+04,      /* J =  1 */
(PID.TID 0000.0001)                 6.078145583759403E+04,      /* J =  2 */
(PID.TID 0000.0001)                 7.786159715774079E+04,      /* J =  3 */
(PID.TID 0000.0001)                 9.472832525217145E+04,      /* J =  4 */
(PID.TID 0000.0001)                 1.113354095915710E+05,      /* J =  5 */
(PID.TID 0000.0001)                 1.276373313121096E+05,      /* J =  6 */
(PID.TID 0000.0001)                 1.435894079794837E+05,      /* J =  7 */
(PID.TID 0000.0001)                 1.591479160603634E+05,      /* J =  8 */
(PID.TID 0000.0001)                 1.742702107655578E+05,      /* J =  9 */
(PID.TID 0000.0001)                 1.889148429364175E+05,      /* J = 10 */
(PID.TID 0000.0001)                 2.030416726540983E+05,      /* J = 11 */
(PID.TID 0000.0001)                 2.166119792602878E+05,      /* J = 12 */
(PID.TID 0000.0001)                 2.295885674878389E+05,      /* J = 13 */
(PID.TID 0000.0001)                 2.419358694104115E+05,      /* J = 14 */
(PID.TID 0000.0001)                 2.536200419316863E+05,      /* J = 15 */
(PID.TID 0000.0001)                 2.646090595469393E+05,      /* J = 16 */
(PID.TID 0000.0001)                 2.748728021227243E+05,      /* J = 17 */
(PID.TID 0000.0001)                 2.843831374540652E+05,      /* J = 18 */
(PID.TID 0000.0001)                 2.931139983728740E+05,      /* J = 19 */
(PID.TID 0000.0001)                 3.010414541962470E+05,      /* J = 20 */
(PID.TID 0000.0001)                 3.081437763188029E+05,      /* J = 21 */
(PID.TID 0000.0001)                 3.144014977692803E+05,      /* J = 22 */
(PID.TID 0000.0001)                 3.197974665681523E+05,      /* J = 23 */
(PID.TID 0000.0001)                 3.243168927400103E+05,      /* J = 24 */
(PID.TID 0000.0001)                 3.279473888518588E+05,      /* J = 25 */
(PID.TID 0000.0001)                 3.306790039662077E+05,      /* J = 26 */
(PID.TID 0000.0001)                 3.325042509159012E+05,      /* J = 27 */
(PID.TID 0000.0001)     2 @  3.334181268259212E+05,             /* J = 28: 29 */
(PID.TID 0000.0001)                 3.325042509159012E+05,      /* J = 30 */
(PID.TID 0000.0001)                 3.306790039662077E+05,      /* J = 31 */
(PID.TID 0000.0001)                 3.279473888518588E+05,      /* J = 32 */
(PID.TID 0000.0001)                 3.243168927400103E+05,      /* J = 33 */
(PID.TID 0000.0001)                 3.197974665681523E+05,      /* J = 34 */
(PID.TID 0000.0001)                 3.144014977692803E+05,      /* J = 35 */
(PID.TID 0000.0001)                 3.081437763188029E+05,      /* J = 36 */
(PID.TID 0000.0001)                 3.010414541962470E+05,      /* J = 37 */
(PID.TID 0000.0001)                 2.931139983728740E+05,      /* J = 38 */
(PID.TID 0000.0001)                 2.843831374540652E+05,      /* J = 39 */
(PID.TID 0000.0001)                 2.748728021227243E+05,      /* J = 40 */
(PID.TID 0000.0001)                 2.646090595469393E+05,      /* J = 41 */
(PID.TID 0000.0001)                 2.536200419316863E+05,      /* J = 42 */
(PID.TID 0000.0001)                 2.419358694104115E+05,      /* J = 43 */
(PID.TID 0000.0001)                 2.295885674878389E+05,      /* J = 44 */
(PID.TID 0000.0001)                 2.166119792602878E+05,      /* J = 45 */
(PID.TID 0000.0001)                 2.030416726540983E+05,      /* J = 46 */
(PID.TID 0000.0001)                 1.889148429364175E+05,      /* J = 47 */
(PID.TID 0000.0001)                 1.742702107655578E+05,      /* J = 48 */
(PID.TID 0000.0001)                 1.591479160603634E+05,      /* J = 49 */
(PID.TID 0000.0001)                 1.435894079794837E+05,      /* J = 50 */
(PID.TID 0000.0001)                 1.276373313121096E+05,      /* J = 51 */
(PID.TID 0000.0001)                 1.113354095915710E+05,      /* J = 52 */
(PID.TID 0000.0001)                 9.472832525217145E+04,      /* J = 53 */
(PID.TID 0000.0001)                 7.786159715774079E+04,      /* J = 54 */
(PID.TID 0000.0001)                 6.078145583759403E+04,      /* J = 55 */
(PID.TID 0000.0001)                 4.353471677186367E+04       /* J = 56 */
(PID.TID 0000.0001)     ;
(PID.TID 0000.0001) dyF =  /* dyF(:,1,:,1) ( units: m ) */
(PID.TID 0000.0001)                 3.335324200561164E+05       /* I =  1 */
(PID.TID 0000.0001)     ;
(PID.TID 0000.0001) dyF =  /* dyF(1,:,1,:) ( units: m ) */
(PID.TID 0000.0001)    56 @  3.335324200561164E+05              /* J =  1: 56 */
(PID.TID 0000.0001)     ;
(PID.TID 0000.0001) dxG =  /* dxG(:,1,:,1) ( units: m ) */
(PID.TID 0000.0001)                 3.486363131840732E+04       /* I =  1 */
(PID.TID 0000.0001)     ;
(PID.TID 0000.0001) dxG =  /* dxG(1,:,1,:) ( units: m ) */
(PID.TID 0000.0001)                 3.486363131840732E+04,      /* J =  1 */
(PID.TID 0000.0001)                 5.217596570505216E+04,      /* J =  2 */
(PID.TID 0000.0001)                 6.934528939640634E+04,      /* J =  3 */
(PID.TID 0000.0001)                 8.632454246965688E+04,      /* J =  4 */
(PID.TID 0000.0001)                 1.030671859723435E+05,      /* J =  5 */
(PID.TID 0000.0001)                 1.195273294823923E+05,      /* J =  6 */
(PID.TID 0000.0001)                 1.356598568905725E+05,      /* J =  7 */
(PID.TID 0000.0001)                 1.514205500606167E+05,      /* J =  8 */
(PID.TID 0000.0001)                 1.667662100280583E+05,      /* J =  9 */
(PID.TID 0000.0001)                 1.816547754055899E+05,      /* J = 10 */
(PID.TID 0000.0001)                 1.960454376704035E+05,      /* J = 11 */
(PID.TID 0000.0001)                 2.098987530175138E+05,      /* J = 12 */
(PID.TID 0000.0001)                 2.231767504724866E+05,      /* J = 13 */
(PID.TID 0000.0001)                 2.358430359672399E+05,      /* J = 14 */
(PID.TID 0000.0001)                 2.478628920936556E+05,      /* J = 15 */
(PID.TID 0000.0001)                 2.592033732615808E+05,      /* J = 16 */
(PID.TID 0000.0001)                 2.698333960004017E+05,      /* J = 17 */
(PID.TID 0000.0001)                 2.797238241566748E+05,      /* J = 18 */
(PID.TID 0000.0001)                 2.888475487542992E+05,      /* J = 19 */
(PID.TID 0000.0001)                 2.971795622983349E+05,      /* J = 20 */
(PID.TID 0000.0001)                 3.046970273188090E+05,      /* J = 21 */
(PID.TID 0000.0001)                 3.113793389666330E+05,      /* J = 22 */
(PID.TID 0000.0001)                 3.172081814900618E+05,      /* J = 23 */
(PID.TID 0000.0001)                 3.221675784368968E+05,      /* J = 24 */
(PID.TID 0000.0001)                 3.262439364448300E+05,      /* J = 25 */
(PID.TID 0000.0001)                 3.294260824999061E+05,      /* J = 26 */
(PID.TID 0000.0001)                 3.317052945609759E+05,      /* J = 27 */
(PID.TID 0000.0001)                 3.330753254662066E+05,      /* J = 28 */
(PID.TID 0000.0001)                 3.335324200561164E+05,      /* J = 29 */
(PID.TID 0000.0001)                 3.330753254662066E+05,      /* J = 30 */
(PID.TID 0000.0001)                 3.317052945609759E+05,      /* J = 31 */
(PID.TID 0000.0001)                 3.294260824999061E+05,      /* J = 32 */
(PID.TID 0000.0001)                 3.262439364448300E+05,      /* J = 33 */
(PID.TID 0000.0001)                 3.221675784368968E+05,      /* J = 34 */
(PID.TID 0000.0001)                 3.172081814900618E+05,      /* J = 35 */
(PID.TID 0000.0001)                 3.113793389666330E+05,      /* J = 36 */
(PID.TID 0000.0001)                 3.046970273188090E+05,      /* J = 37 */
(PID.TID 0000.0001)                 2.971795622983349E+05,      /* J = 38 */
(PID.TID 0000.0001)                 2.888475487542992E+05,      /* J = 39 */
(PID.TID 0000.0001)                 2.797238241566748E+05,      /* J = 40 */
(PID.TID 0000.0001)                 2.698333960004017E+05,      /* J = 41 */
(PID.TID 0000.0001)                 2.592033732615808E+05,      /* J = 42 */
(PID.TID 0000.0001)                 2.478628920936556E+05,      /* J = 43 */
(PID.TID 0000.0001)                 2.358430359672399E+05,      /* J = 44 */
(PID.TID 0000.0001)                 2.231767504724866E+05,      /* J = 45 */
(PID.TID 0000.0001)                 2.098987530175138E+05,      /* J = 46 */
(PID.TID 0000.0001)                 1.960454376704035E+05,      /* J = 47 */
(PID.TID 0000.0001)                 1.816547754055899E+05,      /* J = 48 */
(PID.TID 0000.0001)                 1.667662100280583E+05,      /* J = 49 */
(PID.TID 0000.0001)                 1.514205500606167E+05,      /* J = 50 */
(PID.TID 0000.0001)                 1.356598568905725E+05,      /* J = 51 */
(PID.TID 0000.0001)                 1.195273294823923E+05,      /* J = 52 */
(PID.TID 0000.0001)                 1.030671859723435E+05,      /* J = 53 */
(PID.TID 0000.0001)                 8.632454246965688E+04,      /* J = 54 */
(PID.TID 0000.0001)                 6.934528939640634E+04,      /* J = 55 */
(PID.TID 0000.0001)                 5.217596570505216E+04       /* J = 56 */
(PID.TID 0000.0001)     ;
(PID.TID 0000.0001) dyG =  /* dyG(:,1,:,1) ( units: m ) */
(PID.TID 0000.0001)                 3.335324200561164E+05       /* I =  1 */
(PID.TID 0000.0001)     ;
(PID.TID 0000.0001) dyG =  /* dyG(1,:,1,:) ( units: m ) */
(PID.TID 0000.0001)    56 @  3.335324200561164E+05              /* J =  1: 56 */
(PID.TID 0000.0001)     ;
(PID.TID 0000.0001) dxC =  /* dxC(:,1,:,1) ( units: m ) */
(PID.TID 0000.0001)                 4.353471677186367E+04       /* I =  1 */
(PID.TID 0000.0001)     ;
(PID.TID 0000.0001) dxC =  /* dxC(1,:,1,:) ( units: m ) */
(PID.TID 0000.0001)                 4.353471677186367E+04,      /* J =  1 */
(PID.TID 0000.0001)                 6.078145583759403E+04,      /* J =  2 */
(PID.TID 0000.0001)                 7.786159715774079E+04,      /* J =  3 */
(PID.TID 0000.0001)                 9.472832525217145E+04,      /* J =  4 */
(PID.TID 0000.0001)                 1.113354095915710E+05,      /* J =  5 */
(PID.TID 0000.0001)                 1.276373313121096E+05,      /* J =  6 */
(PID.TID 0000.0001)                 1.435894079794837E+05,      /* J =  7 */
(PID.TID 0000.0001)                 1.591479160603634E+05,      /* J =  8 */
(PID.TID 0000.0001)                 1.742702107655578E+05,      /* J =  9 */
(PID.TID 0000.0001)                 1.889148429364175E+05,      /* J = 10 */
(PID.TID 0000.0001)                 2.030416726540983E+05,      /* J = 11 */
(PID.TID 0000.0001)                 2.166119792602878E+05,      /* J = 12 */
(PID.TID 0000.0001)                 2.295885674878389E+05,      /* J = 13 */
(PID.TID 0000.0001)                 2.419358694104115E+05,      /* J = 14 */
(PID.TID 0000.0001)                 2.536200419316863E+05,      /* J = 15 */
(PID.TID 0000.0001)                 2.646090595469393E+05,      /* J = 16 */
(PID.TID 0000.0001)                 2.748728021227243E+05,      /* J = 17 */
(PID.TID 0000.0001)                 2.843831374540652E+05,      /* J = 18 */
(PID.TID 0000.0001)                 2.931139983728740E+05,      /* J = 19 */
(PID.TID 0000.0001)                 3.010414541962470E+05,      /* J = 20 */
(PID.TID 0000.0001)                 3.081437763188029E+05,      /* J = 21 */
(PID.TID 0000.0001)                 3.144014977692803E+05,      /* J = 22 */
(PID.TID 0000.0001)                 3.197974665681523E+05,      /* J = 23 */
(PID.TID 0000.0001)                 3.243168927400103E+05,      /* J = 24 */
(PID.TID 0000.0001)                 3.279473888518588E+05,      /* J = 25 */
(PID.TID 0000.0001)                 3.306790039662077E+05,      /* J = 26 */
(PID.TID 0000.0001)                 3.325042509159012E+05,      /* J = 27 */
(PID.TID 0000.0001)     2 @  3.334181268259212E+05,             /* J = 28: 29 */
(PID.TID 0000.0001)                 3.325042509159012E+05,      /* J = 30 */
(PID.TID 0000.0001)                 3.306790039662077E+05,      /* J = 31 */
(PID.TID 0000.0001)                 3.279473888518588E+05,      /* J = 32 */
(PID.TID 0000.0001)                 3.243168927400103E+05,      /* J = 33 */
(PID.TID 0000.0001)                 3.197974665681523E+05,      /* J = 34 */
(PID.TID 0000.0001)                 3.144014977692803E+05,      /* J = 35 */
(PID.TID 0000.0001)                 3.081437763188029E+05,      /* J = 36 */
(PID.TID 0000.0001)                 3.010414541962470E+05,      /* J = 37 */
(PID.TID 0000.0001)                 2.931139983728740E+05,      /* J = 38 */
(PID.TID 0000.0001)                 2.843831374540652E+05,      /* J = 39 */
(PID.TID 0000.0001)                 2.748728021227243E+05,      /* J = 40 */
(PID.TID 0000.0001)                 2.646090595469393E+05,      /* J = 41 */
(PID.TID 0000.0001)                 2.536200419316863E+05,      /* J = 42 */
(PID.TID 0000.0001)                 2.419358694104115E+05,      /* J = 43 */
(PID.TID 0000.0001)                 2.295885674878389E+05,      /* J = 44 */
(PID.TID 0000.0001)                 2.166119792602878E+05,      /* J = 45 */
(PID.TID 0000.0001)                 2.030416726540983E+05,      /* J = 46 */
(PID.TID 0000.0001)                 1.889148429364175E+05,      /* J = 47 */
(PID.TID 0000.0001)                 1.742702107655578E+05,      /* J = 48 */
(PID.TID 0000.0001)                 1.591479160603634E+05,      /* J = 49 */
(PID.TID 0000.0001)                 1.435894079794837E+05,      /* J = 50 */
(PID.TID 0000.0001)                 1.276373313121096E+05,      /* J = 51 */
(PID.TID 0000.0001)                 1.113354095915710E+05,      /* J = 52 */
(PID.TID 0000.0001)                 9.472832525217145E+04,      /* J = 53 */
(PID.TID 0000.0001)                 7.786159715774079E+04,      /* J = 54 */
(PID.TID 0000.0001)                 6.078145583759403E+04,      /* J = 55 */
(PID.TID 0000.0001)                 4.353471677186367E+04       /* J = 56 */
(PID.TID 0000.0001)     ;
(PID.TID 0000.0001) dyC =  /* dyC(:,1,:,1) ( units: m ) */
(PID.TID 0000.0001)                 3.335324200561164E+05       /* I =  1 */
(PID.TID 0000.0001)     ;
(PID.TID 0000.0001) dyC =  /* dyC(1,:,1,:) ( units: m ) */
(PID.TID 0000.0001)    56 @  3.335324200561164E+05              /* J =  1: 56 */
(PID.TID 0000.0001)     ;
(PID.TID 0000.0001) dxV =  /* dxV(:,1,:,1) ( units: m ) */
(PID.TID 0000.0001)                 3.486363131840732E+04       /* I =  1 */
(PID.TID 0000.0001)     ;
(PID.TID 0000.0001) dxV =  /* dxV(1,:,1,:) ( units: m ) */
(PID.TID 0000.0001)                 3.486363131840732E+04,      /* J =  1 */
(PID.TID 0000.0001)                 5.217596570505216E+04,      /* J =  2 */
(PID.TID 0000.0001)                 6.934528939640634E+04,      /* J =  3 */
(PID.TID 0000.0001)                 8.632454246965688E+04,      /* J =  4 */
(PID.TID 0000.0001)                 1.030671859723435E+05,      /* J =  5 */
(PID.TID 0000.0001)                 1.195273294823923E+05,      /* J =  6 */
(PID.TID 0000.0001)                 1.356598568905725E+05,      /* J =  7 */
(PID.TID 0000.0001)                 1.514205500606167E+05,      /* J =  8 */
(PID.TID 0000.0001)                 1.667662100280583E+05,      /* J =  9 */
(PID.TID 0000.0001)                 1.816547754055899E+05,      /* J = 10 */
(PID.TID 0000.0001)                 1.960454376704035E+05,      /* J = 11 */
(PID.TID 0000.0001)                 2.098987530175138E+05,      /* J = 12 */
(PID.TID 0000.0001)                 2.231767504724866E+05,      /* J = 13 */
(PID.TID 0000.0001)                 2.358430359672399E+05,      /* J = 14 */
(PID.TID 0000.0001)                 2.478628920936556E+05,      /* J = 15 */
(PID.TID 0000.0001)                 2.592033732615808E+05,      /* J = 16 */
(PID.TID 0000.0001)                 2.698333960004017E+05,      /* J = 17 */
(PID.TID 0000.0001)                 2.797238241566748E+05,      /* J = 18 */
(PID.TID 0000.0001)                 2.888475487542992E+05,      /* J = 19 */
(PID.TID 0000.0001)                 2.971795622983349E+05,      /* J = 20 */
(PID.TID 0000.0001)                 3.046970273188090E+05,      /* J = 21 */
(PID.TID 0000.0001)                 3.113793389666330E+05,      /* J = 22 */
(PID.TID 0000.0001)                 3.172081814900618E+05,      /* J = 23 */
(PID.TID 0000.0001)                 3.221675784368968E+05,      /* J = 24 */
(PID.TID 0000.0001)                 3.262439364448300E+05,      /* J = 25 */
(PID.TID 0000.0001)                 3.294260824999061E+05,      /* J = 26 */
(PID.TID 0000.0001)                 3.317052945609759E+05,      /* J = 27 */
(PID.TID 0000.0001)                 3.330753254662066E+05,      /* J = 28 */
(PID.TID 0000.0001)                 3.335324200561164E+05,      /* J = 29 */
(PID.TID 0000.0001)                 3.330753254662066E+05,      /* J = 30 */
(PID.TID 0000.0001)                 3.317052945609759E+05,      /* J = 31 */
(PID.TID 0000.0001)                 3.294260824999061E+05,      /* J = 32 */
(PID.TID 0000.0001)                 3.262439364448300E+05,      /* J = 33 */
(PID.TID 0000.0001)                 3.221675784368968E+05,      /* J = 34 */
(PID.TID 0000.0001)                 3.172081814900618E+05,      /* J = 35 */
(PID.TID 0000.0001)                 3.113793389666330E+05,      /* J = 36 */
(PID.TID 0000.0001)                 3.046970273188090E+05,      /* J = 37 */
(PID.TID 0000.0001)                 2.971795622983349E+05,      /* J = 38 */
(PID.TID 0000.0001)                 2.888475487542992E+05,      /* J = 39 */
(PID.TID 0000.0001)                 2.797238241566748E+05,      /* J = 40 */
(PID.TID 0000.0001)                 2.698333960004017E+05,      /* J = 41 */
(PID.TID 0000.0001)                 2.592033732615808E+05,      /* J = 42 */
(PID.TID 0000.0001)                 2.478628920936556E+05,      /* J = 43 */
(PID.TID 0000.0001)                 2.358430359672399E+05,      /* J = 44 */
(PID.TID 0000.0001)                 2.231767504724866E+05,      /* J = 45 */
(PID.TID 0000.0001)                 2.098987530175138E+05,      /* J = 46 */
(PID.TID 0000.0001)                 1.960454376704035E+05,      /* J = 47 */
(PID.TID 0000.0001)                 1.816547754055899E+05,      /* J = 48 */
(PID.TID 0000.0001)                 1.667662100280583E+05,      /* J = 49 */
(PID.TID 0000.0001)                 1.514205500606167E+05,      /* J = 50 */
(PID.TID 0000.0001)                 1.356598568905725E+05,      /* J = 51 */
(PID.TID 0000.0001)                 1.195273294823923E+05,      /* J = 52 */
(PID.TID 0000.0001)                 1.030671859723435E+05,      /* J = 53 */
(PID.TID 0000.0001)                 8.632454246965688E+04,      /* J = 54 */
(PID.TID 0000.0001)                 6.934528939640634E+04,      /* J = 55 */
(PID.TID 0000.0001)                 5.217596570505216E+04       /* J = 56 */
(PID.TID 0000.0001)     ;
(PID.TID 0000.0001) dyU =  /* dyU(:,1,:,1) ( units: m ) */
(PID.TID 0000.0001)                 3.335324200561164E+05       /* I =  1 */
(PID.TID 0000.0001)     ;
(PID.TID 0000.0001) dyU =  /* dyU(1,:,1,:) ( units: m ) */
(PID.TID 0000.0001)    56 @  3.335324200561164E+05              /* J =  1: 56 */
(PID.TID 0000.0001)     ;
(PID.TID 0000.0001) rA  =  /* rA (:,1,:,1) ( units: m^2 ) */
(PID.TID 0000.0001)                 1.451858082901536E+10       /* I =  1 */
(PID.TID 0000.0001)     ;
(PID.TID 0000.0001) rA  =  /* rA (1,:,1,:) ( units: m^2 ) */
(PID.TID 0000.0001)                 1.451858082901536E+10,      /* J =  1 */
(PID.TID 0000.0001)                 2.027027037083401E+10,      /* J =  2 */
(PID.TID 0000.0001)                 2.596640051053460E+10,      /* J =  3 */
(PID.TID 0000.0001)                 3.159135855133891E+10,      /* J =  4 */
(PID.TID 0000.0001)                 3.712972687424187E+10,      /* J =  5 */
(PID.TID 0000.0001)                 4.256632519663855E+10,      /* J =  6 */
(PID.TID 0000.0001)                 4.788625218042016E+10,      /* J =  7 */
(PID.TID 0000.0001)                 5.307492627550761E+10,      /* J =  8 */
(PID.TID 0000.0001)                 5.811812568686684E+10,      /* J =  9 */
(PID.TID 0000.0001)                 6.300202735545998E+10,      /* J = 10 */
(PID.TID 0000.0001)                 6.771324484628893E+10,      /* J = 11 */
(PID.TID 0000.0001)                 7.223886503968413E+10,      /* J = 12 */
(PID.TID 0000.0001)                 7.656648352526761E+10,      /* J = 13 */
(PID.TID 0000.0001)                 8.068423860157887E+10,      /* J = 14 */
(PID.TID 0000.0001)                 8.458084378817659E+10,      /* J = 15 */
(PID.TID 0000.0001)                 8.824561876109258E+10,      /* J = 16 */
(PID.TID 0000.0001)                 9.166851862686266E+10,      /* J = 17 */
(PID.TID 0000.0001)                 9.484016145487706E+10,      /* J = 18 */
(PID.TID 0000.0001)                 9.775185399260217E+10,      /* J = 19 */
(PID.TID 0000.0001)                 1.003956154931817E+11,      /* J = 20 */
(PID.TID 0000.0001)                 1.027641995901083E+11,      /* J = 21 */
(PID.TID 0000.0001)                 1.048511141590102E+11,      /* J = 22 */
(PID.TID 0000.0001)                 1.066506391121138E+11,      /* J = 23 */
(PID.TID 0000.0001)                 1.081578420766062E+11,      /* J = 24 */
(PID.TID 0000.0001)                 1.093685919139261E+11,      /* J = 25 */
(PID.TID 0000.0001)                 1.102795700429274E+11,      /* J = 26 */
(PID.TID 0000.0001)                 1.108882795358801E+11,      /* J = 27 */
(PID.TID 0000.0001)     2 @  1.111930519623746E+11,             /* J = 28: 29 */
(PID.TID 0000.0001)                 1.108882795358801E+11,      /* J = 30 */
(PID.TID 0000.0001)                 1.102795700429274E+11,      /* J = 31 */
(PID.TID 0000.0001)                 1.093685919139261E+11,      /* J = 32 */
(PID.TID 0000.0001)                 1.081578420766062E+11,      /* J = 33 */
(PID.TID 0000.0001)                 1.066506391121138E+11,      /* J = 34 */
(PID.TID 0000.0001)                 1.048511141590102E+11,      /* J = 35 */
(PID.TID 0000.0001)                 1.027641995901083E+11,      /* J = 36 */
(PID.TID 0000.0001)                 1.003956154931817E+11,      /* J = 37 */
(PID.TID 0000.0001)                 9.775185399260217E+10,      /* J = 38 */
(PID.TID 0000.0001)                 9.484016145487706E+10,      /* J = 39 */
(PID.TID 0000.0001)                 9.166851862686266E+10,      /* J = 40 */
(PID.TID 0000.0001)                 8.824561876109258E+10,      /* J = 41 */
(PID.TID 0000.0001)                 8.458084378817659E+10,      /* J = 42 */
(PID.TID 0000.0001)                 8.068423860157887E+10,      /* J = 43 */
(PID.TID 0000.0001)                 7.656648352526761E+10,      /* J = 44 */
(PID.TID 0000.0001)                 7.223886503968413E+10,      /* J = 45 */
(PID.TID 0000.0001)                 6.771324484628893E+10,      /* J = 46 */
(PID.TID 0000.0001)                 6.300202735545998E+10,      /* J = 47 */
(PID.TID 0000.0001)                 5.811812568686684E+10,      /* J = 48 */
(PID.TID 0000.0001)                 5.307492627550761E+10,      /* J = 49 */
(PID.TID 0000.0001)                 4.788625218042016E+10,      /* J = 50 */
(PID.TID 0000.0001)                 4.256632519663855E+10,      /* J = 51 */
(PID.TID 0000.0001)                 3.712972687424187E+10,      /* J = 52 */
(PID.TID 0000.0001)                 3.159135855133891E+10,      /* J = 53 */
(PID.TID 0000.0001)                 2.596640051053460E+10,      /* J = 54 */
(PID.TID 0000.0001)                 2.027027037083401E+10,      /* J = 55 */
(PID.TID 0000.0001)                 1.451858082901536E+10       /* J = 56 */
(PID.TID 0000.0001)     ;
(PID.TID 0000.0001) rAw =  /* rAw(:,1,:,1) ( units: m^2 ) */
(PID.TID 0000.0001)                 1.451858082901536E+10       /* I =  1 */
(PID.TID 0000.0001)     ;
(PID.TID 0000.0001) rAw =  /* rAw(1,:,1,:) ( units: m^2 ) */
(PID.TID 0000.0001)                 1.451858082901536E+10,      /* J =  1 */
(PID.TID 0000.0001)                 2.027027037083401E+10,      /* J =  2 */
(PID.TID 0000.0001)                 2.596640051053460E+10,      /* J =  3 */
(PID.TID 0000.0001)                 3.159135855133891E+10,      /* J =  4 */
(PID.TID 0000.0001)                 3.712972687424187E+10,      /* J =  5 */
(PID.TID 0000.0001)                 4.256632519663855E+10,      /* J =  6 */
(PID.TID 0000.0001)                 4.788625218042016E+10,      /* J =  7 */
(PID.TID 0000.0001)                 5.307492627550761E+10,      /* J =  8 */
(PID.TID 0000.0001)                 5.811812568686684E+10,      /* J =  9 */
(PID.TID 0000.0001)                 6.300202735545998E+10,      /* J = 10 */
(PID.TID 0000.0001)                 6.771324484628893E+10,      /* J = 11 */
(PID.TID 0000.0001)                 7.223886503968413E+10,      /* J = 12 */
(PID.TID 0000.0001)                 7.656648352526761E+10,      /* J = 13 */
(PID.TID 0000.0001)                 8.068423860157887E+10,      /* J = 14 */
(PID.TID 0000.0001)                 8.458084378817659E+10,      /* J = 15 */
(PID.TID 0000.0001)                 8.824561876109258E+10,      /* J = 16 */
(PID.TID 0000.0001)                 9.166851862686266E+10,      /* J = 17 */
(PID.TID 0000.0001)                 9.484016145487706E+10,      /* J = 18 */
(PID.TID 0000.0001)                 9.775185399260217E+10,      /* J = 19 */
(PID.TID 0000.0001)                 1.003956154931817E+11,      /* J = 20 */
(PID.TID 0000.0001)                 1.027641995901083E+11,      /* J = 21 */
(PID.TID 0000.0001)                 1.048511141590102E+11,      /* J = 22 */
(PID.TID 0000.0001)                 1.066506391121138E+11,      /* J = 23 */
(PID.TID 0000.0001)                 1.081578420766062E+11,      /* J = 24 */
(PID.TID 0000.0001)                 1.093685919139261E+11,      /* J = 25 */
(PID.TID 0000.0001)                 1.102795700429274E+11,      /* J = 26 */
(PID.TID 0000.0001)                 1.108882795358801E+11,      /* J = 27 */
(PID.TID 0000.0001)     2 @  1.111930519623746E+11,             /* J = 28: 29 */
(PID.TID 0000.0001)                 1.108882795358801E+11,      /* J = 30 */
(PID.TID 0000.0001)                 1.102795700429274E+11,      /* J = 31 */
(PID.TID 0000.0001)                 1.093685919139261E+11,      /* J = 32 */
(PID.TID 0000.0001)                 1.081578420766062E+11,      /* J = 33 */
(PID.TID 0000.0001)                 1.066506391121138E+11,      /* J = 34 */
(PID.TID 0000.0001)                 1.048511141590102E+11,      /* J = 35 */
(PID.TID 0000.0001)                 1.027641995901083E+11,      /* J = 36 */
(PID.TID 0000.0001)                 1.003956154931817E+11,      /* J = 37 */
(PID.TID 0000.0001)                 9.775185399260217E+10,      /* J = 38 */
(PID.TID 0000.0001)                 9.484016145487706E+10,      /* J = 39 */
(PID.TID 0000.0001)                 9.166851862686266E+10,      /* J = 40 */
(PID.TID 0000.0001)                 8.824561876109258E+10,      /* J = 41 */
(PID.TID 0000.0001)                 8.458084378817659E+10,      /* J = 42 */
(PID.TID 0000.0001)                 8.068423860157887E+10,      /* J = 43 */
(PID.TID 0000.0001)                 7.656648352526761E+10,      /* J = 44 */
(PID.TID 0000.0001)                 7.223886503968413E+10,      /* J = 45 */
(PID.TID 0000.0001)                 6.771324484628893E+10,      /* J = 46 */
(PID.TID 0000.0001)                 6.300202735545998E+10,      /* J = 47 */
(PID.TID 0000.0001)                 5.811812568686684E+10,      /* J = 48 */
(PID.TID 0000.0001)                 5.307492627550761E+10,      /* J = 49 */
(PID.TID 0000.0001)                 4.788625218042016E+10,      /* J = 50 */
(PID.TID 0000.0001)                 4.256632519663855E+10,      /* J = 51 */
(PID.TID 0000.0001)                 3.712972687424187E+10,      /* J = 52 */
(PID.TID 0000.0001)                 3.159135855133891E+10,      /* J = 53 */
(PID.TID 0000.0001)                 2.596640051053460E+10,      /* J = 54 */
(PID.TID 0000.0001)                 2.027027037083401E+10,      /* J = 55 */
(PID.TID 0000.0001)                 1.451858082901536E+10       /* J = 56 */
(PID.TID 0000.0001)     ;
(PID.TID 0000.0001) rAs =  /* rAs(:,1,:,1) ( units: m^2 ) */
(PID.TID 0000.0001)                 1.162682306954695E+10       /* I =  1 */
(PID.TID 0000.0001)     ;
(PID.TID 0000.0001) rAs =  /* rAs(1,:,1,:) ( units: m^2 ) */
(PID.TID 0000.0001)                 1.162682306954695E+10,      /* J =  1 */
(PID.TID 0000.0001)                 1.740038827840316E+10,      /* J =  2 */
(PID.TID 0000.0001)                 2.312626023247488E+10,      /* J =  3 */
(PID.TID 0000.0001)                 2.878874471473547E+10,      /* J =  4 */
(PID.TID 0000.0001)                 3.437232124881438E+10,      /* J =  5 */
(PID.TID 0000.0001)                 3.986168563954120E+10,      /* J =  6 */
(PID.TID 0000.0001)                 4.524179192068169E+10,      /* J =  7 */
(PID.TID 0000.0001)                 5.049789359488558E+10,      /* J =  8 */
(PID.TID 0000.0001)                 5.561558405281213E+10,      /* J =  9 */
(PID.TID 0000.0001)                 6.058083606064116E+10,      /* J = 10 */
(PID.TID 0000.0001)                 6.538004020775079E+10,      /* J = 11 */
(PID.TID 0000.0001)                 7.000004220916154E+10,      /* J = 12 */
(PID.TID 0000.0001)                 7.442817896052029E+10,      /* J = 13 */
(PID.TID 0000.0001)                 7.865231324678772E+10,      /* J = 14 */
(PID.TID 0000.0001)                 8.266086700950050E+10,      /* J = 15 */
(PID.TID 0000.0001)                 8.644285308142711E+10,      /* J = 16 */
(PID.TID 0000.0001)                 8.998790530162651E+10,      /* J = 17 */
(PID.TID 0000.0001)                 9.328630692837677E+10,      /* J = 18 */
(PID.TID 0000.0001)                 9.632901727208771E+10,      /* J = 19 */
(PID.TID 0000.0001)                 9.910769647520410E+10,      /* J = 20 */
(PID.TID 0000.0001)                 1.016147283711733E+11,      /* J = 21 */
(PID.TID 0000.0001)                 1.038432413598305E+11,      /* J = 22 */
(PID.TID 0000.0001)                 1.057871272419753E+11,      /* J = 23 */
(PID.TID 0000.0001)                 1.074410579615233E+11,      /* J = 24 */
(PID.TID 0000.0001)                 1.088005002093347E+11,      /* J = 25 */
(PID.TID 0000.0001)                 1.098617278487027E+11,      /* J = 26 */
(PID.TID 0000.0001)                 1.106218321284322E+11,      /* J = 27 */
(PID.TID 0000.0001)                 1.110787296555271E+11,      /* J = 28 */
(PID.TID 0000.0001)                 1.112311681056240E+11,      /* J = 29 */
(PID.TID 0000.0001)                 1.110787296555271E+11,      /* J = 30 */
(PID.TID 0000.0001)                 1.106218321284322E+11,      /* J = 31 */
(PID.TID 0000.0001)                 1.098617278487027E+11,      /* J = 32 */
(PID.TID 0000.0001)                 1.088005002093347E+11,      /* J = 33 */
(PID.TID 0000.0001)                 1.074410579615233E+11,      /* J = 34 */
(PID.TID 0000.0001)                 1.057871272419753E+11,      /* J = 35 */
(PID.TID 0000.0001)                 1.038432413598305E+11,      /* J = 36 */
(PID.TID 0000.0001)                 1.016147283711733E+11,      /* J = 37 */
(PID.TID 0000.0001)                 9.910769647520410E+10,      /* J = 38 */
(PID.TID 0000.0001)                 9.632901727208771E+10,      /* J = 39 */
(PID.TID 0000.0001)                 9.328630692837677E+10,      /* J = 40 */
(PID.TID 0000.0001)                 8.998790530162651E+10,      /* J = 41 */
(PID.TID 0000.0001)                 8.644285308142711E+10,      /* J = 42 */
(PID.TID 0000.0001)                 8.266086700950050E+10,      /* J = 43 */
(PID.TID 0000.0001)                 7.865231324678772E+10,      /* J = 44 */
(PID.TID 0000.0001)                 7.442817896052029E+10,      /* J = 45 */
(PID.TID 0000.0001)                 7.000004220916154E+10,      /* J = 46 */
(PID.TID 0000.0001)                 6.538004020775079E+10,      /* J = 47 */
(PID.TID 0000.0001)                 6.058083606064116E+10,      /* J = 48 */
(PID.TID 0000.0001)                 5.561558405281213E+10,      /* J = 49 */
(PID.TID 0000.0001)                 5.049789359488558E+10,      /* J = 50 */
(PID.TID 0000.0001)                 4.524179192068169E+10,      /* J = 51 */
(PID.TID 0000.0001)                 3.986168563954120E+10,      /* J = 52 */
(PID.TID 0000.0001)                 3.437232124881438E+10,      /* J = 53 */
(PID.TID 0000.0001)                 2.878874471473547E+10,      /* J = 54 */
(PID.TID 0000.0001)                 2.312626023247488E+10,      /* J = 55 */
(PID.TID 0000.0001)                 1.740038827840316E+10       /* J = 56 */
(PID.TID 0000.0001)     ;
(PID.TID 0000.0001) globalArea = /* Integrated horizontal Area (m^2) */
(PID.TID 0000.0001)                 4.196888291048803E+12
(PID.TID 0000.0001)     ;
(PID.TID 0000.0001) // =======================================================
(PID.TID 0000.0001) // End of Model config. summary
(PID.TID 0000.0001) // =======================================================
(PID.TID 0000.0001) 
(PID.TID 0000.0001) == Packages configuration : Check & print summary ==
(PID.TID 0000.0001) 
(PID.TID 0000.0001) GAD_CHECK: #define ALLOW_GENERIC_ADVDIFF
(PID.TID 0000.0001) GMREDI_CHECK: #define GMREDI
(PID.TID 0000.0001) GM_AdvForm =     /* if FALSE => use SkewFlux Form */
(PID.TID 0000.0001)                   T
(PID.TID 0000.0001)     ;
(PID.TID 0000.0001) GM_InMomAsStress = /* if TRUE => apply as Eddy Stress */
(PID.TID 0000.0001)                   F
(PID.TID 0000.0001)     ;
(PID.TID 0000.0001) GM_AdvSeparate = /* Calc Bolus & Euler Adv. separately */
(PID.TID 0000.0001)                   F
(PID.TID 0000.0001)     ;
(PID.TID 0000.0001) GM_ExtraDiag =   /* Tensor Extra Diag (line 1&2) non 0 */
(PID.TID 0000.0001)                   T
(PID.TID 0000.0001)     ;
(PID.TID 0000.0001) GM_isopycK =    /* Background Isopyc. Diffusivity [m^2/s] */
(PID.TID 0000.0001)                 1.000000000000000E+01
(PID.TID 0000.0001)     ;
(PID.TID 0000.0001) GM_skewflx*K =  /* Background GM_SkewFlx Diffusivity [m^2/s] */
(PID.TID 0000.0001)                 0.000000000000000E+00
(PID.TID 0000.0001)     ;
(PID.TID 0000.0001) GM_advec*K =    /* Backg. GM-Advec(=Bolus) Diffusivity [m^2/s]*/
(PID.TID 0000.0001)                 1.000000000000000E+01
(PID.TID 0000.0001)     ;
(PID.TID 0000.0001) GM_Kmin_horiz = /* Minimum Horizontal Diffusivity [m^2/s] */
(PID.TID 0000.0001)                 1.000000000000000E+01
(PID.TID 0000.0001)     ;
(PID.TID 0000.0001) GM_Visbeck_alpha = /* Visbeck alpha coeff. [-] */
(PID.TID 0000.0001)                 1.000000000000000E-02
(PID.TID 0000.0001)     ;
(PID.TID 0000.0001) GM_Small_Number =  /* epsilon used in slope calc */
(PID.TID 0000.0001)                 1.000000000000000E-18
(PID.TID 0000.0001)     ;
(PID.TID 0000.0001) GM_slopeSqCutoff = /* Slope^2 cut-off value */
(PID.TID 0000.0001)                 1.000000000000000E+48
(PID.TID 0000.0001)     ;
(PID.TID 0000.0001) GM_taper_scheme =  /* Type of Tapering/Clipping scheme */
(PID.TID 0000.0001)               'linear                                  '
(PID.TID 0000.0001)     ;
(PID.TID 0000.0001) GM_maxSlope =  /* Maximum Slope (Tapering/Clipping) */
(PID.TID 0000.0001)                 1.000000000000000E-02
(PID.TID 0000.0001)     ;
(PID.TID 0000.0001) GM_facTrL2dz = /* Minimum Trans.Layer Thick. (factor of dz) */
(PID.TID 0000.0001)                 1.000000000000000E+00
(PID.TID 0000.0001)     ;
(PID.TID 0000.0001) GM_facTrL2ML = /* Max.Trans.Layer Thick. (factor of MxL Depth)*/
(PID.TID 0000.0001)                 5.000000000000000E+00
(PID.TID 0000.0001)     ;
(PID.TID 0000.0001) GM_maxTransLay = /* Maximum Transition Layer Thickness [m] */
(PID.TID 0000.0001)                 5.000000000000000E+02
(PID.TID 0000.0001)     ;
(PID.TID 0000.0001) // =======================================================
(PID.TID 0000.0001) // CONFIG_CHECK : Normal End
(PID.TID 0000.0001) // =======================================================
(PID.TID 0000.0001) 
(PID.TID 0000.0001)  MDS_READ_META: opening file: pickup.0000036000.meta
(PID.TID 0000.0001)  nRecords =   0 ; filePrec =  64 ; fileIter =         0
(PID.TID 0000.0001)     nDims =   0 , dims:
(PID.TID 0000.0001)     nFlds =   0 , nFl3D =   0 , fields:
(PID.TID 0000.0001)   nTimRec =   0 , timeList:
(PID.TID 0000.0001)  MDS_READ_FIELD: opening global file: pickup.0000036000
(PID.TID 0000.0001)  MDS_READ_FIELD: opening global file: pickup.0000036000
(PID.TID 0000.0001)  MDS_READ_FIELD: opening global file: pickup.0000036000
(PID.TID 0000.0001)  MDS_READ_FIELD: opening global file: pickup.0000036000
(PID.TID 0000.0001)  MDS_READ_FIELD: opening global file: pickup.0000036000
(PID.TID 0000.0001)  MDS_READ_FIELD: opening global file: pickup.0000036000
(PID.TID 0000.0001)  MDS_READ_FIELD: opening global file: pickup.0000036000
(PID.TID 0000.0001)  MDS_READ_FIELD: opening global file: pickup.0000036000
(PID.TID 0000.0001)  MDS_READ_FIELD: opening global file: pickup.0000036000
(PID.TID 0000.0001)  MDS_READ_FIELD: opening global file: pickup.0000036000
(PID.TID 0000.0001)  MDS_READ_FIELD: opening global file: pickup.0000036000
(PID.TID 0000.0001)  MDS_READ_FIELD: opening global file: pickup.0000036000
(PID.TID 0000.0001)  MDS_READ_FIELD: opening global file: pickup.0000036000
(PID.TID 0000.0001) READ_MFLDS_CHECK: - normal end ; reset MFLDS file-name: pickup.0000036000
(PID.TID 0000.0001)  MDS_READ_FIELD: opening global file: taux_sl.bin
(PID.TID 0000.0001)  MDS_READ_FIELD: opening global file: sst_sl.bin
(PID.TID 0000.0001)  write diagnostics summary to file ioUnit:      6
Iter.Nb:     36000 ; Time(s):  3.1104000000000E+09
------------------------------------------------------------------------
2D/3D diagnostics: Number of lists:     4
------------------------------------------------------------------------
listId=    1 ; file name: surfDiag
 nFlds, nActive,       freq     &     phase        , nLev               
    6  |    6  |   -864000.000000    432000.000000 |   1
 levels:   1
 diag# | name   |   ipt  |  iMate | kLev|   count |   mate.C|           
    23 |ETAN    |      1 |      0 |   1 |       0 |
    24 |ETANSQ  |      2 |      0 |   1 |       0 |
    25 |DETADT2 |      3 |      0 |   1 |       0 |
    69 |PHIBOT  |      4 |      0 |   1 |       0 |
    70 |PHIBOTSQ|      5 |      0 |   1 |       0 |
   171 |GM_VisbK|      6 |      0 |   1 |       0 |
------------------------------------------------------------------------
listId=    2 ; file name: dynDiag
 nFlds, nActive,       freq     &     phase        , nLev               
   12  |   12  |   1728000.000000         0.000000 |  15
 levels:   1   2   3   4   5   6   7   8   9  10  11  12  13  14  15
 diag# | name   |   ipt  |  iMate | kLev|   count |   mate.C|           
    30 |UVEL    |      7 |     22 |  15 |       0 |       0 |
    31 |VVEL    |     22 |      7 |  15 |       0 |       0 |
    32 |WVEL    |     37 |      0 |  15 |       0 |
    67 |PHIHYD  |     52 |      0 |  15 |       0 |
    46 |VVELMASS|     67 |      0 |  15 |       0 |
    26 |THETA   |     82 |      0 |  15 |       0 |
    49 |VTHMASS |     97 |      0 |  15 |       0 |
    50 |WTHMASS |    112 |      0 |  15 |       0 |
    33 |THETASQ |    127 |      0 |  15 |       0 |
    36 |UVELSQ  |    142 |      0 |  15 |       0 |
    42 |UV_VEL_Z|    157 |    157 |  15 |       0 |       0 |
    43 |WU_VEL  |    172 |      0 |  15 |       0 |
------------------------------------------------------------------------
listId=    3 ; file name: oceDiag
 nFlds, nActive,       freq     &     phase        , nLev               
    7  |    7  |    864000.000000         0.000000 |  12
 levels:   2   3   4   5   6   7   8   9  10  11  12  13
 diag# | name   |   ipt  |  iMate | kLev|   count |   mate.C|           
    72 |DRHODR  |    187 |      0 |  15 |       0 |
    62 |RHOAnoma|    202 |      0 |  15 |       0 |
   183 |GM_PsiY |    217 |      0 |  15 |       0 |
   176 |GM_Kvy  |    232 |      0 |  15 |       0 |
   178 |GM_Kvz  |    247 |      0 |  15 |       0 |
   180 |GM_Kwy  |    262 |      0 |  15 |       0 |
   181 |GM_Kwz  |    277 |      0 |  15 |       0 |
------------------------------------------------------------------------
listId=    4 ; file name: flxDiag
 nFlds, nActive,       freq     &     phase        , nLev               
    5  |    5  |   1728000.000000         0.000000 |  15
 levels:   1   2   3   4   5   6   7   8   9  10  11  12  13  14  15
 diag# | name   |   ipt  |  iMate | kLev|   count |   mate.C|           
    97 |ADVy_TH |    292 |      0 |  15 |       0 |
    95 |ADVr_TH |    307 |      0 |  15 |       0 |
   100 |DFyE_TH |    322 |      0 |  15 |       0 |
    98 |DFrE_TH |    337 |      0 |  15 |       0 |
   101 |DFrI_TH |    352 |      0 |  15 |       0 |
------------------------------------------------------------------------
Global & Regional Statistics diagnostics: Number of lists:     1
------------------------------------------------------------------------
listId=   1 ; file name: dynStDiag
 nFlds, nActive,       freq     &     phase        |                    
    5  |    5  |   -864000.000000         0.000000 |
 Regions:   0
 diag# | name   |   ipt  |  iMate |    Volume   |   mate-Vol. |         
    23 |ETAN    |      1 |      0 | 0.00000E+00 |
    30 |UVEL    |      2 |      0 | 0.00000E+00 |
    31 |VVEL    |     17 |      0 | 0.00000E+00 |
    32 |WVEL    |     32 |      0 | 0.00000E+00 |
    26 |THETA   |     47 |      0 | 0.00000E+00 |
------------------------------------------------------------------------
(PID.TID 0000.0001)  MDS_READ_FIELD: opening global file: pickup_cd.0000036000
(PID.TID 0000.0001)  MDS_READ_FIELD: opening global file: pickup_cd.0000036000
(PID.TID 0000.0001)  MDS_READ_FIELD: opening global file: pickup_cd.0000036000
(PID.TID 0000.0001)  MDS_READ_FIELD: opening global file: pickup_cd.0000036000
(PID.TID 0000.0001)  MDS_READ_FIELD: opening global file: pickup_cd.0000036000
(PID.TID 0000.0001) // =======================================================
(PID.TID 0000.0001) // Model current state
(PID.TID 0000.0001) // =======================================================
(PID.TID 0000.0001) 
(PID.TID 0000.0001) // =======================================================
(PID.TID 0000.0001) // Begin MONITOR dynamic field statistics
(PID.TID 0000.0001) // =======================================================
(PID.TID 0000.0001) %MON time_tsnumber                =                 36000
(PID.TID 0000.0001) %MON time_secondsf                =   3.1104000000000E+09
(PID.TID 0000.0001) %MON dynstat_eta_max              =   1.6201005177854E+00
(PID.TID 0000.0001) %MON dynstat_eta_min              =  -3.9377441396023E+00
(PID.TID 0000.0001) %MON dynstat_eta_mean             =  -2.2337978401749E-16
(PID.TID 0000.0001) %MON dynstat_eta_sd               =   1.6563991723224E+00
(PID.TID 0000.0001) %MON dynstat_eta_del2             =   1.3977066220033E-02
(PID.TID 0000.0001) %MON dynstat_uvel_max             =   1.4272657430544E-01
(PID.TID 0000.0001) %MON dynstat_uvel_min             =  -3.8630916679110E-01
(PID.TID 0000.0001) %MON dynstat_uvel_mean            =   1.2659893360806E-02
(PID.TID 0000.0001) %MON dynstat_uvel_sd              =   3.8710511996223E-02
(PID.TID 0000.0001) %MON dynstat_uvel_del2            =   6.1842820168116E-04
(PID.TID 0000.0001) %MON dynstat_vvel_max             =   2.2999750655636E-02
(PID.TID 0000.0001) %MON dynstat_vvel_min             =  -2.2999750655604E-02
(PID.TID 0000.0001) %MON dynstat_vvel_mean            =   1.0386723279140E-15
(PID.TID 0000.0001) %MON dynstat_vvel_sd              =   1.5486266626369E-03
(PID.TID 0000.0001) %MON dynstat_vvel_del2            =   7.2795151559418E-05
(PID.TID 0000.0001) %MON dynstat_wvel_max             =   1.3691712526229E-06
(PID.TID 0000.0001) %MON dynstat_wvel_min             =  -8.1261601801594E-07
(PID.TID 0000.0001) %MON dynstat_wvel_mean            =   1.3909277297647E-23
(PID.TID 0000.0001) %MON dynstat_wvel_sd              =   2.5358259198888E-07
(PID.TID 0000.0001) %MON dynstat_wvel_del2            =   3.6741344623394E-08
(PID.TID 0000.0001) %MON dynstat_theta_max            =   2.6657021468384E+01
(PID.TID 0000.0001) %MON dynstat_theta_min            =  -9.3075890930299E-01
(PID.TID 0000.0001) %MON dynstat_theta_mean           =   2.2239378147708E+00
(PID.TID 0000.0001) %MON dynstat_theta_sd             =   3.9264791989428E+00
(PID.TID 0000.0001) %MON dynstat_theta_del2           =   4.1714222085658E-02
(PID.TID 0000.0001) %MON dynstat_salt_max             =   3.4700000000000E+01
(PID.TID 0000.0001) %MON dynstat_salt_min             =   3.4700000000000E+01
(PID.TID 0000.0001) %MON dynstat_salt_mean            =   3.4700000000000E+01
(PID.TID 0000.0001) %MON dynstat_salt_sd              =   7.1054273576010E-15
(PID.TID 0000.0001) %MON dynstat_salt_del2            =   0.0000000000000E+00
(PID.TID 0000.0001) %MON extforcing_qnet_max          =   0.0000000000000E+00
(PID.TID 0000.0001) %MON extforcing_qnet_min          =   0.0000000000000E+00
(PID.TID 0000.0001) %MON extforcing_qnet_mean         =   0.0000000000000E+00
(PID.TID 0000.0001) %MON extforcing_qnet_sd           =   0.0000000000000E+00
(PID.TID 0000.0001) %MON extforcing_qnet_del2         =   0.0000000000000E+00
(PID.TID 0000.0001) %MON extforcing_qsw_max           =   0.0000000000000E+00
(PID.TID 0000.0001) %MON extforcing_qsw_min           =   0.0000000000000E+00
(PID.TID 0000.0001) %MON extforcing_qsw_mean          =   0.0000000000000E+00
(PID.TID 0000.0001) %MON extforcing_qsw_sd            =   0.0000000000000E+00
(PID.TID 0000.0001) %MON extforcing_qsw_del2          =   0.0000000000000E+00
(PID.TID 0000.0001) %MON extforcing_empmr_max         =   0.0000000000000E+00
(PID.TID 0000.0001) %MON extforcing_empmr_min         =   0.0000000000000E+00
(PID.TID 0000.0001) %MON extforcing_empmr_mean        =   0.0000000000000E+00
(PID.TID 0000.0001) %MON extforcing_empmr_sd          =   0.0000000000000E+00
(PID.TID 0000.0001) %MON extforcing_empmr_del2        =   0.0000000000000E+00
(PID.TID 0000.0001) %MON advcfl_uvel_max              =   1.0010587105295E-01
(PID.TID 0000.0001) %MON advcfl_vvel_max              =   5.9579769076500E-03
(PID.TID 0000.0001) %MON advcfl_wvel_max              =   1.9716066037770E-03
(PID.TID 0000.0001) %MON advcfl_W_hf_max              =   2.3659279245324E-03
(PID.TID 0000.0001) %MON pe_b_mean                    =   2.5880083768528E-03
(PID.TID 0000.0001) %MON ke_max                       =   7.4646746291426E-02
(PID.TID 0000.0001) %MON ke_mean                      =   8.3067694548141E-04
(PID.TID 0000.0001) %MON ke_vol                       =   2.1823819113454E+16
(PID.TID 0000.0001) %MON vort_r_min                   =  -1.7696079550502E-07
(PID.TID 0000.0001) %MON vort_r_max                   =   1.7696079550484E-07
(PID.TID 0000.0001) %MON vort_a_mean                  =   2.7861254556126E-21
(PID.TID 0000.0001) %MON vort_a_sd                    =   8.3264729252745E-05
(PID.TID 0000.0001) %MON vort_p_mean                  =   2.8034944168185E-21
(PID.TID 0000.0001) %MON vort_p_sd                    =   8.6550954127805E-05
(PID.TID 0000.0001) %MON surfExpan_theta_mean         =   8.7743901385969E-09
(PID.TID 0000.0001) %MON surfExpan_salt_mean          =  -6.3105052789025E-22
(PID.TID 0000.0001) // =======================================================
(PID.TID 0000.0001) // End MONITOR dynamic field statistics
(PID.TID 0000.0001) // =======================================================
 cg2d: Sum(rhs),rhsMax =   1.77635683940025E-14  1.48268842264243E+00
(PID.TID 0000.0001)                    cg2d_init_res =    2.44540880751422E-03
(PID.TID 0000.0001)                       cg2d_iters =    27
(PID.TID 0000.0001)                         cg2d_res =    4.64761571140316E-18
(PID.TID 0000.0001) // =======================================================
(PID.TID 0000.0001) // Begin MONITOR dynamic field statistics
(PID.TID 0000.0001) // =======================================================
(PID.TID 0000.0001) %MON time_tsnumber                =                 36001
(PID.TID 0000.0001) %MON time_secondsf                =   3.1104864000000E+09
(PID.TID 0000.0001) %MON dynstat_eta_max              =   1.6196962635487E+00
(PID.TID 0000.0001) %MON dynstat_eta_min              =  -3.9375476269002E+00
(PID.TID 0000.0001) %MON dynstat_eta_mean             =  -3.7229964002914E-16
(PID.TID 0000.0001) %MON dynstat_eta_sd               =   1.6560833372467E+00
(PID.TID 0000.0001) %MON dynstat_eta_del2             =   1.3973330763589E-02
(PID.TID 0000.0001) %MON dynstat_uvel_max             =   1.4273584335081E-01
(PID.TID 0000.0001) %MON dynstat_uvel_min             =  -3.8630889365595E-01
(PID.TID 0000.0001) %MON dynstat_uvel_mean            =   1.2664017650877E-02
(PID.TID 0000.0001) %MON dynstat_uvel_sd              =   3.8711845401339E-02
(PID.TID 0000.0001) %MON dynstat_uvel_del2            =   6.1844490565322E-04
(PID.TID 0000.0001) %MON dynstat_vvel_max             =   2.3013469555000E-02
(PID.TID 0000.0001) %MON dynstat_vvel_min             =  -2.3013469554968E-02
(PID.TID 0000.0001) %MON dynstat_vvel_mean            =   8.6938720936294E-16
(PID.TID 0000.0001) %MON dynstat_vvel_sd              =   1.5493091647320E-03
(PID.TID 0000.0001) %MON dynstat_vvel_del2            =   7.2807455714831E-05
(PID.TID 0000.0001) %MON dynstat_wvel_max             =   1.4062161908956E-06
(PID.TID 0000.0001) %MON dynstat_wvel_min             =  -8.9651107050616E-07
(PID.TID 0000.0001) %MON dynstat_wvel_mean            =  -1.4641344523839E-23
(PID.TID 0000.0001) %MON dynstat_wvel_sd              =   2.6253856714937E-07
(PID.TID 0000.0001) %MON dynstat_wvel_del2            =   3.6990681138874E-08
(PID.TID 0000.0001) %MON dynstat_theta_max            =   2.6657621292075E+01
(PID.TID 0000.0001) %MON dynstat_theta_min            =  -9.3076620624941E-01
(PID.TID 0000.0001) %MON dynstat_theta_mean           =   2.2239455622678E+00
(PID.TID 0000.0001) %MON dynstat_theta_sd             =   3.9265306285016E+00
(PID.TID 0000.0001) %MON dynstat_theta_del2           =   4.1716889561196E-02
(PID.TID 0000.0001) %MON dynstat_salt_max             =   3.4700000000000E+01
(PID.TID 0000.0001) %MON dynstat_salt_min             =   3.4700000000000E+01
(PID.TID 0000.0001) %MON dynstat_salt_mean            =   3.4700000000000E+01
(PID.TID 0000.0001) %MON dynstat_salt_sd              =   7.1054273576010E-15
(PID.TID 0000.0001) %MON dynstat_salt_del2            =   0.0000000000000E+00
(PID.TID 0000.0001) %MON extforcing_qnet_max          =   0.0000000000000E+00
(PID.TID 0000.0001) %MON extforcing_qnet_min          =   0.0000000000000E+00
(PID.TID 0000.0001) %MON extforcing_qnet_mean         =   0.0000000000000E+00
(PID.TID 0000.0001) %MON extforcing_qnet_sd           =   0.0000000000000E+00
(PID.TID 0000.0001) %MON extforcing_qnet_del2         =   0.0000000000000E+00
(PID.TID 0000.0001) %MON extforcing_qsw_max           =   0.0000000000000E+00
(PID.TID 0000.0001) %MON extforcing_qsw_min           =   0.0000000000000E+00
(PID.TID 0000.0001) %MON extforcing_qsw_mean          =   0.0000000000000E+00
(PID.TID 0000.0001) %MON extforcing_qsw_sd            =   0.0000000000000E+00
(PID.TID 0000.0001) %MON extforcing_qsw_del2          =   0.0000000000000E+00
(PID.TID 0000.0001) %MON extforcing_empmr_max         =   0.0000000000000E+00
(PID.TID 0000.0001) %MON extforcing_empmr_min         =   0.0000000000000E+00
(PID.TID 0000.0001) %MON extforcing_empmr_mean        =   0.0000000000000E+00
(PID.TID 0000.0001) %MON extforcing_empmr_sd          =   0.0000000000000E+00
(PID.TID 0000.0001) %MON extforcing_empmr_del2        =   0.0000000000000E+00
(PID.TID 0000.0001) %MON advcfl_uvel_max              =   1.0010580027432E-01
(PID.TID 0000.0001) %MON advcfl_vvel_max              =   5.9615307238123E-03
(PID.TID 0000.0001) %MON advcfl_wvel_max              =   2.0249513148897E-03
(PID.TID 0000.0001) %MON advcfl_W_hf_max              =   2.4299415778677E-03
(PID.TID 0000.0001) %MON pe_b_mean                    =   2.5870215303153E-03
(PID.TID 0000.0001) %MON ke_max                       =   7.4646629771495E-02
(PID.TID 0000.0001) %MON ke_mean                      =   8.3078184915390E-04
(PID.TID 0000.0001) %MON ke_vol                       =   2.1823819113454E+16
(PID.TID 0000.0001) %MON vort_r_min                   =  -1.7696269008163E-07
(PID.TID 0000.0001) %MON vort_r_max                   =   1.7696269008145E-07
(PID.TID 0000.0001) %MON vort_a_mean                  =  -5.5722509112253E-21
(PID.TID 0000.0001) %MON vort_a_sd                    =   8.3264730102242E-05
(PID.TID 0000.0001) %MON vort_p_mean                  =  -5.6069888336370E-21
(PID.TID 0000.0001) %MON vort_p_sd                    =   8.6550954984575E-05
(PID.TID 0000.0001) %MON surfExpan_theta_mean         =  -9.8487400696074E-07
(PID.TID 0000.0001) %MON surfExpan_salt_mean          =   3.3286181690914E-22
(PID.TID 0000.0001) // =======================================================
(PID.TID 0000.0001) // End MONITOR dynamic field statistics
(PID.TID 0000.0001) // =======================================================
 Compute Stats, Diag. #     23  ETAN      vol(   0 ): 4.197E+12  Parms: SM      M1      
 Compute Stats, Diag. #     30  UVEL      vol(   0 ): 2.182E+16  Parms: UU      MR      
 Compute Stats, Diag. #     31  VVEL      vol(   0 ): 2.173E+16  Parms: VV      MR      
 Compute Stats, Diag. #     32  WVEL      vol(   0 ): 2.035E+16  Parms: WM      LR      
 Compute Stats, Diag. #     26  THETA     vol(   0 ): 2.182E+16  Parms: SM      MR      
 cg2d: Sum(rhs),rhsMax =   8.88178419700125E-15  1.48203284136025E+00
(PID.TID 0000.0001)                    cg2d_init_res =    3.92142073099850E-03
(PID.TID 0000.0001)                       cg2d_iters =    27
(PID.TID 0000.0001)                         cg2d_res =    2.22481224380414E-17
(PID.TID 0000.0001) // =======================================================
(PID.TID 0000.0001) // Begin MONITOR dynamic field statistics
(PID.TID 0000.0001) // =======================================================
(PID.TID 0000.0001) %MON time_tsnumber                =                 36002
(PID.TID 0000.0001) %MON time_secondsf                =   3.1105728000000E+09
(PID.TID 0000.0001) %MON dynstat_eta_max              =   1.6190037767127E+00
(PID.TID 0000.0001) %MON dynstat_eta_min              =  -3.9370820857714E+00
(PID.TID 0000.0001) %MON dynstat_eta_mean             =  -2.9783971202332E-16
(PID.TID 0000.0001) %MON dynstat_eta_sd               =   1.6554915772744E+00
(PID.TID 0000.0001) %MON dynstat_eta_del2             =   1.3966859079053E-02
(PID.TID 0000.0001) %MON dynstat_uvel_max             =   1.4275313729932E-01
(PID.TID 0000.0001) %MON dynstat_uvel_min             =  -3.8630854419298E-01
(PID.TID 0000.0001) %MON dynstat_uvel_mean            =   1.2671834519005E-02
(PID.TID 0000.0001) %MON dynstat_uvel_sd              =   3.8714487734368E-02
(PID.TID 0000.0001) %MON dynstat_uvel_del2            =   6.1847953987425E-04
(PID.TID 0000.0001) %MON dynstat_vvel_max             =   2.3031076202947E-02
(PID.TID 0000.0001) %MON dynstat_vvel_min             =  -2.3031076202915E-02
(PID.TID 0000.0001) %MON dynstat_vvel_mean            =   6.2736885080686E-16
(PID.TID 0000.0001) %MON dynstat_vvel_sd              =   1.5511118456963E-03
(PID.TID 0000.0001) %MON dynstat_vvel_del2            =   7.2830250322285E-05
(PID.TID 0000.0001) %MON dynstat_wvel_max             =   1.3293001217503E-06
(PID.TID 0000.0001) %MON dynstat_wvel_min             =  -9.6077639939285E-07
(PID.TID 0000.0001) %MON dynstat_wvel_mean            =   0.0000000000000E+00
(PID.TID 0000.0001) %MON dynstat_wvel_sd              =   2.8145419028850E-07
(PID.TID 0000.0001) %MON dynstat_wvel_del2            =   3.7045049941868E-08
(PID.TID 0000.0001) %MON dynstat_theta_max            =   2.6658563613903E+01
(PID.TID 0000.0001) %MON dynstat_theta_min            =  -9.3076395104261E-01
(PID.TID 0000.0001) %MON dynstat_theta_mean           =   2.2239680537296E+00
(PID.TID 0000.0001) %MON dynstat_theta_sd             =   3.9266283981267E+00
(PID.TID 0000.0001) %MON dynstat_theta_del2           =   4.1718459492943E-02
(PID.TID 0000.0001) %MON dynstat_salt_max             =   3.4700000000000E+01
(PID.TID 0000.0001) %MON dynstat_salt_min             =   3.4700000000000E+01
(PID.TID 0000.0001) %MON dynstat_salt_mean            =   3.4700000000000E+01
(PID.TID 0000.0001) %MON dynstat_salt_sd              =   7.1054273576010E-15
(PID.TID 0000.0001) %MON dynstat_salt_del2            =   0.0000000000000E+00
(PID.TID 0000.0001) %MON extforcing_qnet_max          =   0.0000000000000E+00
(PID.TID 0000.0001) %MON extforcing_qnet_min          =   0.0000000000000E+00
(PID.TID 0000.0001) %MON extforcing_qnet_mean         =   0.0000000000000E+00
(PID.TID 0000.0001) %MON extforcing_qnet_sd           =   0.0000000000000E+00
(PID.TID 0000.0001) %MON extforcing_qnet_del2         =   0.0000000000000E+00
(PID.TID 0000.0001) %MON extforcing_qsw_max           =   0.0000000000000E+00
(PID.TID 0000.0001) %MON extforcing_qsw_min           =   0.0000000000000E+00
(PID.TID 0000.0001) %MON extforcing_qsw_mean          =   0.0000000000000E+00
(PID.TID 0000.0001) %MON extforcing_qsw_sd            =   0.0000000000000E+00
(PID.TID 0000.0001) %MON extforcing_qsw_del2          =   0.0000000000000E+00
(PID.TID 0000.0001) %MON extforcing_empmr_max         =   0.0000000000000E+00
(PID.TID 0000.0001) %MON extforcing_empmr_min         =   0.0000000000000E+00
(PID.TID 0000.0001) %MON extforcing_empmr_mean        =   0.0000000000000E+00
(PID.TID 0000.0001) %MON extforcing_empmr_sd          =   0.0000000000000E+00
(PID.TID 0000.0001) %MON extforcing_empmr_del2        =   0.0000000000000E+00
(PID.TID 0000.0001) %MON advcfl_uvel_max              =   1.0010570971656E-01
(PID.TID 0000.0001) %MON advcfl_vvel_max              =   5.9660916429048E-03
(PID.TID 0000.0001) %MON advcfl_wvel_max              =   1.9141921753205E-03
(PID.TID 0000.0001) %MON advcfl_W_hf_max              =   2.2970306103846E-03
(PID.TID 0000.0001) %MON pe_b_mean                    =   2.5851730457120E-03
(PID.TID 0000.0001) %MON ke_max                       =   7.4646513840760E-02
(PID.TID 0000.0001) %MON ke_mean                      =   8.3098597104774E-04
(PID.TID 0000.0001) %MON ke_vol                       =   2.1823819113454E+16
(PID.TID 0000.0001) %MON vort_r_min                   =  -1.7696634078169E-07
(PID.TID 0000.0001) %MON vort_r_max                   =   1.7696634078151E-07
(PID.TID 0000.0001) %MON vort_a_mean                  =   2.7861254556126E-21
(PID.TID 0000.0001) %MON vort_a_sd                    =   8.3264731694878E-05
(PID.TID 0000.0001) %MON vort_p_mean                  =   2.8034944168185E-21
(PID.TID 0000.0001) %MON vort_p_sd                    =   8.6550956602026E-05
(PID.TID 0000.0001) %MON surfExpan_theta_mean         =  -1.8695855084802E-06
(PID.TID 0000.0001) %MON surfExpan_salt_mean          =   2.2190787793943E-22
(PID.TID 0000.0001) // =======================================================
(PID.TID 0000.0001) // End MONITOR dynamic field statistics
(PID.TID 0000.0001) // =======================================================
 cg2d: Sum(rhs),rhsMax =   7.10542735760100E-15  1.48124175625680E+00
(PID.TID 0000.0001)                    cg2d_init_res =    4.98745958388913E-03
(PID.TID 0000.0001)                       cg2d_iters =    27
(PID.TID 0000.0001)                         cg2d_res =    4.23171841892968E-18
(PID.TID 0000.0001) // =======================================================
(PID.TID 0000.0001) // Begin MONITOR dynamic field statistics
(PID.TID 0000.0001) // =======================================================
(PID.TID 0000.0001) %MON time_tsnumber                =                 36003
(PID.TID 0000.0001) %MON time_secondsf                =   3.1106592000000E+09
(PID.TID 0000.0001) %MON dynstat_eta_max              =   1.6181609770639E+00
(PID.TID 0000.0001) %MON dynstat_eta_min              =  -3.9362536234340E+00
(PID.TID 0000.0001) %MON dynstat_eta_mean             =  -3.7229964002914E-16
(PID.TID 0000.0001) %MON dynstat_eta_sd               =   1.6546780876248E+00
(PID.TID 0000.0001) %MON dynstat_eta_del2             =   1.3959261289992E-02
(PID.TID 0000.0001) %MON dynstat_uvel_max             =   1.4277701329498E-01
(PID.TID 0000.0001) %MON dynstat_uvel_min             =  -3.8630835363374E-01
(PID.TID 0000.0001) %MON dynstat_uvel_mean            =   1.2682982013412E-02
(PID.TID 0000.0001) %MON dynstat_uvel_sd              =   3.8718279426968E-02
(PID.TID 0000.0001) %MON dynstat_uvel_del2            =   6.1853119681649E-04
(PID.TID 0000.0001) %MON dynstat_vvel_max             =   2.3052778945067E-02
(PID.TID 0000.0001) %MON dynstat_vvel_min             =  -2.3052778945034E-02
(PID.TID 0000.0001) %MON dynstat_vvel_mean            =   8.4262831925235E-16
(PID.TID 0000.0001) %MON dynstat_vvel_sd              =   1.5535438996320E-03
(PID.TID 0000.0001) %MON dynstat_vvel_del2            =   7.2848485118771E-05
(PID.TID 0000.0001) %MON dynstat_wvel_max             =   1.2066512570861E-06
(PID.TID 0000.0001) %MON dynstat_wvel_min             =  -1.0021475295139E-06
(PID.TID 0000.0001) %MON dynstat_wvel_mean            =   2.3426151238142E-23
(PID.TID 0000.0001) %MON dynstat_wvel_sd              =   3.0188636667075E-07
(PID.TID 0000.0001) %MON dynstat_wvel_del2            =   3.7049707013062E-08
(PID.TID 0000.0001) %MON dynstat_theta_max            =   2.6659883375498E+01
(PID.TID 0000.0001) %MON dynstat_theta_min            =  -9.3076429209747E-01
(PID.TID 0000.0001) %MON dynstat_theta_mean           =   2.2240028344410E+00
(PID.TID 0000.0001) %MON dynstat_theta_sd             =   3.9267653054343E+00
(PID.TID 0000.0001) %MON dynstat_theta_del2           =   4.1717509323795E-02
(PID.TID 0000.0001) %MON dynstat_salt_max             =   3.4700000000000E+01
(PID.TID 0000.0001) %MON dynstat_salt_min             =   3.4700000000000E+01
(PID.TID 0000.0001) %MON dynstat_salt_mean            =   3.4700000000000E+01
(PID.TID 0000.0001) %MON dynstat_salt_sd              =   7.1054273576010E-15
(PID.TID 0000.0001) %MON dynstat_salt_del2            =   0.0000000000000E+00
(PID.TID 0000.0001) %MON extforcing_qnet_max          =   0.0000000000000E+00
(PID.TID 0000.0001) %MON extforcing_qnet_min          =   0.0000000000000E+00
(PID.TID 0000.0001) %MON extforcing_qnet_mean         =   0.0000000000000E+00
(PID.TID 0000.0001) %MON extforcing_qnet_sd           =   0.0000000000000E+00
(PID.TID 0000.0001) %MON extforcing_qnet_del2         =   0.0000000000000E+00
(PID.TID 0000.0001) %MON extforcing_qsw_max           =   0.0000000000000E+00
(PID.TID 0000.0001) %MON extforcing_qsw_min           =   0.0000000000000E+00
(PID.TID 0000.0001) %MON extforcing_qsw_mean          =   0.0000000000000E+00
(PID.TID 0000.0001) %MON extforcing_qsw_sd            =   0.0000000000000E+00
(PID.TID 0000.0001) %MON extforcing_qsw_del2          =   0.0000000000000E+00
(PID.TID 0000.0001) %MON extforcing_empmr_max         =   0.0000000000000E+00
(PID.TID 0000.0001) %MON extforcing_empmr_min         =   0.0000000000000E+00
(PID.TID 0000.0001) %MON extforcing_empmr_mean        =   0.0000000000000E+00
(PID.TID 0000.0001) %MON extforcing_empmr_sd          =   0.0000000000000E+00
(PID.TID 0000.0001) %MON extforcing_empmr_del2        =   0.0000000000000E+00
(PID.TID 0000.0001) %MON advcfl_uvel_max              =   1.0010566033616E-01
(PID.TID 0000.0001) %MON advcfl_vvel_max              =   5.9717136358698E-03
(PID.TID 0000.0001) %MON advcfl_wvel_max              =   1.8709573294157E-03
(PID.TID 0000.0001) %MON advcfl_W_hf_max              =   2.0850933722448E-03
(PID.TID 0000.0001) %MON pe_b_mean                    =   2.5826330209290E-03
(PID.TID 0000.0001) %MON ke_max                       =   7.4646470233648E-02
(PID.TID 0000.0001) %MON ke_mean                      =   8.3127788475395E-04
(PID.TID 0000.0001) %MON ke_vol                       =   2.1823819113454E+16
(PID.TID 0000.0001) %MON vort_r_min                   =  -1.7697139872096E-07
(PID.TID 0000.0001) %MON vort_r_max                   =   1.7697139872078E-07
(PID.TID 0000.0001) %MON vort_a_mean                  =  -2.7861254556126E-21
(PID.TID 0000.0001) %MON vort_a_sd                    =   8.3264733946817E-05
(PID.TID 0000.0001) %MON vort_p_mean                  =  -2.8034944168185E-21
(PID.TID 0000.0001) %MON vort_p_sd                    =   8.6550958919187E-05
(PID.TID 0000.0001) %MON surfExpan_theta_mean         =  -2.6094171072508E-06
(PID.TID 0000.0001) %MON surfExpan_salt_mean          =   6.6572363381829E-22
(PID.TID 0000.0001) // =======================================================
(PID.TID 0000.0001) // End MONITOR dynamic field statistics
(PID.TID 0000.0001) // =======================================================
 cg2d: Sum(rhs),rhsMax =   7.10542735760100E-15  1.48044281817036E+00
(PID.TID 0000.0001)                    cg2d_init_res =    5.73352791557946E-03
(PID.TID 0000.0001)                       cg2d_iters =    27
(PID.TID 0000.0001)                         cg2d_res =    8.02343303498707E-18
(PID.TID 0000.0001) // =======================================================
(PID.TID 0000.0001) // Begin MONITOR dynamic field statistics
(PID.TID 0000.0001) // =======================================================
(PID.TID 0000.0001) %MON time_tsnumber                =                 36004
(PID.TID 0000.0001) %MON time_secondsf                =   3.1107456000000E+09
(PID.TID 0000.0001) %MON dynstat_eta_max              =   1.6173026020869E+00
(PID.TID 0000.0001) %MON dynstat_eta_min              =  -3.9349816104278E+00
(PID.TID 0000.0001) %MON dynstat_eta_mean             =  -3.7229964002914E-16
(PID.TID 0000.0001) %MON dynstat_eta_sd               =   1.6537020964464E+00
(PID.TID 0000.0001) %MON dynstat_eta_del2             =   1.3952503049932E-02
(PID.TID 0000.0001) %MON dynstat_uvel_max             =   1.4280579606688E-01
(PID.TID 0000.0001) %MON dynstat_uvel_min             =  -3.8630832262857E-01
(PID.TID 0000.0001) %MON dynstat_uvel_mean            =   1.2696952408340E-02
(PID.TID 0000.0001) %MON dynstat_uvel_sd              =   3.8723010444263E-02
(PID.TID 0000.0001) %MON dynstat_uvel_del2            =   6.1859785702576E-04
(PID.TID 0000.0001) %MON dynstat_vvel_max             =   2.3076251678755E-02
(PID.TID 0000.0001) %MON dynstat_vvel_min             =  -2.3076251678721E-02
(PID.TID 0000.0001) %MON dynstat_vvel_mean            =   1.0375706965399E-15
(PID.TID 0000.0001) %MON dynstat_vvel_sd              =   1.5560916233357E-03
(PID.TID 0000.0001) %MON dynstat_vvel_del2            =   7.2864866731858E-05
(PID.TID 0000.0001) %MON dynstat_wvel_max             =   1.2498877636703E-06
(PID.TID 0000.0001) %MON dynstat_wvel_min             =  -1.0064610655870E-06
(PID.TID 0000.0001) %MON dynstat_wvel_mean            =   5.8565378095355E-24
(PID.TID 0000.0001) %MON dynstat_wvel_sd              =   3.1986700095115E-07
(PID.TID 0000.0001) %MON dynstat_wvel_del2            =   3.7000979848591E-08
(PID.TID 0000.0001) %MON dynstat_theta_max            =   2.6661664151393E+01
(PID.TID 0000.0001) %MON dynstat_theta_min            =  -9.3076468203834E-01
(PID.TID 0000.0001) %MON dynstat_theta_mean           =   2.2240470556077E+00
(PID.TID 0000.0001) %MON dynstat_theta_sd             =   3.9269324951814E+00
(PID.TID 0000.0001) %MON dynstat_theta_del2           =   4.1713930961465E-02
(PID.TID 0000.0001) %MON dynstat_salt_max             =   3.4700000000000E+01
(PID.TID 0000.0001) %MON dynstat_salt_min             =   3.4700000000000E+01
(PID.TID 0000.0001) %MON dynstat_salt_mean            =   3.4700000000000E+01
(PID.TID 0000.0001) %MON dynstat_salt_sd              =   7.1054273576010E-15
(PID.TID 0000.0001) %MON dynstat_salt_del2            =   0.0000000000000E+00
(PID.TID 0000.0001) %MON extforcing_qnet_max          =   0.0000000000000E+00
(PID.TID 0000.0001) %MON extforcing_qnet_min          =   0.0000000000000E+00
(PID.TID 0000.0001) %MON extforcing_qnet_mean         =   0.0000000000000E+00
(PID.TID 0000.0001) %MON extforcing_qnet_sd           =   0.0000000000000E+00
(PID.TID 0000.0001) %MON extforcing_qnet_del2         =   0.0000000000000E+00
(PID.TID 0000.0001) %MON extforcing_qsw_max           =   0.0000000000000E+00
(PID.TID 0000.0001) %MON extforcing_qsw_min           =   0.0000000000000E+00
(PID.TID 0000.0001) %MON extforcing_qsw_mean          =   0.0000000000000E+00
(PID.TID 0000.0001) %MON extforcing_qsw_sd            =   0.0000000000000E+00
(PID.TID 0000.0001) %MON extforcing_qsw_del2          =   0.0000000000000E+00
(PID.TID 0000.0001) %MON extforcing_empmr_max         =   0.0000000000000E+00
(PID.TID 0000.0001) %MON extforcing_empmr_min         =   0.0000000000000E+00
(PID.TID 0000.0001) %MON extforcing_empmr_mean        =   0.0000000000000E+00
(PID.TID 0000.0001) %MON extforcing_empmr_sd          =   0.0000000000000E+00
(PID.TID 0000.0001) %MON extforcing_empmr_del2        =   0.0000000000000E+00
(PID.TID 0000.0001) %MON advcfl_uvel_max              =   1.0010565230167E-01
(PID.TID 0000.0001) %MON advcfl_vvel_max              =   5.9777941368008E-03
(PID.TID 0000.0001) %MON advcfl_wvel_max              =   2.1673952976554E-03
(PID.TID 0000.0001) %MON advcfl_W_hf_max              =   2.1598060556223E-03
(PID.TID 0000.0001) %MON pe_b_mean                    =   2.5795872518646E-03
(PID.TID 0000.0001) %MON ke_max                       =   7.4646487799518E-02
(PID.TID 0000.0001) %MON ke_mean                      =   8.3164234174467E-04
(PID.TID 0000.0001) %MON ke_vol                       =   2.1823819113454E+16
(PID.TID 0000.0001) %MON vort_r_min                   =  -1.7697755960497E-07
(PID.TID 0000.0001) %MON vort_r_max                   =   1.7697755960479E-07
(PID.TID 0000.0001) %MON vort_a_mean                  =  -2.7861254556126E-21
(PID.TID 0000.0001) %MON vort_a_sd                    =   8.3264736745832E-05
(PID.TID 0000.0001) %MON vort_p_mean                  =  -2.8034944168185E-21
(PID.TID 0000.0001) %MON vort_p_sd                    =   8.6550961849593E-05
(PID.TID 0000.0001) %MON surfExpan_theta_mean         =  -3.1818507605048E-06
(PID.TID 0000.0001) %MON surfExpan_salt_mean          =   0.0000000000000E+00
(PID.TID 0000.0001) // =======================================================
(PID.TID 0000.0001) // End MONITOR dynamic field statistics
(PID.TID 0000.0001) // =======================================================
 cg2d: Sum(rhs),rhsMax =   1.24344978758018E-14  1.47974149049528E+00
(PID.TID 0000.0001)                    cg2d_init_res =    6.24548075209296E-03
(PID.TID 0000.0001)                       cg2d_iters =    27
(PID.TID 0000.0001)                         cg2d_res =    1.39471014527883E-17
(PID.TID 0000.0001) // =======================================================
(PID.TID 0000.0001) // Begin MONITOR dynamic field statistics
(PID.TID 0000.0001) // =======================================================
(PID.TID 0000.0001) %MON time_tsnumber                =                 36005
(PID.TID 0000.0001) %MON time_secondsf                =   3.1108320000000E+09
(PID.TID 0000.0001) %MON dynstat_eta_max              =   1.6165339968700E+00
(PID.TID 0000.0001) %MON dynstat_eta_min              =  -3.9332308078633E+00
(PID.TID 0000.0001) %MON dynstat_eta_mean             =  -2.2337978401749E-16
(PID.TID 0000.0001) %MON dynstat_eta_sd               =   1.6526224903831E+00
(PID.TID 0000.0001) %MON dynstat_eta_del2             =   1.3947848856943E-02
(PID.TID 0000.0001) %MON dynstat_uvel_max             =   1.4283775115646E-01
(PID.TID 0000.0001) %MON dynstat_uvel_min             =  -3.8630842559950E-01
(PID.TID 0000.0001) %MON dynstat_uvel_mean            =   1.2713108290949E-02
(PID.TID 0000.0001) %MON dynstat_uvel_sd              =   3.8728432984228E-02
(PID.TID 0000.0001) %MON dynstat_uvel_del2            =   6.1867673425028E-04
(PID.TID 0000.0001) %MON dynstat_vvel_max             =   2.3097926846266E-02
(PID.TID 0000.0001) %MON dynstat_vvel_min             =  -2.3097926846231E-02
(PID.TID 0000.0001) %MON dynstat_vvel_mean            =   1.1940729800339E-15
(PID.TID 0000.0001) %MON dynstat_vvel_sd              =   1.5582910291255E-03
(PID.TID 0000.0001) %MON dynstat_vvel_del2            =   7.2889670344267E-05
(PID.TID 0000.0001) %MON dynstat_wvel_max             =   1.2900124641032E-06
(PID.TID 0000.0001) %MON dynstat_wvel_min             =  -1.0373481022479E-06
(PID.TID 0000.0001) %MON dynstat_wvel_mean            =  -5.8565378095355E-24
(PID.TID 0000.0001) %MON dynstat_wvel_sd              =   3.3384572638142E-07
(PID.TID 0000.0001) %MON dynstat_wvel_del2            =   3.6937645745570E-08
(PID.TID 0000.0001) %MON dynstat_theta_max            =   2.6663890659514E+01
(PID.TID 0000.0001) %MON dynstat_theta_min            =  -9.3076502519778E-01
(PID.TID 0000.0001) %MON dynstat_theta_mean           =   2.2240976796161E+00
(PID.TID 0000.0001) %MON dynstat_theta_sd             =   3.9271203287027E+00
(PID.TID 0000.0001) %MON dynstat_theta_del2           =   4.1708178602675E-02
(PID.TID 0000.0001) %MON dynstat_salt_max             =   3.4700000000000E+01
(PID.TID 0000.0001) %MON dynstat_salt_min             =   3.4700000000000E+01
(PID.TID 0000.0001) %MON dynstat_salt_mean            =   3.4700000000000E+01
(PID.TID 0000.0001) %MON dynstat_salt_sd              =   7.1054273576010E-15
(PID.TID 0000.0001) %MON dynstat_salt_del2            =   0.0000000000000E+00
(PID.TID 0000.0001) %MON extforcing_qnet_max          =   0.0000000000000E+00
(PID.TID 0000.0001) %MON extforcing_qnet_min          =   0.0000000000000E+00
(PID.TID 0000.0001) %MON extforcing_qnet_mean         =   0.0000000000000E+00
(PID.TID 0000.0001) %MON extforcing_qnet_sd           =   0.0000000000000E+00
(PID.TID 0000.0001) %MON extforcing_qnet_del2         =   0.0000000000000E+00
(PID.TID 0000.0001) %MON extforcing_qsw_max           =   0.0000000000000E+00
(PID.TID 0000.0001) %MON extforcing_qsw_min           =   0.0000000000000E+00
(PID.TID 0000.0001) %MON extforcing_qsw_mean          =   0.0000000000000E+00
(PID.TID 0000.0001) %MON extforcing_qsw_sd            =   0.0000000000000E+00
(PID.TID 0000.0001) %MON extforcing_qsw_del2          =   0.0000000000000E+00
(PID.TID 0000.0001) %MON extforcing_empmr_max         =   0.0000000000000E+00
(PID.TID 0000.0001) %MON extforcing_empmr_min         =   0.0000000000000E+00
(PID.TID 0000.0001) %MON extforcing_empmr_mean        =   0.0000000000000E+00
(PID.TID 0000.0001) %MON extforcing_empmr_sd          =   0.0000000000000E+00
(PID.TID 0000.0001) %MON extforcing_empmr_del2        =   0.0000000000000E+00
(PID.TID 0000.0001) %MON advcfl_uvel_max              =   1.0010567898494E-01
(PID.TID 0000.0001) %MON advcfl_vvel_max              =   5.9834089866934E-03
(PID.TID 0000.0001) %MON advcfl_wvel_max              =   2.3900009666710E-03
(PID.TID 0000.0001) %MON advcfl_W_hf_max              =   2.2291415379703E-03
(PID.TID 0000.0001) %MON pe_b_mean                    =   2.5762202258667E-03
(PID.TID 0000.0001) %MON ke_max                       =   7.4646550783207E-02
(PID.TID 0000.0001) %MON ke_mean                      =   8.3206105184777E-04
(PID.TID 0000.0001) %MON ke_vol                       =   2.1823819113454E+16
(PID.TID 0000.0001) %MON vort_r_min                   =  -1.7698462205295E-07
(PID.TID 0000.0001) %MON vort_r_max                   =   1.7698462205277E-07
(PID.TID 0000.0001) %MON vort_a_mean                  =  -2.7861254556126E-21
(PID.TID 0000.0001) %MON vort_a_sd                    =   8.3264739957209E-05
(PID.TID 0000.0001) %MON vort_p_mean                  =  -2.8034944168185E-21
(PID.TID 0000.0001) %MON vort_p_sd                    =   8.6550965278854E-05
(PID.TID 0000.0001) %MON surfExpan_theta_mean         =  -3.5756759603421E-06
(PID.TID 0000.0001) %MON surfExpan_salt_mean          =  -4.4381575587886E-22
(PID.TID 0000.0001) // =======================================================
(PID.TID 0000.0001) // End MONITOR dynamic field statistics
(PID.TID 0000.0001) // =======================================================
 cg2d: Sum(rhs),rhsMax =   7.10542735760100E-15  1.47919769406570E+00
(PID.TID 0000.0001)                    cg2d_init_res =    6.56456433608473E-03
(PID.TID 0000.0001)                       cg2d_iters =    27
(PID.TID 0000.0001)                         cg2d_res =    1.66310457496169E-17
(PID.TID 0000.0001) // =======================================================
(PID.TID 0000.0001) // Begin MONITOR dynamic field statistics
(PID.TID 0000.0001) // =======================================================
(PID.TID 0000.0001) %MON time_tsnumber                =                 36006
(PID.TID 0000.0001) %MON time_secondsf                =   3.1109184000000E+09
(PID.TID 0000.0001) %MON dynstat_eta_max              =   1.6159108874611E+00
(PID.TID 0000.0001) %MON dynstat_eta_min              =  -3.9310350161889E+00
(PID.TID 0000.0001) %MON dynstat_eta_mean             =  -4.4675956803497E-16
(PID.TID 0000.0001) %MON dynstat_eta_sd               =   1.6514945528008E+00
(PID.TID 0000.0001) %MON dynstat_eta_del2             =   1.3945593285814E-02
(PID.TID 0000.0001) %MON dynstat_uvel_max             =   1.4287120891536E-01
(PID.TID 0000.0001) %MON dynstat_uvel_min             =  -3.8630862920764E-01
(PID.TID 0000.0001) %MON dynstat_uvel_mean            =   1.2730706838356E-02
(PID.TID 0000.0001) %MON dynstat_uvel_sd              =   3.8734276528668E-02
(PID.TID 0000.0001) %MON dynstat_uvel_del2            =   6.1876443739936E-04
(PID.TID 0000.0001) %MON dynstat_vvel_max             =   2.3114602813558E-02
(PID.TID 0000.0001) %MON dynstat_vvel_min             =  -2.3114602813523E-02
(PID.TID 0000.0001) %MON dynstat_vvel_mean            =   1.2892138275389E-15
(PID.TID 0000.0001) %MON dynstat_vvel_sd              =   1.5597744599018E-03
(PID.TID 0000.0001) %MON dynstat_vvel_del2            =   7.2926837645160E-05
(PID.TID 0000.0001) %MON dynstat_wvel_max             =   1.2965700411516E-06
(PID.TID 0000.0001) %MON dynstat_wvel_min             =  -1.0757024824215E-06
(PID.TID 0000.0001) %MON dynstat_wvel_mean            =   2.3426151238142E-23
(PID.TID 0000.0001) %MON dynstat_wvel_sd              =   3.4278567311062E-07
(PID.TID 0000.0001) %MON dynstat_wvel_del2            =   3.6890841253884E-08
(PID.TID 0000.0001) %MON dynstat_theta_max            =   2.6666435911306E+01
(PID.TID 0000.0001) %MON dynstat_theta_min            =  -9.3076540226704E-01
(PID.TID 0000.0001) %MON dynstat_theta_mean           =   2.2241516406299E+00
(PID.TID 0000.0001) %MON dynstat_theta_sd             =   3.9273189681998E+00
(PID.TID 0000.0001) %MON dynstat_theta_del2           =   4.1700897515617E-02
(PID.TID 0000.0001) %MON dynstat_salt_max             =   3.4700000000000E+01
(PID.TID 0000.0001) %MON dynstat_salt_min             =   3.4700000000000E+01
(PID.TID 0000.0001) %MON dynstat_salt_mean            =   3.4700000000000E+01
(PID.TID 0000.0001) %MON dynstat_salt_sd              =   7.1054273576010E-15
(PID.TID 0000.0001) %MON dynstat_salt_del2            =   0.0000000000000E+00
(PID.TID 0000.0001) %MON extforcing_qnet_max          =   0.0000000000000E+00
(PID.TID 0000.0001) %MON extforcing_qnet_min          =   0.0000000000000E+00
(PID.TID 0000.0001) %MON extforcing_qnet_mean         =   0.0000000000000E+00
(PID.TID 0000.0001) %MON extforcing_qnet_sd           =   0.0000000000000E+00
(PID.TID 0000.0001) %MON extforcing_qnet_del2         =   0.0000000000000E+00
(PID.TID 0000.0001) %MON extforcing_qsw_max           =   0.0000000000000E+00
(PID.TID 0000.0001) %MON extforcing_qsw_min           =   0.0000000000000E+00
(PID.TID 0000.0001) %MON extforcing_qsw_mean          =   0.0000000000000E+00
(PID.TID 0000.0001) %MON extforcing_qsw_sd            =   0.0000000000000E+00
(PID.TID 0000.0001) %MON extforcing_qsw_del2          =   0.0000000000000E+00
(PID.TID 0000.0001) %MON extforcing_empmr_max         =   0.0000000000000E+00
(PID.TID 0000.0001) %MON extforcing_empmr_min         =   0.0000000000000E+00
(PID.TID 0000.0001) %MON extforcing_empmr_mean        =   0.0000000000000E+00
(PID.TID 0000.0001) %MON extforcing_empmr_sd          =   0.0000000000000E+00
(PID.TID 0000.0001) %MON extforcing_empmr_del2        =   0.0000000000000E+00
(PID.TID 0000.0001) %MON advcfl_uvel_max              =   1.0010573174675E-01
(PID.TID 0000.0001) %MON advcfl_vvel_max              =   5.9877288173529E-03
(PID.TID 0000.0001) %MON advcfl_wvel_max              =   2.6564036767178E-03
(PID.TID 0000.0001) %MON advcfl_W_hf_max              =   2.2404730311099E-03
(PID.TID 0000.0001) %MON pe_b_mean                    =   2.5727048144520E-03
(PID.TID 0000.0001) %MON ke_max                       =   7.4646642832433E-02
(PID.TID 0000.0001) %MON ke_mean                      =   8.3251362136590E-04
(PID.TID 0000.0001) %MON ke_vol                       =   2.1823819113454E+16
(PID.TID 0000.0001) %MON vort_r_min                   =  -1.7699241421998E-07
(PID.TID 0000.0001) %MON vort_r_max                   =   1.7699241421980E-07
(PID.TID 0000.0001) %MON vort_a_mean                  =   5.5722509112253E-21
(PID.TID 0000.0001) %MON vort_a_sd                    =   8.3264743430289E-05
(PID.TID 0000.0001) %MON vort_p_mean                  =   5.6069888336370E-21
(PID.TID 0000.0001) %MON vort_p_sd                    =   8.6550969064644E-05
(PID.TID 0000.0001) %MON surfExpan_theta_mean         =  -3.7885514893056E-06
(PID.TID 0000.0001) %MON surfExpan_salt_mean          =   1.3314472676366E-21
(PID.TID 0000.0001) // =======================================================
(PID.TID 0000.0001) // End MONITOR dynamic field statistics
(PID.TID 0000.0001) // =======================================================
 Computing Diagnostic #     23  ETAN         Counter:       1   Parms: SM      M1      
 Computing Diagnostic #     24  ETANSQ       Counter:       1   Parms: SM P    M1      
 Computing Diagnostic #     25  DETADT2      Counter:       1   Parms: SM      M1      
 Computing Diagnostic #     69  PHIBOT       Counter:       1   Parms: SM      M1      
 Computing Diagnostic #     70  PHIBOTSQ     Counter:       1   Parms: SM P    M1      
 Computing Diagnostic #    171  GM_VisbK     Counter:       1   Parms: SM P    M1      
 cg2d: Sum(rhs),rhsMax =   8.88178419700125E-15  1.47881489691154E+00
(PID.TID 0000.0001)                    cg2d_init_res =    6.66259988732492E-03
(PID.TID 0000.0001)                       cg2d_iters =    27
(PID.TID 0000.0001)                         cg2d_res =    1.59147834747540E-17
(PID.TID 0000.0001) // =======================================================
(PID.TID 0000.0001) // Begin MONITOR dynamic field statistics
(PID.TID 0000.0001) // =======================================================
(PID.TID 0000.0001) %MON time_tsnumber                =                 36007
(PID.TID 0000.0001) %MON time_secondsf                =   3.1110048000000E+09
(PID.TID 0000.0001) %MON dynstat_eta_max              =   1.6154364595672E+00
(PID.TID 0000.0001) %MON dynstat_eta_min              =  -3.9285048321717E+00
(PID.TID 0000.0001) %MON dynstat_eta_mean             =  -3.7229964002914E-16
(PID.TID 0000.0001) %MON dynstat_eta_sd               =   1.6503685523917E+00
(PID.TID 0000.0001) %MON dynstat_eta_del2             =   1.3945373240370E-02
(PID.TID 0000.0001) %MON dynstat_uvel_max             =   1.4290464808915E-01
(PID.TID 0000.0001) %MON dynstat_uvel_min             =  -3.8630889513806E-01
(PID.TID 0000.0001) %MON dynstat_uvel_mean            =   1.2748933992909E-02
(PID.TID 0000.0001) %MON dynstat_uvel_sd              =   3.8740262406849E-02
(PID.TID 0000.0001) %MON dynstat_uvel_del2            =   6.1885731904988E-04
(PID.TID 0000.0001) %MON dynstat_vvel_max             =   2.3124279384574E-02
(PID.TID 0000.0001) %MON dynstat_vvel_min             =  -2.3124279384538E-02
(PID.TID 0000.0001) %MON dynstat_vvel_mean            =   1.3470242675069E-15
(PID.TID 0000.0001) %MON dynstat_vvel_sd              =   1.5603122205869E-03
(PID.TID 0000.0001) %MON dynstat_vvel_del2            =   7.2961025075372E-05
(PID.TID 0000.0001) %MON dynstat_wvel_max             =   1.2760024736312E-06
(PID.TID 0000.0001) %MON dynstat_wvel_min             =  -1.0962813056529E-06
(PID.TID 0000.0001) %MON dynstat_wvel_mean            =   2.9282689047677E-23
(PID.TID 0000.0001) %MON dynstat_wvel_sd              =   3.4553179033740E-07
(PID.TID 0000.0001) %MON dynstat_wvel_del2            =   3.6865009108908E-08
(PID.TID 0000.0001) %MON dynstat_theta_max            =   2.6669107727154E+01
(PID.TID 0000.0001) %MON dynstat_theta_min            =  -9.3076579407097E-01
(PID.TID 0000.0001) %MON dynstat_theta_mean           =   2.2242059633024E+00
(PID.TID 0000.0001) %MON dynstat_theta_sd             =   3.9275187351939E+00
(PID.TID 0000.0001) %MON dynstat_theta_del2           =   4.1692827851095E-02
(PID.TID 0000.0001) %MON dynstat_salt_max             =   3.4700000000000E+01
(PID.TID 0000.0001) %MON dynstat_salt_min             =   3.4700000000000E+01
(PID.TID 0000.0001) %MON dynstat_salt_mean            =   3.4700000000000E+01
(PID.TID 0000.0001) %MON dynstat_salt_sd              =   7.1054273576010E-15
(PID.TID 0000.0001) %MON dynstat_salt_del2            =   0.0000000000000E+00
(PID.TID 0000.0001) %MON extforcing_qnet_max          =   0.0000000000000E+00
(PID.TID 0000.0001) %MON extforcing_qnet_min          =   0.0000000000000E+00
(PID.TID 0000.0001) %MON extforcing_qnet_mean         =   0.0000000000000E+00
(PID.TID 0000.0001) %MON extforcing_qnet_sd           =   0.0000000000000E+00
(PID.TID 0000.0001) %MON extforcing_qnet_del2         =   0.0000000000000E+00
(PID.TID 0000.0001) %MON extforcing_qsw_max           =   0.0000000000000E+00
(PID.TID 0000.0001) %MON extforcing_qsw_min           =   0.0000000000000E+00
(PID.TID 0000.0001) %MON extforcing_qsw_mean          =   0.0000000000000E+00
(PID.TID 0000.0001) %MON extforcing_qsw_sd            =   0.0000000000000E+00
(PID.TID 0000.0001) %MON extforcing_qsw_del2          =   0.0000000000000E+00
(PID.TID 0000.0001) %MON extforcing_empmr_max         =   0.0000000000000E+00
(PID.TID 0000.0001) %MON extforcing_empmr_min         =   0.0000000000000E+00
(PID.TID 0000.0001) %MON extforcing_empmr_mean        =   0.0000000000000E+00
(PID.TID 0000.0001) %MON extforcing_empmr_sd          =   0.0000000000000E+00
(PID.TID 0000.0001) %MON extforcing_empmr_del2        =   0.0000000000000E+00
(PID.TID 0000.0001) %MON advcfl_uvel_max              =   1.0010580065839E-01
(PID.TID 0000.0001) %MON advcfl_vvel_max              =   5.9902354874259E-03
(PID.TID 0000.0001) %MON advcfl_wvel_max              =   3.0362208208914E-03
(PID.TID 0000.0001) %MON advcfl_W_hf_max              =   2.2049322744347E-03
(PID.TID 0000.0001) %MON pe_b_mean                    =   2.5691978345268E-03
(PID.TID 0000.0001) %MON ke_max                       =   7.4646746948188E-02
(PID.TID 0000.0001) %MON ke_mean                      =   8.3297859689504E-04
(PID.TID 0000.0001) %MON ke_vol                       =   2.1823819113454E+16
(PID.TID 0000.0001) %MON vort_r_min                   =  -1.7700070674960E-07
(PID.TID 0000.0001) %MON vort_r_max                   =   1.7700070674942E-07
(PID.TID 0000.0001) %MON vort_a_mean                  =   1.1144501822451E-20
(PID.TID 0000.0001) %MON vort_a_sd                    =   8.3264747005749E-05
(PID.TID 0000.0001) %MON vort_p_mean                  =   1.1213977667274E-20
(PID.TID 0000.0001) %MON vort_p_sd                    =   8.6550973039730E-05
(PID.TID 0000.0001) %MON surfExpan_theta_mean         =  -3.8247822647880E-06
(PID.TID 0000.0001) %MON surfExpan_salt_mean          =   8.8763151175772E-22
(PID.TID 0000.0001) // =======================================================
(PID.TID 0000.0001) // End MONITOR dynamic field statistics
(PID.TID 0000.0001) // =======================================================
 cg2d: Sum(rhs),rhsMax =   7.10542735760100E-15  1.47855255824746E+00
(PID.TID 0000.0001)                    cg2d_init_res =    6.48893601403428E-03
(PID.TID 0000.0001)                       cg2d_iters =    27
(PID.TID 0000.0001)                         cg2d_res =    1.77238841353495E-17
(PID.TID 0000.0001) // =======================================================
(PID.TID 0000.0001) // Begin MONITOR dynamic field statistics
(PID.TID 0000.0001) // =======================================================
(PID.TID 0000.0001) %MON time_tsnumber                =                 36008
(PID.TID 0000.0001) %MON time_secondsf                =   3.1110912000000E+09
(PID.TID 0000.0001) %MON dynstat_eta_max              =   1.6150769030888E+00
(PID.TID 0000.0001) %MON dynstat_eta_min              =  -3.9258159279536E+00
(PID.TID 0000.0001) %MON dynstat_eta_mean             =  -4.4675956803497E-16
(PID.TID 0000.0001) %MON dynstat_eta_sd               =   1.6492896014301E+00
(PID.TID 0000.0001) %MON dynstat_eta_del2             =   1.3946525267603E-02
(PID.TID 0000.0001) %MON dynstat_uvel_max             =   1.4293674048006E-01
(PID.TID 0000.0001) %MON dynstat_uvel_min             =  -3.8630918168961E-01
(PID.TID 0000.0001) %MON dynstat_uvel_mean            =   1.2766946820623E-02
(PID.TID 0000.0001) %MON dynstat_uvel_sd              =   3.8746116717032E-02
(PID.TID 0000.0001) %MON dynstat_uvel_del2            =   6.1894988245965E-04
(PID.TID 0000.0001) %MON dynstat_vvel_max             =   2.3126275060939E-02
(PID.TID 0000.0001) %MON dynstat_vvel_min             =  -2.3126275060904E-02
(PID.TID 0000.0001) %MON dynstat_vvel_mean            =   1.3386412199384E-15
(PID.TID 0000.0001) %MON dynstat_vvel_sd              =   1.5598483918553E-03
(PID.TID 0000.0001) %MON dynstat_vvel_del2            =   7.2980228854148E-05
(PID.TID 0000.0001) %MON dynstat_wvel_max             =   1.2357298054678E-06
(PID.TID 0000.0001) %MON dynstat_wvel_min             =  -1.1000194799964E-06
(PID.TID 0000.0001) %MON dynstat_wvel_mean            =   1.1713075619071E-23
(PID.TID 0000.0001) %MON dynstat_wvel_sd              =   3.4125782928991E-07
(PID.TID 0000.0001) %MON dynstat_wvel_del2            =   3.6877873528771E-08
(PID.TID 0000.0001) %MON dynstat_theta_max            =   2.6671697532383E+01
(PID.TID 0000.0001) %MON dynstat_theta_min            =  -9.3076622360549E-01
(PID.TID 0000.0001) %MON dynstat_theta_mean           =   2.2242578491843E+00
(PID.TID 0000.0001) %MON dynstat_theta_sd             =   3.9277105099497E+00
(PID.TID 0000.0001) %MON dynstat_theta_del2           =   4.1684728000257E-02
(PID.TID 0000.0001) %MON dynstat_salt_max             =   3.4700000000000E+01
(PID.TID 0000.0001) %MON dynstat_salt_min             =   3.4700000000000E+01
(PID.TID 0000.0001) %MON dynstat_salt_mean            =   3.4700000000000E+01
(PID.TID 0000.0001) %MON dynstat_salt_sd              =   7.1054273576010E-15
(PID.TID 0000.0001) %MON dynstat_salt_del2            =   0.0000000000000E+00
(PID.TID 0000.0001) %MON extforcing_qnet_max          =   0.0000000000000E+00
(PID.TID 0000.0001) %MON extforcing_qnet_min          =   0.0000000000000E+00
(PID.TID 0000.0001) %MON extforcing_qnet_mean         =   0.0000000000000E+00
(PID.TID 0000.0001) %MON extforcing_qnet_sd           =   0.0000000000000E+00
(PID.TID 0000.0001) %MON extforcing_qnet_del2         =   0.0000000000000E+00
(PID.TID 0000.0001) %MON extforcing_qsw_max           =   0.0000000000000E+00
(PID.TID 0000.0001) %MON extforcing_qsw_min           =   0.0000000000000E+00
(PID.TID 0000.0001) %MON extforcing_qsw_mean          =   0.0000000000000E+00
(PID.TID 0000.0001) %MON extforcing_qsw_sd            =   0.0000000000000E+00
(PID.TID 0000.0001) %MON extforcing_qsw_del2          =   0.0000000000000E+00
(PID.TID 0000.0001) %MON extforcing_empmr_max         =   0.0000000000000E+00
(PID.TID 0000.0001) %MON extforcing_empmr_min         =   0.0000000000000E+00
(PID.TID 0000.0001) %MON extforcing_empmr_mean        =   0.0000000000000E+00
(PID.TID 0000.0001) %MON extforcing_empmr_sd          =   0.0000000000000E+00
(PID.TID 0000.0001) %MON extforcing_empmr_del2        =   0.0000000000000E+00
(PID.TID 0000.0001) %MON advcfl_uvel_max              =   1.0010587491366E-01
(PID.TID 0000.0001) %MON advcfl_vvel_max              =   5.9907524579739E-03
(PID.TID 0000.0001) %MON advcfl_wvel_max              =   3.2266850617475E-03
(PID.TID 0000.0001) %MON advcfl_W_hf_max              =   2.1353411038483E-03
(PID.TID 0000.0001) %MON pe_b_mean                    =   2.5658396363338E-03
(PID.TID 0000.0001) %MON ke_max                       =   7.4646846126288E-02
(PID.TID 0000.0001) %MON ke_mean                      =   8.3343454984716E-04
(PID.TID 0000.0001) %MON ke_vol                       =   2.1823819113454E+16
(PID.TID 0000.0001) %MON vort_r_min                   =  -1.7700919458225E-07
(PID.TID 0000.0001) %MON vort_r_max                   =   1.7700919458207E-07
(PID.TID 0000.0001) %MON vort_a_mean                  =  -2.5075129100514E-20
(PID.TID 0000.0001) %MON vort_a_sd                    =   8.3264750523257E-05
(PID.TID 0000.0001) %MON vort_p_mean                  =  -2.5231449751367E-20
(PID.TID 0000.0001) %MON vort_p_sd                    =   8.6550977019269E-05
(PID.TID 0000.0001) %MON surfExpan_theta_mean         =  -3.6936275592392E-06
(PID.TID 0000.0001) %MON surfExpan_salt_mean          =   4.4381575587886E-22
(PID.TID 0000.0001) // =======================================================
(PID.TID 0000.0001) // End MONITOR dynamic field statistics
(PID.TID 0000.0001) // =======================================================
 cg2d: Sum(rhs),rhsMax =   1.06581410364015E-14  1.47835395636728E+00
(PID.TID 0000.0001)                    cg2d_init_res =    6.01840531830027E-03
(PID.TID 0000.0001)                       cg2d_iters =    27
(PID.TID 0000.0001)                         cg2d_res =    4.39314281229648E-18
(PID.TID 0000.0001) // =======================================================
(PID.TID 0000.0001) // Begin MONITOR dynamic field statistics
(PID.TID 0000.0001) // =======================================================
(PID.TID 0000.0001) %MON time_tsnumber                =                 36009
(PID.TID 0000.0001) %MON time_secondsf                =   3.1111776000000E+09
(PID.TID 0000.0001) %MON dynstat_eta_max              =   1.6147857819210E+00
(PID.TID 0000.0001) %MON dynstat_eta_min              =  -3.9231811510005E+00
(PID.TID 0000.0001) %MON dynstat_eta_mean             =  -3.7229964002914E-16
(PID.TID 0000.0001) %MON dynstat_eta_sd               =   1.6482980902249E+00
(PID.TID 0000.0001) %MON dynstat_eta_del2             =   1.3948305427138E-02
(PID.TID 0000.0001) %MON dynstat_uvel_max             =   1.4296635858336E-01
(PID.TID 0000.0001) %MON dynstat_uvel_min             =  -3.8630944781633E-01
(PID.TID 0000.0001) %MON dynstat_uvel_mean            =   1.2783920491009E-02
(PID.TID 0000.0001) %MON dynstat_uvel_sd              =   3.8751581200576E-02
(PID.TID 0000.0001) %MON dynstat_uvel_del2            =   6.1903696480510E-04
(PID.TID 0000.0001) %MON dynstat_vvel_max             =   2.3121000499640E-02
(PID.TID 0000.0001) %MON dynstat_vvel_min             =  -2.3121000499606E-02
(PID.TID 0000.0001) %MON dynstat_vvel_mean            =   1.3306514788912E-15
(PID.TID 0000.0001) %MON dynstat_vvel_sd              =   1.5585133081759E-03
(PID.TID 0000.0001) %MON dynstat_vvel_del2            =   7.2980976562128E-05
(PID.TID 0000.0001) %MON dynstat_wvel_max             =   1.1824307824332E-06
(PID.TID 0000.0001) %MON dynstat_wvel_min             =  -1.0703695936976E-06
(PID.TID 0000.0001) %MON dynstat_wvel_mean            =   5.8565378095355E-24
(PID.TID 0000.0001) %MON dynstat_wvel_sd              =   3.3014974952916E-07
(PID.TID 0000.0001) %MON dynstat_wvel_del2            =   3.6875868344996E-08
(PID.TID 0000.0001) %MON dynstat_theta_max            =   2.6674013923584E+01
(PID.TID 0000.0001) %MON dynstat_theta_min            =  -9.3076664280040E-01
(PID.TID 0000.0001) %MON dynstat_theta_mean           =   2.2243047435706E+00
(PID.TID 0000.0001) %MON dynstat_theta_sd             =   3.9278859276923E+00
(PID.TID 0000.0001) %MON dynstat_theta_del2           =   4.1677300047181E-02
(PID.TID 0000.0001) %MON dynstat_salt_max             =   3.4700000000000E+01
(PID.TID 0000.0001) %MON dynstat_salt_min             =   3.4700000000000E+01
(PID.TID 0000.0001) %MON dynstat_salt_mean            =   3.4700000000000E+01
(PID.TID 0000.0001) %MON dynstat_salt_sd              =   7.1054273576010E-15
(PID.TID 0000.0001) %MON dynstat_salt_del2            =   0.0000000000000E+00
(PID.TID 0000.0001) %MON extforcing_qnet_max          =   0.0000000000000E+00
(PID.TID 0000.0001) %MON extforcing_qnet_min          =   0.0000000000000E+00
(PID.TID 0000.0001) %MON extforcing_qnet_mean         =   0.0000000000000E+00
(PID.TID 0000.0001) %MON extforcing_qnet_sd           =   0.0000000000000E+00
(PID.TID 0000.0001) %MON extforcing_qnet_del2         =   0.0000000000000E+00
(PID.TID 0000.0001) %MON extforcing_qsw_max           =   0.0000000000000E+00
(PID.TID 0000.0001) %MON extforcing_qsw_min           =   0.0000000000000E+00
(PID.TID 0000.0001) %MON extforcing_qsw_mean          =   0.0000000000000E+00
(PID.TID 0000.0001) %MON extforcing_qsw_sd            =   0.0000000000000E+00
(PID.TID 0000.0001) %MON extforcing_qsw_del2          =   0.0000000000000E+00
(PID.TID 0000.0001) %MON extforcing_empmr_max         =   0.0000000000000E+00
(PID.TID 0000.0001) %MON extforcing_empmr_min         =   0.0000000000000E+00
(PID.TID 0000.0001) %MON extforcing_empmr_mean        =   0.0000000000000E+00
(PID.TID 0000.0001) %MON extforcing_empmr_sd          =   0.0000000000000E+00
(PID.TID 0000.0001) %MON extforcing_empmr_del2        =   0.0000000000000E+00
(PID.TID 0000.0001) %MON advcfl_uvel_max              =   1.0010594387616E-01
(PID.TID 0000.0001) %MON advcfl_vvel_max              =   5.9893861077518E-03
(PID.TID 0000.0001) %MON advcfl_wvel_max              =   3.1617323438351E-03
(PID.TID 0000.0001) %MON advcfl_W_hf_max              =   2.0432403920446E-03
(PID.TID 0000.0001) %MON pe_b_mean                    =   2.5627555278351E-03
(PID.TID 0000.0001) %MON ke_max                       =   7.4646925036635E-02
(PID.TID 0000.0001) %MON ke_mean                      =   8.3386111472695E-04
(PID.TID 0000.0001) %MON ke_vol                       =   2.1823819113454E+16
(PID.TID 0000.0001) %MON vort_r_min                   =  -1.7701753468952E-07
(PID.TID 0000.0001) %MON vort_r_max                   =   1.7701753468934E-07
(PID.TID 0000.0001) %MON vort_a_mean                  =  -5.5722509112253E-21
(PID.TID 0000.0001) %MON vort_a_sd                    =   8.3264753829091E-05
(PID.TID 0000.0001) %MON vort_p_mean                  =  -5.6069888336370E-21
(PID.TID 0000.0001) %MON vort_p_sd                    =   8.6550980812365E-05
(PID.TID 0000.0001) %MON surfExpan_theta_mean         =  -3.4083336102796E-06
(PID.TID 0000.0001) %MON surfExpan_salt_mean          =   8.8763151175772E-22
(PID.TID 0000.0001) // =======================================================
(PID.TID 0000.0001) // End MONITOR dynamic field statistics
(PID.TID 0000.0001) // =======================================================
 cg2d: Sum(rhs),rhsMax =   1.06581410364015E-14  1.47817251146842E+00
(PID.TID 0000.0001)                    cg2d_init_res =    5.26863766398915E-03
(PID.TID 0000.0001)                       cg2d_iters =    27
(PID.TID 0000.0001)                         cg2d_res =    2.25556197121393E-17
(PID.TID 0000.0001) // =======================================================
(PID.TID 0000.0001) // Begin MONITOR dynamic field statistics
(PID.TID 0000.0001) // =======================================================
(PID.TID 0000.0001) %MON time_tsnumber                =                 36010
(PID.TID 0000.0001) %MON time_secondsf                =   3.1112640000000E+09
(PID.TID 0000.0001) %MON dynstat_eta_max              =   1.6145253503778E+00
(PID.TID 0000.0001) %MON dynstat_eta_min              =  -3.9208149340102E+00
(PID.TID 0000.0001) %MON dynstat_eta_mean             =  -3.7229964002914E-16
(PID.TID 0000.0001) %MON dynstat_eta_sd               =   1.6474300700974E+00
(PID.TID 0000.0001) %MON dynstat_eta_del2             =   1.3950025990954E-02
(PID.TID 0000.0001) %MON dynstat_uvel_max             =   1.4299255464171E-01
(PID.TID 0000.0001) %MON dynstat_uvel_min             =  -3.8630965792848E-01
(PID.TID 0000.0001) %MON dynstat_uvel_mean            =   1.2799095219073E-02
(PID.TID 0000.0001) %MON dynstat_uvel_sd              =   3.8756422275038E-02
(PID.TID 0000.0001) %MON dynstat_uvel_del2            =   6.1911373360043E-04
(PID.TID 0000.0001) %MON dynstat_vvel_max             =   2.3109634147354E-02
(PID.TID 0000.0001) %MON dynstat_vvel_min             =  -2.3109634147321E-02
(PID.TID 0000.0001) %MON dynstat_vvel_mean            =   1.2587438094665E-15
(PID.TID 0000.0001) %MON dynstat_vvel_sd              =   1.5565979376159E-03
(PID.TID 0000.0001) %MON dynstat_vvel_del2            =   7.2962084117190E-05
(PID.TID 0000.0001) %MON dynstat_wvel_max             =   1.1208749982790E-06
(PID.TID 0000.0001) %MON dynstat_wvel_min             =  -1.0181952135176E-06
(PID.TID 0000.0001) %MON dynstat_wvel_mean            =   4.0995764666748E-23
(PID.TID 0000.0001) %MON dynstat_wvel_sd              =   3.1374173943215E-07
(PID.TID 0000.0001) %MON dynstat_wvel_del2            =   3.6853767933575E-08
(PID.TID 0000.0001) %MON dynstat_theta_max            =   2.6675902240034E+01
(PID.TID 0000.0001) %MON dynstat_theta_min            =  -9.3076710050505E-01
(PID.TID 0000.0001) %MON dynstat_theta_mean           =   2.2243443944349E+00
(PID.TID 0000.0001) %MON dynstat_theta_sd             =   3.9280375831186E+00
(PID.TID 0000.0001) %MON dynstat_theta_del2           =   4.1671164874873E-02
(PID.TID 0000.0001) %MON dynstat_salt_max             =   3.4700000000000E+01
(PID.TID 0000.0001) %MON dynstat_salt_min             =   3.4700000000000E+01
(PID.TID 0000.0001) %MON dynstat_salt_mean            =   3.4700000000000E+01
(PID.TID 0000.0001) %MON dynstat_salt_sd              =   7.1054273576010E-15
(PID.TID 0000.0001) %MON dynstat_salt_del2            =   0.0000000000000E+00
(PID.TID 0000.0001) %MON extforcing_qnet_max          =   0.0000000000000E+00
(PID.TID 0000.0001) %MON extforcing_qnet_min          =   0.0000000000000E+00
(PID.TID 0000.0001) %MON extforcing_qnet_mean         =   0.0000000000000E+00
(PID.TID 0000.0001) %MON extforcing_qnet_sd           =   0.0000000000000E+00
(PID.TID 0000.0001) %MON extforcing_qnet_del2         =   0.0000000000000E+00
(PID.TID 0000.0001) %MON extforcing_qsw_max           =   0.0000000000000E+00
(PID.TID 0000.0001) %MON extforcing_qsw_min           =   0.0000000000000E+00
(PID.TID 0000.0001) %MON extforcing_qsw_mean          =   0.0000000000000E+00
(PID.TID 0000.0001) %MON extforcing_qsw_sd            =   0.0000000000000E+00
(PID.TID 0000.0001) %MON extforcing_qsw_del2          =   0.0000000000000E+00
(PID.TID 0000.0001) %MON extforcing_empmr_max         =   0.0000000000000E+00
(PID.TID 0000.0001) %MON extforcing_empmr_min         =   0.0000000000000E+00
(PID.TID 0000.0001) %MON extforcing_empmr_mean        =   0.0000000000000E+00
(PID.TID 0000.0001) %MON extforcing_empmr_sd          =   0.0000000000000E+00
(PID.TID 0000.0001) %MON extforcing_empmr_del2        =   0.0000000000000E+00
(PID.TID 0000.0001) %MON advcfl_uvel_max              =   1.0010599832338E-01
(PID.TID 0000.0001) %MON advcfl_vvel_max              =   5.9864417078120E-03
(PID.TID 0000.0001) %MON advcfl_wvel_max              =   2.8394603883690E-03
(PID.TID 0000.0001) %MON advcfl_W_hf_max              =   1.9368719970261E-03
(PID.TID 0000.0001) %MON pe_b_mean                    =   2.5600570624806E-03
(PID.TID 0000.0001) %MON ke_max                       =   7.4646971709182E-02
(PID.TID 0000.0001) %MON ke_mean                      =   8.3423990675176E-04
(PID.TID 0000.0001) %MON ke_vol                       =   2.1823819113454E+16
(PID.TID 0000.0001) %MON vort_r_min                   =  -1.7702539657873E-07
(PID.TID 0000.0001) %MON vort_r_max                   =   1.7702539657855E-07
(PID.TID 0000.0001) %MON vort_a_mean                  =   8.3583763668379E-21
(PID.TID 0000.0001) %MON vort_a_sd                    =   8.3264756783319E-05
(PID.TID 0000.0001) %MON vort_p_mean                  =   8.4104832504555E-21
(PID.TID 0000.0001) %MON vort_p_sd                    =   8.6550984236141E-05
(PID.TID 0000.0001) %MON surfExpan_theta_mean         =  -2.9858262952826E-06
(PID.TID 0000.0001) %MON surfExpan_salt_mean          =   4.4381575587886E-22
(PID.TID 0000.0001) // =======================================================
(PID.TID 0000.0001) // End MONITOR dynamic field statistics
(PID.TID 0000.0001) // =======================================================
 Computing Diagnostic #     72  DRHODR       Counter:      10   Parms: SM      LR      
 Computing Diagnostic #     62  RHOAnoma     Counter:      10   Parms: SM      MR      
 Computing Diagnostic #    183  GM_PsiY      Counter:      10   Parms: VV   182LR      
           Vector  Mate for  GM_PsiY      Diagnostic #    182  GM_PsiX  not enabled
 Computing Diagnostic #    176  GM_Kvy       Counter:      10   Parms: VV P 175MR      
           Vector  Mate for  GM_Kvy       Diagnostic #    175  GM_Kux   not enabled
 Computing Diagnostic #    178  GM_Kvz       Counter:      10   Parms: VV   177MR      
           Vector  Mate for  GM_Kvz       Diagnostic #    177  GM_Kuz   not enabled
 Computing Diagnostic #    180  GM_Kwy       Counter:      10   Parms: VM   179LR      
           Vector  Mate for  GM_Kwy       Diagnostic #    179  GM_Kwx   not enabled
 Computing Diagnostic #    181  GM_Kwz       Counter:      10   Parms: WM P    LR      
 cg2d: Sum(rhs),rhsMax =   8.88178419700125E-15  1.47798588729869E+00
(PID.TID 0000.0001)                    cg2d_init_res =    4.29248486332343E-03
(PID.TID 0000.0001)                       cg2d_iters =    27
(PID.TID 0000.0001)                         cg2d_res =    1.04319901085322E-17
(PID.TID 0000.0001) // =======================================================
(PID.TID 0000.0001) // Begin MONITOR dynamic field statistics
(PID.TID 0000.0001) // =======================================================
(PID.TID 0000.0001) %MON time_tsnumber                =                 36011
(PID.TID 0000.0001) %MON time_secondsf                =   3.1113504000000E+09
(PID.TID 0000.0001) %MON dynstat_eta_max              =   1.6142781227568E+00
(PID.TID 0000.0001) %MON dynstat_eta_min              =  -3.9188996095184E+00
(PID.TID 0000.0001) %MON dynstat_eta_mean             =  -3.7229964002914E-16
(PID.TID 0000.0001) %MON dynstat_eta_sd               =   1.6467171541323E+00
(PID.TID 0000.0001) %MON dynstat_eta_del2             =   1.3951166822985E-02
(PID.TID 0000.0001) %MON dynstat_uvel_max             =   1.4301452822805E-01
(PID.TID 0000.0001) %MON dynstat_uvel_min             =  -3.8630978552652E-01
(PID.TID 0000.0001) %MON dynstat_uvel_mean            =   1.2811818449558E-02
(PID.TID 0000.0001) %MON dynstat_uvel_sd              =   3.8760438723749E-02
(PID.TID 0000.0001) %MON dynstat_uvel_del2            =   6.1917620457184E-04
(PID.TID 0000.0001) %MON dynstat_vvel_max             =   2.3093793426272E-02
(PID.TID 0000.0001) %MON dynstat_vvel_min             =  -2.3093793426240E-02
(PID.TID 0000.0001) %MON dynstat_vvel_mean            =   1.1731884037523E-15
(PID.TID 0000.0001) %MON dynstat_vvel_sd              =   1.5544915023218E-03
(PID.TID 0000.0001) %MON dynstat_vvel_del2            =   7.2930651177677E-05
(PID.TID 0000.0001) %MON dynstat_wvel_max             =   1.0535028519128E-06
(PID.TID 0000.0001) %MON dynstat_wvel_min             =  -9.5534129771464E-07
(PID.TID 0000.0001) %MON dynstat_wvel_mean            =  -3.5139226857213E-23
(PID.TID 0000.0001) %MON dynstat_wvel_sd              =   2.9477592346563E-07
(PID.TID 0000.0001) %MON dynstat_wvel_del2            =   3.6826528899183E-08
(PID.TID 0000.0001) %MON dynstat_theta_max            =   2.6677254197260E+01
(PID.TID 0000.0001) %MON dynstat_theta_min            =  -9.3076754840085E-01
(PID.TID 0000.0001) %MON dynstat_theta_mean           =   2.2243749106551E+00
(PID.TID 0000.0001) %MON dynstat_theta_sd             =   3.9281593791985E+00
(PID.TID 0000.0001) %MON dynstat_theta_del2           =   4.1666735296546E-02
(PID.TID 0000.0001) %MON dynstat_salt_max             =   3.4700000000000E+01
(PID.TID 0000.0001) %MON dynstat_salt_min             =   3.4700000000000E+01
(PID.TID 0000.0001) %MON dynstat_salt_mean            =   3.4700000000000E+01
(PID.TID 0000.0001) %MON dynstat_salt_sd              =   7.1054273576010E-15
(PID.TID 0000.0001) %MON dynstat_salt_del2            =   0.0000000000000E+00
(PID.TID 0000.0001) %MON extforcing_qnet_max          =   0.0000000000000E+00
(PID.TID 0000.0001) %MON extforcing_qnet_min          =   0.0000000000000E+00
(PID.TID 0000.0001) %MON extforcing_qnet_mean         =   0.0000000000000E+00
(PID.TID 0000.0001) %MON extforcing_qnet_sd           =   0.0000000000000E+00
(PID.TID 0000.0001) %MON extforcing_qnet_del2         =   0.0000000000000E+00
(PID.TID 0000.0001) %MON extforcing_qsw_max           =   0.0000000000000E+00
(PID.TID 0000.0001) %MON extforcing_qsw_min           =   0.0000000000000E+00
(PID.TID 0000.0001) %MON extforcing_qsw_mean          =   0.0000000000000E+00
(PID.TID 0000.0001) %MON extforcing_qsw_sd            =   0.0000000000000E+00
(PID.TID 0000.0001) %MON extforcing_qsw_del2          =   0.0000000000000E+00
(PID.TID 0000.0001) %MON extforcing_empmr_max         =   0.0000000000000E+00
(PID.TID 0000.0001) %MON extforcing_empmr_min         =   0.0000000000000E+00
(PID.TID 0000.0001) %MON extforcing_empmr_mean        =   0.0000000000000E+00
(PID.TID 0000.0001) %MON extforcing_empmr_sd          =   0.0000000000000E+00
(PID.TID 0000.0001) %MON extforcing_empmr_del2        =   0.0000000000000E+00
(PID.TID 0000.0001) %MON advcfl_uvel_max              =   1.0010603138838E-01
(PID.TID 0000.0001) %MON advcfl_vvel_max              =   5.9823382437431E-03
(PID.TID 0000.0001) %MON advcfl_wvel_max              =   2.2983893902502E-03
(PID.TID 0000.0001) %MON advcfl_W_hf_max              =   1.8204529281053E-03
(PID.TID 0000.0001) %MON pe_b_mean                    =   2.5578418417163E-03
(PID.TID 0000.0001) %MON ke_max                       =   7.4646978523868E-02
(PID.TID 0000.0001) %MON ke_mean                      =   8.3455527885653E-04
(PID.TID 0000.0001) %MON ke_vol                       =   2.1823819113454E+16
(PID.TID 0000.0001) %MON vort_r_min                   =  -1.7703249950043E-07
(PID.TID 0000.0001) %MON vort_r_max                   =   1.7703249950025E-07
(PID.TID 0000.0001) %MON vort_a_mean                  =  -1.1144501822451E-20
(PID.TID 0000.0001) %MON vort_a_sd                    =   8.3264759266095E-05
(PID.TID 0000.0001) %MON vort_p_mean                  =  -1.1213977667274E-20
(PID.TID 0000.0001) %MON vort_p_sd                    =   8.6550987129755E-05
(PID.TID 0000.0001) %MON surfExpan_theta_mean         =  -2.4467913875889E-06
(PID.TID 0000.0001) %MON surfExpan_salt_mean          =   0.0000000000000E+00
(PID.TID 0000.0001) // =======================================================
(PID.TID 0000.0001) // End MONITOR dynamic field statistics
(PID.TID 0000.0001) // =======================================================
 Compute Stats, Diag. #     23  ETAN      vol(   0 ): 4.197E+12  Parms: SM      M1      
 Compute Stats, Diag. #     30  UVEL      vol(   0 ): 2.182E+16  Parms: UU      MR      
 Compute Stats, Diag. #     31  VVEL      vol(   0 ): 2.173E+16  Parms: VV      MR      
 Compute Stats, Diag. #     32  WVEL      vol(   0 ): 2.035E+16  Parms: WM      LR      
 Compute Stats, Diag. #     26  THETA     vol(   0 ): 2.182E+16  Parms: SM      MR      
 cg2d: Sum(rhs),rhsMax =   1.42108547152020E-14  1.47779701085715E+00
(PID.TID 0000.0001)                    cg2d_init_res =    3.16099139469087E-03
(PID.TID 0000.0001)                       cg2d_iters =    27
(PID.TID 0000.0001)                         cg2d_res =    3.44617524411744E-17
(PID.TID 0000.0001) // =======================================================
(PID.TID 0000.0001) // Begin MONITOR dynamic field statistics
(PID.TID 0000.0001) // =======================================================
(PID.TID 0000.0001) %MON time_tsnumber                =                 36012
(PID.TID 0000.0001) %MON time_secondsf                =   3.1114368000000E+09
(PID.TID 0000.0001) %MON dynstat_eta_max              =   1.6140483253042E+00
(PID.TID 0000.0001) %MON dynstat_eta_min              =  -3.9175611750802E+00
(PID.TID 0000.0001) %MON dynstat_eta_mean             =  -3.7229964002914E-16
(PID.TID 0000.0001) %MON dynstat_eta_sd               =   1.6461857699737E+00
(PID.TID 0000.0001) %MON dynstat_eta_del2             =   1.3951460785016E-02
(PID.TID 0000.0001) %MON dynstat_uvel_max             =   1.4303160290599E-01
(PID.TID 0000.0001) %MON dynstat_uvel_min             =  -3.8630981483234E-01
(PID.TID 0000.0001) %MON dynstat_uvel_mean            =   1.2821578405269E-02
(PID.TID 0000.0001) %MON dynstat_uvel_sd              =   3.8763468479889E-02
(PID.TID 0000.0001) %MON dynstat_uvel_del2            =   6.1922157799597E-04
(PID.TID 0000.0001) %MON dynstat_vvel_max             =   2.3075236295813E-02
(PID.TID 0000.0001) %MON dynstat_vvel_min             =  -2.3075236295784E-02
(PID.TID 0000.0001) %MON dynstat_vvel_mean            =   1.0254484276866E-15
(PID.TID 0000.0001) %MON dynstat_vvel_sd              =   1.5525990038715E-03
(PID.TID 0000.0001) %MON dynstat_vvel_del2            =   7.2914346502680E-05
(PID.TID 0000.0001) %MON dynstat_wvel_max             =   1.1257241231970E-06
(PID.TID 0000.0001) %MON dynstat_wvel_min             =  -8.8161986817566E-07
(PID.TID 0000.0001) %MON dynstat_wvel_mean            =  -5.8565378095355E-24
(PID.TID 0000.0001) %MON dynstat_wvel_sd              =   2.7668726808689E-07
(PID.TID 0000.0001) %MON dynstat_wvel_del2            =   3.6810687458064E-08
(PID.TID 0000.0001) %MON dynstat_theta_max            =   2.6678010128706E+01
(PID.TID 0000.0001) %MON dynstat_theta_min            =  -9.3076802540395E-01
(PID.TID 0000.0001) %MON dynstat_theta_mean           =   2.2243948210227E+00
(PID.TID 0000.0001) %MON dynstat_theta_sd             =   3.9282467184790E+00
(PID.TID 0000.0001) %MON dynstat_theta_del2           =   4.1664200628835E-02
(PID.TID 0000.0001) %MON dynstat_salt_max             =   3.4700000000000E+01
(PID.TID 0000.0001) %MON dynstat_salt_min             =   3.4700000000000E+01
(PID.TID 0000.0001) %MON dynstat_salt_mean            =   3.4700000000000E+01
(PID.TID 0000.0001) %MON dynstat_salt_sd              =   7.1054273576010E-15
(PID.TID 0000.0001) %MON dynstat_salt_del2            =   0.0000000000000E+00
(PID.TID 0000.0001) %MON extforcing_qnet_max          =   0.0000000000000E+00
(PID.TID 0000.0001) %MON extforcing_qnet_min          =   0.0000000000000E+00
(PID.TID 0000.0001) %MON extforcing_qnet_mean         =   0.0000000000000E+00
(PID.TID 0000.0001) %MON extforcing_qnet_sd           =   0.0000000000000E+00
(PID.TID 0000.0001) %MON extforcing_qnet_del2         =   0.0000000000000E+00
(PID.TID 0000.0001) %MON extforcing_qsw_max           =   0.0000000000000E+00
(PID.TID 0000.0001) %MON extforcing_qsw_min           =   0.0000000000000E+00
(PID.TID 0000.0001) %MON extforcing_qsw_mean          =   0.0000000000000E+00
(PID.TID 0000.0001) %MON extforcing_qsw_sd            =   0.0000000000000E+00
(PID.TID 0000.0001) %MON extforcing_qsw_del2          =   0.0000000000000E+00
(PID.TID 0000.0001) %MON extforcing_empmr_max         =   0.0000000000000E+00
(PID.TID 0000.0001) %MON extforcing_empmr_min         =   0.0000000000000E+00
(PID.TID 0000.0001) %MON extforcing_empmr_mean        =   0.0000000000000E+00
(PID.TID 0000.0001) %MON extforcing_empmr_sd          =   0.0000000000000E+00
(PID.TID 0000.0001) %MON extforcing_empmr_del2        =   0.0000000000000E+00
(PID.TID 0000.0001) %MON advcfl_uvel_max              =   1.0010603898252E-01
(PID.TID 0000.0001) %MON advcfl_vvel_max              =   5.9775311066397E-03
(PID.TID 0000.0001) %MON advcfl_wvel_max              =   1.6210427374036E-03
(PID.TID 0000.0001) %MON advcfl_W_hf_max              =   1.9452512848844E-03
(PID.TID 0000.0001) %MON pe_b_mean                    =   2.5561913125651E-03
(PID.TID 0000.0001) %MON ke_max                       =   7.4646942341049E-02
(PID.TID 0000.0001) %MON ke_mean                      =   8.3479490902001E-04
(PID.TID 0000.0001) %MON ke_vol                       =   2.1823819113454E+16
(PID.TID 0000.0001) %MON vort_r_min                   =  -1.7703863189489E-07
(PID.TID 0000.0001) %MON vort_r_max                   =   1.7703863189471E-07
(PID.TID 0000.0001) %MON vort_a_mean                  =  -2.7861254556126E-21
(PID.TID 0000.0001) %MON vort_a_sd                    =   8.3264761182775E-05
(PID.TID 0000.0001) %MON vort_p_mean                  =  -2.8034944168185E-21
(PID.TID 0000.0001) %MON vort_p_sd                    =   8.6550989365974E-05
(PID.TID 0000.0001) %MON surfExpan_theta_mean         =  -1.8157894825114E-06
(PID.TID 0000.0001) %MON surfExpan_salt_mean          =   1.1095393896971E-21
(PID.TID 0000.0001) // =======================================================
(PID.TID 0000.0001) // End MONITOR dynamic field statistics
(PID.TID 0000.0001) // =======================================================
 cg2d: Sum(rhs),rhsMax =   1.59872115546023E-14  1.47762700201585E+00
(PID.TID 0000.0001)                    cg2d_init_res =    1.95045103566612E-03
(PID.TID 0000.0001)                       cg2d_iters =    27
(PID.TID 0000.0001)                         cg2d_res =    1.10075839886398E-17
(PID.TID 0000.0001) // =======================================================
(PID.TID 0000.0001) // Begin MONITOR dynamic field statistics
(PID.TID 0000.0001) // =======================================================
(PID.TID 0000.0001) %MON time_tsnumber                =                 36013
(PID.TID 0000.0001) %MON time_secondsf                =   3.1115232000000E+09
(PID.TID 0000.0001) %MON dynstat_eta_max              =   1.6138564748523E+00
(PID.TID 0000.0001) %MON dynstat_eta_min              =  -3.9168582463495E+00
(PID.TID 0000.0001) %MON dynstat_eta_mean             =  -4.4675956803497E-16
(PID.TID 0000.0001) %MON dynstat_eta_sd               =   1.6458558617358E+00
(PID.TID 0000.0001) %MON dynstat_eta_del2             =   1.3950922287043E-02
(PID.TID 0000.0001) %MON dynstat_uvel_max             =   1.4304322701408E-01
(PID.TID 0000.0001) %MON dynstat_uvel_min             =  -3.8630974048169E-01
(PID.TID 0000.0001) %MON dynstat_uvel_mean            =   1.2828026560011E-02
(PID.TID 0000.0001) %MON dynstat_uvel_sd              =   3.8765394632312E-02
(PID.TID 0000.0001) %MON dynstat_uvel_del2            =   6.1924836882076E-04
(PID.TID 0000.0001) %MON dynstat_vvel_max             =   2.3055620023828E-02
(PID.TID 0000.0001) %MON dynstat_vvel_min             =  -2.3055620023800E-02
(PID.TID 0000.0001) %MON dynstat_vvel_mean            =   8.6262233719640E-16
(PID.TID 0000.0001) %MON dynstat_vvel_sd              =   1.5512609471281E-03
(PID.TID 0000.0001) %MON dynstat_vvel_del2            =   7.2921297879607E-05
(PID.TID 0000.0001) %MON dynstat_wvel_max             =   1.2290111454438E-06
(PID.TID 0000.0001) %MON dynstat_wvel_min             =  -8.4232552140912E-07
(PID.TID 0000.0001) %MON dynstat_wvel_mean            =  -2.9282689047677E-24
(PID.TID 0000.0001) %MON dynstat_wvel_sd              =   2.6283832635629E-07
(PID.TID 0000.0001) %MON dynstat_wvel_del2            =   3.6817235760393E-08
(PID.TID 0000.0001) %MON dynstat_theta_max            =   2.6678155540896E+01
(PID.TID 0000.0001) %MON dynstat_theta_min            =  -9.3076849509928E-01
(PID.TID 0000.0001) %MON dynstat_theta_mean           =   2.2244031303354E+00
(PID.TID 0000.0001) %MON dynstat_theta_sd             =   3.9282966895232E+00
(PID.TID 0000.0001) %MON dynstat_theta_del2           =   4.1663542427044E-02
(PID.TID 0000.0001) %MON dynstat_salt_max             =   3.4700000000000E+01
(PID.TID 0000.0001) %MON dynstat_salt_min             =   3.4700000000000E+01
(PID.TID 0000.0001) %MON dynstat_salt_mean            =   3.4700000000000E+01
(PID.TID 0000.0001) %MON dynstat_salt_sd              =   7.1054273576010E-15
(PID.TID 0000.0001) %MON dynstat_salt_del2            =   0.0000000000000E+00
(PID.TID 0000.0001) %MON extforcing_qnet_max          =   0.0000000000000E+00
(PID.TID 0000.0001) %MON extforcing_qnet_min          =   0.0000000000000E+00
(PID.TID 0000.0001) %MON extforcing_qnet_mean         =   0.0000000000000E+00
(PID.TID 0000.0001) %MON extforcing_qnet_sd           =   0.0000000000000E+00
(PID.TID 0000.0001) %MON extforcing_qnet_del2         =   0.0000000000000E+00
(PID.TID 0000.0001) %MON extforcing_qsw_max           =   0.0000000000000E+00
(PID.TID 0000.0001) %MON extforcing_qsw_min           =   0.0000000000000E+00
(PID.TID 0000.0001) %MON extforcing_qsw_mean          =   0.0000000000000E+00
(PID.TID 0000.0001) %MON extforcing_qsw_sd            =   0.0000000000000E+00
(PID.TID 0000.0001) %MON extforcing_qsw_del2          =   0.0000000000000E+00
(PID.TID 0000.0001) %MON extforcing_empmr_max         =   0.0000000000000E+00
(PID.TID 0000.0001) %MON extforcing_empmr_min         =   0.0000000000000E+00
(PID.TID 0000.0001) %MON extforcing_empmr_mean        =   0.0000000000000E+00
(PID.TID 0000.0001) %MON extforcing_empmr_sd          =   0.0000000000000E+00
(PID.TID 0000.0001) %MON extforcing_empmr_del2        =   0.0000000000000E+00
(PID.TID 0000.0001) %MON advcfl_uvel_max              =   1.0010601971573E-01
(PID.TID 0000.0001) %MON advcfl_vvel_max              =   5.9724496039203E-03
(PID.TID 0000.0001) %MON advcfl_wvel_max              =   1.7697760494391E-03
(PID.TID 0000.0001) %MON advcfl_W_hf_max              =   2.1237312593269E-03
(PID.TID 0000.0001) %MON pe_b_mean                    =   2.5551668545919E-03
(PID.TID 0000.0001) %MON ke_max                       =   7.4646863942213E-02
(PID.TID 0000.0001) %MON ke_mean                      =   8.3495022202648E-04
(PID.TID 0000.0001) %MON ke_vol                       =   2.1823819113454E+16
(PID.TID 0000.0001) %MON vort_r_min                   =  -1.7704365789529E-07
(PID.TID 0000.0001) %MON vort_r_max                   =   1.7704365789511E-07
(PID.TID 0000.0001) %MON vort_a_mean                  =  -1.6716752733676E-20
(PID.TID 0000.0001) %MON vort_a_sd                    =   8.3264762467572E-05
(PID.TID 0000.0001) %MON vort_p_mean                  =  -1.6820966500911E-20
(PID.TID 0000.0001) %MON vort_p_sd                    =   8.6550990858804E-05
(PID.TID 0000.0001) %MON surfExpan_theta_mean         =  -1.1210926470061E-06
(PID.TID 0000.0001) %MON surfExpan_salt_mean          =  -4.4381575587886E-22
(PID.TID 0000.0001) // =======================================================
(PID.TID 0000.0001) // End MONITOR dynamic field statistics
(PID.TID 0000.0001) // =======================================================
 cg2d: Sum(rhs),rhsMax =   1.06581410364015E-14  1.47750539360298E+00
(PID.TID 0000.0001)                    cg2d_init_res =    7.69448594475676E-04
(PID.TID 0000.0001)                       cg2d_iters =    27
(PID.TID 0000.0001)                         cg2d_res =    3.26160054288132E-17
(PID.TID 0000.0001) // =======================================================
(PID.TID 0000.0001) // Begin MONITOR dynamic field statistics
(PID.TID 0000.0001) // =======================================================
(PID.TID 0000.0001) %MON time_tsnumber                =                 36014
(PID.TID 0000.0001) %MON time_secondsf                =   3.1116096000000E+09
(PID.TID 0000.0001) %MON dynstat_eta_max              =   1.6137309123414E+00
(PID.TID 0000.0001) %MON dynstat_eta_min              =  -3.9167842837590E+00
(PID.TID 0000.0001) %MON dynstat_eta_mean             =  -2.9783971202332E-16
(PID.TID 0000.0001) %MON dynstat_eta_sd               =   1.6457393370664E+00
(PID.TID 0000.0001) %MON dynstat_eta_del2             =   1.3949805707179E-02
(PID.TID 0000.0001) %MON dynstat_uvel_max             =   1.4304900173152E-01
(PID.TID 0000.0001) %MON dynstat_uvel_min             =  -3.8630956581630E-01
(PID.TID 0000.0001) %MON dynstat_uvel_mean            =   1.2830988197462E-02
(PID.TID 0000.0001) %MON dynstat_uvel_sd              =   3.8766150392112E-02
(PID.TID 0000.0001) %MON dynstat_uvel_del2            =   6.1925635955016E-04
(PID.TID 0000.0001) %MON dynstat_vvel_max             =   2.3036342733933E-02
(PID.TID 0000.0001) %MON dynstat_vvel_min             =  -2.3036342733907E-02
(PID.TID 0000.0001) %MON dynstat_vvel_mean            =   6.5555909572178E-16
(PID.TID 0000.0001) %MON dynstat_vvel_sd              =   1.5506935397477E-03
(PID.TID 0000.0001) %MON dynstat_vvel_del2            =   7.2935244877471E-05
(PID.TID 0000.0001) %MON dynstat_wvel_max             =   1.3297058735431E-06
(PID.TID 0000.0001) %MON dynstat_wvel_min             =  -8.3768093403573E-07
(PID.TID 0000.0001) %MON dynstat_wvel_mean            =   1.3177210071455E-23
(PID.TID 0000.0001) %MON dynstat_wvel_sd              =   2.5564155013604E-07
(PID.TID 0000.0001) %MON dynstat_wvel_del2            =   3.6856253412379E-08
(PID.TID 0000.0001) %MON dynstat_theta_max            =   2.6677713815525E+01
(PID.TID 0000.0001) %MON dynstat_theta_min            =  -9.3076898599725E-01
(PID.TID 0000.0001) %MON dynstat_theta_mean           =   2.2243993657703E+00
(PID.TID 0000.0001) %MON dynstat_theta_sd             =   3.9283081462072E+00
(PID.TID 0000.0001) %MON dynstat_theta_del2           =   4.1664570022127E-02
(PID.TID 0000.0001) %MON dynstat_salt_max             =   3.4700000000000E+01
(PID.TID 0000.0001) %MON dynstat_salt_min             =   3.4700000000000E+01
(PID.TID 0000.0001) %MON dynstat_salt_mean            =   3.4700000000000E+01
(PID.TID 0000.0001) %MON dynstat_salt_sd              =   7.1054273576010E-15
(PID.TID 0000.0001) %MON dynstat_salt_del2            =   0.0000000000000E+00
(PID.TID 0000.0001) %MON extforcing_qnet_max          =   0.0000000000000E+00
(PID.TID 0000.0001) %MON extforcing_qnet_min          =   0.0000000000000E+00
(PID.TID 0000.0001) %MON extforcing_qnet_mean         =   0.0000000000000E+00
(PID.TID 0000.0001) %MON extforcing_qnet_sd           =   0.0000000000000E+00
(PID.TID 0000.0001) %MON extforcing_qnet_del2         =   0.0000000000000E+00
(PID.TID 0000.0001) %MON extforcing_qsw_max           =   0.0000000000000E+00
(PID.TID 0000.0001) %MON extforcing_qsw_min           =   0.0000000000000E+00
(PID.TID 0000.0001) %MON extforcing_qsw_mean          =   0.0000000000000E+00
(PID.TID 0000.0001) %MON extforcing_qsw_sd            =   0.0000000000000E+00
(PID.TID 0000.0001) %MON extforcing_qsw_del2          =   0.0000000000000E+00
(PID.TID 0000.0001) %MON extforcing_empmr_max         =   0.0000000000000E+00
(PID.TID 0000.0001) %MON extforcing_empmr_min         =   0.0000000000000E+00
(PID.TID 0000.0001) %MON extforcing_empmr_mean        =   0.0000000000000E+00
(PID.TID 0000.0001) %MON extforcing_empmr_sd          =   0.0000000000000E+00
(PID.TID 0000.0001) %MON extforcing_empmr_del2        =   0.0000000000000E+00
(PID.TID 0000.0001) %MON advcfl_uvel_max              =   1.0010597445398E-01
(PID.TID 0000.0001) %MON advcfl_vvel_max              =   5.9674559129123E-03
(PID.TID 0000.0001) %MON advcfl_wvel_max              =   1.9147764579021E-03
(PID.TID 0000.0001) %MON advcfl_W_hf_max              =   2.2977317494825E-03
(PID.TID 0000.0001) %MON pe_b_mean                    =   2.5548050617519E-03
(PID.TID 0000.0001) %MON ke_max                       =   7.4646747070907E-02
(PID.TID 0000.0001) %MON ke_mean                      =   8.3501664749038E-04
(PID.TID 0000.0001) %MON ke_vol                       =   2.1823819113454E+16
(PID.TID 0000.0001) %MON vort_r_min                   =  -1.7704751575842E-07
(PID.TID 0000.0001) %MON vort_r_max                   =   1.7704751575824E-07
(PID.TID 0000.0001) %MON vort_a_mean                  =   2.7861254556126E-21
(PID.TID 0000.0001) %MON vort_a_sd                    =   8.3264763085652E-05
(PID.TID 0000.0001) %MON vort_p_mean                  =   2.8034944168185E-21
(PID.TID 0000.0001) %MON vort_p_sd                    =   8.6550991566633E-05
(PID.TID 0000.0001) %MON surfExpan_theta_mean         =  -3.9404611942504E-07
(PID.TID 0000.0001) %MON surfExpan_salt_mean          =  -4.9929272536372E-22
(PID.TID 0000.0001) // =======================================================
(PID.TID 0000.0001) // End MONITOR dynamic field statistics
(PID.TID 0000.0001) // =======================================================
 cg2d: Sum(rhs),rhsMax =   7.10542735760100E-15  1.47746101635476E+00
(PID.TID 0000.0001)                    cg2d_init_res =    7.06784416662500E-04
(PID.TID 0000.0001)                       cg2d_iters =    27
(PID.TID 0000.0001)                         cg2d_res =    1.09794272873798E-17
(PID.TID 0000.0001) // =======================================================
(PID.TID 0000.0001) // Begin MONITOR dynamic field statistics
(PID.TID 0000.0001) // =======================================================
(PID.TID 0000.0001) %MON time_tsnumber                =                 36015
(PID.TID 0000.0001) %MON time_secondsf                =   3.1116960000000E+09
(PID.TID 0000.0001) %MON dynstat_eta_max              =   1.6136992045278E+00
(PID.TID 0000.0001) %MON dynstat_eta_min              =  -3.9172801482677E+00
(PID.TID 0000.0001) %MON dynstat_eta_mean             =  -2.9783971202332E-16
(PID.TID 0000.0001) %MON dynstat_eta_sd               =   1.6458386504423E+00
(PID.TID 0000.0001) %MON dynstat_eta_del2             =   1.3948511297617E-02
(PID.TID 0000.0001) %MON dynstat_uvel_max             =   1.4304872754812E-01
(PID.TID 0000.0001) %MON dynstat_uvel_min             =  -3.8630930048512E-01
(PID.TID 0000.0001) %MON dynstat_uvel_mean            =   1.2830461675417E-02
(PID.TID 0000.0001) %MON dynstat_uvel_sd              =   3.8765722453924E-02
(PID.TID 0000.0001) %MON dynstat_uvel_del2            =   6.1924644078718E-04
(PID.TID 0000.0001) %MON dynstat_vvel_max             =   2.3018473016675E-02
(PID.TID 0000.0001) %MON dynstat_vvel_min             =  -2.3018473016650E-02
(PID.TID 0000.0001) %MON dynstat_vvel_mean            =   4.3619449046011E-16
(PID.TID 0000.0001) %MON dynstat_vvel_sd              =   1.5509586318061E-03
(PID.TID 0000.0001) %MON dynstat_vvel_del2            =   7.2951249879930E-05
(PID.TID 0000.0001) %MON dynstat_wvel_max             =   1.4225990430737E-06
(PID.TID 0000.0001) %MON dynstat_wvel_min             =  -8.2551362769265E-07
(PID.TID 0000.0001) %MON dynstat_wvel_mean            =   0.0000000000000E+00
(PID.TID 0000.0001) %MON dynstat_wvel_sd              =   2.5586396226791E-07
(PID.TID 0000.0001) %MON dynstat_wvel_del2            =   3.6902788217194E-08
(PID.TID 0000.0001) %MON dynstat_theta_max            =   2.6676737085223E+01
(PID.TID 0000.0001) %MON dynstat_theta_min            =  -9.3076947450356E-01
(PID.TID 0000.0001) %MON dynstat_theta_mean           =   2.2243836051011E+00
(PID.TID 0000.0001) %MON dynstat_theta_sd             =   3.9282817581418E+00
(PID.TID 0000.0001) %MON dynstat_theta_del2           =   4.1666970084789E-02
(PID.TID 0000.0001) %MON dynstat_salt_max             =   3.4700000000000E+01
(PID.TID 0000.0001) %MON dynstat_salt_min             =   3.4700000000000E+01
(PID.TID 0000.0001) %MON dynstat_salt_mean            =   3.4700000000000E+01
(PID.TID 0000.0001) %MON dynstat_salt_sd              =   7.1054273576010E-15
(PID.TID 0000.0001) %MON dynstat_salt_del2            =   0.0000000000000E+00
(PID.TID 0000.0001) %MON extforcing_qnet_max          =   0.0000000000000E+00
(PID.TID 0000.0001) %MON extforcing_qnet_min          =   0.0000000000000E+00
(PID.TID 0000.0001) %MON extforcing_qnet_mean         =   0.0000000000000E+00
(PID.TID 0000.0001) %MON extforcing_qnet_sd           =   0.0000000000000E+00
(PID.TID 0000.0001) %MON extforcing_qnet_del2         =   0.0000000000000E+00
(PID.TID 0000.0001) %MON extforcing_qsw_max           =   0.0000000000000E+00
(PID.TID 0000.0001) %MON extforcing_qsw_min           =   0.0000000000000E+00
(PID.TID 0000.0001) %MON extforcing_qsw_mean          =   0.0000000000000E+00
(PID.TID 0000.0001) %MON extforcing_qsw_sd            =   0.0000000000000E+00
(PID.TID 0000.0001) %MON extforcing_qsw_del2          =   0.0000000000000E+00
(PID.TID 0000.0001) %MON extforcing_empmr_max         =   0.0000000000000E+00
(PID.TID 0000.0001) %MON extforcing_empmr_min         =   0.0000000000000E+00
(PID.TID 0000.0001) %MON extforcing_empmr_mean        =   0.0000000000000E+00
(PID.TID 0000.0001) %MON extforcing_empmr_sd          =   0.0000000000000E+00
(PID.TID 0000.0001) %MON extforcing_empmr_del2        =   0.0000000000000E+00
(PID.TID 0000.0001) %MON advcfl_uvel_max              =   1.0010590569763E-01
(PID.TID 0000.0001) %MON advcfl_vvel_max              =   5.9628268469556E-03
(PID.TID 0000.0001) %MON advcfl_wvel_max              =   2.0485426220262E-03
(PID.TID 0000.0001) %MON advcfl_W_hf_max              =   2.4582511464314E-03
(PID.TID 0000.0001) %MON pe_b_mean                    =   2.5551134143148E-03
(PID.TID 0000.0001) %MON ke_max                       =   7.4646597365050E-02
(PID.TID 0000.0001) %MON ke_mean                      =   8.3499370905239E-04
(PID.TID 0000.0001) %MON ke_vol                       =   2.1823819113454E+16
(PID.TID 0000.0001) %MON vort_r_min                   =  -1.7705021102014E-07
(PID.TID 0000.0001) %MON vort_r_max                   =   1.7705021101997E-07
(PID.TID 0000.0001) %MON vort_a_mean                  =   8.3583763668379E-21
(PID.TID 0000.0001) %MON vort_a_sd                    =   8.3264763033623E-05
(PID.TID 0000.0001) %MON vort_p_mean                  =   8.4104832504555E-21
(PID.TID 0000.0001) %MON vort_p_sd                    =   8.6550991491208E-05
(PID.TID 0000.0001) %MON surfExpan_theta_mean         =   3.3209790558960E-07
(PID.TID 0000.0001) %MON surfExpan_salt_mean          =   8.3215454227286E-23
(PID.TID 0000.0001) // =======================================================
(PID.TID 0000.0001) // End MONITOR dynamic field statistics
(PID.TID 0000.0001) // =======================================================
 cg2d: Sum(rhs),rhsMax =   1.59872115546023E-14  1.47751506372243E+00
(PID.TID 0000.0001)                    cg2d_init_res =    1.78747651857782E-03
(PID.TID 0000.0001)                       cg2d_iters =    27
(PID.TID 0000.0001)                         cg2d_res =    1.38589831499003E-17
(PID.TID 0000.0001) // =======================================================
(PID.TID 0000.0001) // Begin MONITOR dynamic field statistics
(PID.TID 0000.0001) // =======================================================
(PID.TID 0000.0001) %MON time_tsnumber                =                 36016
(PID.TID 0000.0001) %MON time_secondsf                =   3.1117824000000E+09
(PID.TID 0000.0001) %MON dynstat_eta_max              =   1.6137811772673E+00
(PID.TID 0000.0001) %MON dynstat_eta_min              =  -3.9182524375114E+00
(PID.TID 0000.0001) %MON dynstat_eta_mean             =  -3.7229964002914E-16
(PID.TID 0000.0001) %MON dynstat_eta_sd               =   1.6461458977865E+00
(PID.TID 0000.0001) %MON dynstat_eta_del2             =   1.3947458916117E-02
(PID.TID 0000.0001) %MON dynstat_uvel_max             =   1.4304245299434E-01
(PID.TID 0000.0001) %MON dynstat_uvel_min             =  -3.8630895800585E-01
(PID.TID 0000.0001) %MON dynstat_uvel_mean            =   1.2826608057255E-02
(PID.TID 0000.0001) %MON dynstat_uvel_sd              =   3.8764152070369E-02
(PID.TID 0000.0001) %MON dynstat_uvel_del2            =   6.1922039503716E-04
(PID.TID 0000.0001) %MON dynstat_vvel_max             =   2.3002742658111E-02
(PID.TID 0000.0001) %MON dynstat_vvel_min             =  -2.3002742658086E-02
(PID.TID 0000.0001) %MON dynstat_vvel_mean            =   2.0704076681625E-16
(PID.TID 0000.0001) %MON dynstat_vvel_sd              =   1.5519642690416E-03
(PID.TID 0000.0001) %MON dynstat_vvel_del2            =   7.2969973475427E-05
(PID.TID 0000.0001) %MON dynstat_wvel_max             =   1.5043899193002E-06
(PID.TID 0000.0001) %MON dynstat_wvel_min             =  -8.0704698189082E-07
(PID.TID 0000.0001) %MON dynstat_wvel_mean            =  -7.3206722619193E-25
(PID.TID 0000.0001) %MON dynstat_wvel_sd              =   2.6251560376403E-07
(PID.TID 0000.0001) %MON dynstat_wvel_del2            =   3.6930511551616E-08
(PID.TID 0000.0001) %MON dynstat_theta_max            =   2.6675297100527E+01
(PID.TID 0000.0001) %MON dynstat_theta_min            =  -9.3076997792501E-01
(PID.TID 0000.0001) %MON dynstat_theta_mean           =   2.2243564772609E+00
(PID.TID 0000.0001) %MON dynstat_theta_sd             =   3.9282198894648E+00
(PID.TID 0000.0001) %MON dynstat_theta_del2           =   4.1670443443462E-02
(PID.TID 0000.0001) %MON dynstat_salt_max             =   3.4700000000000E+01
(PID.TID 0000.0001) %MON dynstat_salt_min             =   3.4700000000000E+01
(PID.TID 0000.0001) %MON dynstat_salt_mean            =   3.4700000000000E+01
(PID.TID 0000.0001) %MON dynstat_salt_sd              =   7.1054273576010E-15
(PID.TID 0000.0001) %MON dynstat_salt_del2            =   0.0000000000000E+00
(PID.TID 0000.0001) %MON extforcing_qnet_max          =   0.0000000000000E+00
(PID.TID 0000.0001) %MON extforcing_qnet_min          =   0.0000000000000E+00
(PID.TID 0000.0001) %MON extforcing_qnet_mean         =   0.0000000000000E+00
(PID.TID 0000.0001) %MON extforcing_qnet_sd           =   0.0000000000000E+00
(PID.TID 0000.0001) %MON extforcing_qnet_del2         =   0.0000000000000E+00
(PID.TID 0000.0001) %MON extforcing_qsw_max           =   0.0000000000000E+00
(PID.TID 0000.0001) %MON extforcing_qsw_min           =   0.0000000000000E+00
(PID.TID 0000.0001) %MON extforcing_qsw_mean          =   0.0000000000000E+00
(PID.TID 0000.0001) %MON extforcing_qsw_sd            =   0.0000000000000E+00
(PID.TID 0000.0001) %MON extforcing_qsw_del2          =   0.0000000000000E+00
(PID.TID 0000.0001) %MON extforcing_empmr_max         =   0.0000000000000E+00
(PID.TID 0000.0001) %MON extforcing_empmr_min         =   0.0000000000000E+00
(PID.TID 0000.0001) %MON extforcing_empmr_mean        =   0.0000000000000E+00
(PID.TID 0000.0001) %MON extforcing_empmr_sd          =   0.0000000000000E+00
(PID.TID 0000.0001) %MON extforcing_empmr_del2        =   0.0000000000000E+00
(PID.TID 0000.0001) %MON advcfl_uvel_max              =   1.0010581694957E-01
(PID.TID 0000.0001) %MON advcfl_vvel_max              =   5.9587519717765E-03
(PID.TID 0000.0001) %MON advcfl_wvel_max              =   2.1663214837923E-03
(PID.TID 0000.0001) %MON advcfl_W_hf_max              =   2.5995857805507E-03
(PID.TID 0000.0001) %MON pe_b_mean                    =   2.5560674872886E-03
(PID.TID 0000.0001) %MON ke_max                       =   7.4646421411409E-02
(PID.TID 0000.0001) %MON ke_mean                      =   8.3488493773689E-04
(PID.TID 0000.0001) %MON ke_vol                       =   2.1823819113454E+16
(PID.TID 0000.0001) %MON vort_r_min                   =  -1.7705180756589E-07
(PID.TID 0000.0001) %MON vort_r_max                   =   1.7705180756571E-07
(PID.TID 0000.0001) %MON vort_a_mean                  =   1.1144501822451E-20
(PID.TID 0000.0001) %MON vort_a_sd                    =   8.3264762338499E-05
(PID.TID 0000.0001) %MON vort_p_mean                  =   1.1213977667274E-20
(PID.TID 0000.0001) %MON vort_p_sd                    =   8.6550990673349E-05
(PID.TID 0000.0001) %MON surfExpan_theta_mean         =   1.0237945816473E-06
(PID.TID 0000.0001) %MON surfExpan_salt_mean          =  -6.6572363381829E-22
(PID.TID 0000.0001) // =======================================================
(PID.TID 0000.0001) // End MONITOR dynamic field statistics
(PID.TID 0000.0001) // =======================================================
 Computing Diagnostic #     23  ETAN         Counter:       1   Parms: SM      M1      
 Computing Diagnostic #     24  ETANSQ       Counter:       1   Parms: SM P    M1      
 Computing Diagnostic #     25  DETADT2      Counter:       1   Parms: SM      M1      
 Computing Diagnostic #     69  PHIBOT       Counter:       1   Parms: SM      M1      
 Computing Diagnostic #     70  PHIBOTSQ     Counter:       1   Parms: SM P    M1      
 Computing Diagnostic #    171  GM_VisbK     Counter:       1   Parms: SM P    M1      
 cg2d: Sum(rhs),rhsMax =   1.06581410364015E-14  1.47767685135549E+00
(PID.TID 0000.0001)                    cg2d_init_res =    2.82255271009371E-03
(PID.TID 0000.0001)                       cg2d_iters =    27
(PID.TID 0000.0001)                         cg2d_res =    1.75390067563139E-17
(PID.TID 0000.0001) // =======================================================
(PID.TID 0000.0001) // Begin MONITOR dynamic field statistics
(PID.TID 0000.0001) // =======================================================
(PID.TID 0000.0001) %MON time_tsnumber                =                 36017
(PID.TID 0000.0001) %MON time_secondsf                =   3.1118688000000E+09
(PID.TID 0000.0001) %MON dynstat_eta_max              =   1.6139844734469E+00
(PID.TID 0000.0001) %MON dynstat_eta_min              =  -3.9195926005823E+00
(PID.TID 0000.0001) %MON dynstat_eta_mean             =  -3.7229964002914E-16
(PID.TID 0000.0001) %MON dynstat_eta_sd               =   1.6466426922493E+00
(PID.TID 0000.0001) %MON dynstat_eta_del2             =   1.3946981360891E-02
(PID.TID 0000.0001) %MON dynstat_uvel_max             =   1.4303050832940E-01
(PID.TID 0000.0001) %MON dynstat_uvel_min             =  -3.8630855372608E-01
(PID.TID 0000.0001) %MON dynstat_uvel_mean            =   1.2819733328331E-02
(PID.TID 0000.0001) %MON dynstat_uvel_sd              =   3.8761533262866E-02
(PID.TID 0000.0001) %MON dynstat_uvel_del2            =   6.1918066226720E-04
(PID.TID 0000.0001) %MON dynstat_vvel_max             =   2.2989601689204E-02
(PID.TID 0000.0001) %MON dynstat_vvel_min             =  -2.2989601689180E-02
(PID.TID 0000.0001) %MON dynstat_vvel_mean            =  -4.6323080213484E-17
(PID.TID 0000.0001) %MON dynstat_vvel_sd              =   1.5534917407126E-03
(PID.TID 0000.0001) %MON dynstat_vvel_del2            =   7.2986237293607E-05
(PID.TID 0000.0001) %MON dynstat_wvel_max             =   1.5733229770118E-06
(PID.TID 0000.0001) %MON dynstat_wvel_min             =  -8.0419677757153E-07
(PID.TID 0000.0001) %MON dynstat_wvel_mean            =  -2.9282689047677E-24
(PID.TID 0000.0001) %MON dynstat_wvel_sd              =   2.7339217301939E-07
(PID.TID 0000.0001) %MON dynstat_wvel_del2            =   3.6936165986234E-08
(PID.TID 0000.0001) %MON dynstat_theta_max            =   2.6673477384870E+01
(PID.TID 0000.0001) %MON dynstat_theta_min            =  -9.3077048194538E-01
(PID.TID 0000.0001) %MON dynstat_theta_mean           =   2.2243191340594E+00
(PID.TID 0000.0001) %MON dynstat_theta_sd             =   3.9281264293442E+00
(PID.TID 0000.0001) %MON dynstat_theta_del2           =   4.1674703972576E-02
(PID.TID 0000.0001) %MON dynstat_salt_max             =   3.4700000000000E+01
(PID.TID 0000.0001) %MON dynstat_salt_min             =   3.4700000000000E+01
(PID.TID 0000.0001) %MON dynstat_salt_mean            =   3.4700000000000E+01
(PID.TID 0000.0001) %MON dynstat_salt_sd              =   7.1054273576010E-15
(PID.TID 0000.0001) %MON dynstat_salt_del2            =   0.0000000000000E+00
(PID.TID 0000.0001) %MON extforcing_qnet_max          =   0.0000000000000E+00
(PID.TID 0000.0001) %MON extforcing_qnet_min          =   0.0000000000000E+00
(PID.TID 0000.0001) %MON extforcing_qnet_mean         =   0.0000000000000E+00
(PID.TID 0000.0001) %MON extforcing_qnet_sd           =   0.0000000000000E+00
(PID.TID 0000.0001) %MON extforcing_qnet_del2         =   0.0000000000000E+00
(PID.TID 0000.0001) %MON extforcing_qsw_max           =   0.0000000000000E+00
(PID.TID 0000.0001) %MON extforcing_qsw_min           =   0.0000000000000E+00
(PID.TID 0000.0001) %MON extforcing_qsw_mean          =   0.0000000000000E+00
(PID.TID 0000.0001) %MON extforcing_qsw_sd            =   0.0000000000000E+00
(PID.TID 0000.0001) %MON extforcing_qsw_del2          =   0.0000000000000E+00
(PID.TID 0000.0001) %MON extforcing_empmr_max         =   0.0000000000000E+00
(PID.TID 0000.0001) %MON extforcing_empmr_min         =   0.0000000000000E+00
(PID.TID 0000.0001) %MON extforcing_empmr_mean        =   0.0000000000000E+00
(PID.TID 0000.0001) %MON extforcing_empmr_sd          =   0.0000000000000E+00
(PID.TID 0000.0001) %MON extforcing_empmr_del2        =   0.0000000000000E+00
(PID.TID 0000.0001) %MON advcfl_uvel_max              =   1.0010571218691E-01
(PID.TID 0000.0001) %MON advcfl_vvel_max              =   5.9553478657727E-03
(PID.TID 0000.0001) %MON advcfl_wvel_max              =   2.2655850868970E-03
(PID.TID 0000.0001) %MON advcfl_W_hf_max              =   2.7187021042764E-03
(PID.TID 0000.0001) %MON pe_b_mean                    =   2.5576105240148E-03
(PID.TID 0000.0001) %MON ke_max                       =   7.4646226046501E-02
(PID.TID 0000.0001) %MON ke_mean                      =   8.3469760919510E-04
(PID.TID 0000.0001) %MON ke_vol                       =   2.1823819113454E+16
(PID.TID 0000.0001) %MON vort_r_min                   =  -1.7705241689027E-07
(PID.TID 0000.0001) %MON vort_r_max                   =   1.7705241689009E-07
(PID.TID 0000.0001) %MON vort_a_mean                  =   2.7861254556126E-21
(PID.TID 0000.0001) %MON vort_a_sd                    =   8.3264761055294E-05
(PID.TID 0000.0001) %MON vort_p_mean                  =   2.8034944168185E-21
(PID.TID 0000.0001) %MON vort_p_sd                    =   8.6550989186603E-05
(PID.TID 0000.0001) %MON surfExpan_theta_mean         =   1.6490862466171E-06
(PID.TID 0000.0001) %MON surfExpan_salt_mean          =  -8.8763151175772E-22
(PID.TID 0000.0001) // =======================================================
(PID.TID 0000.0001) // End MONITOR dynamic field statistics
(PID.TID 0000.0001) // =======================================================
 cg2d: Sum(rhs),rhsMax =   1.24344978758018E-14  1.47794236871980E+00
(PID.TID 0000.0001)                    cg2d_init_res =    3.71636904742449E-03
(PID.TID 0000.0001)                       cg2d_iters =    27
(PID.TID 0000.0001)                         cg2d_res =    4.88978721340510E-18
(PID.TID 0000.0001) // =======================================================
(PID.TID 0000.0001) // Begin MONITOR dynamic field statistics
(PID.TID 0000.0001) // =======================================================
(PID.TID 0000.0001) %MON time_tsnumber                =                 36018
(PID.TID 0000.0001) %MON time_secondsf                =   3.1119552000000E+09
(PID.TID 0000.0001) %MON dynstat_eta_max              =   1.6143029251367E+00
(PID.TID 0000.0001) %MON dynstat_eta_min              =  -3.9211927248291E+00
(PID.TID 0000.0001) %MON dynstat_eta_mean             =  -2.2337978401749E-16
(PID.TID 0000.0001) %MON dynstat_eta_sd               =   1.6473009349715E+00
(PID.TID 0000.0001) %MON dynstat_eta_del2             =   1.3947255484478E-02
(PID.TID 0000.0001) %MON dynstat_uvel_max             =   1.4301351266290E-01
(PID.TID 0000.0001) %MON dynstat_uvel_min             =  -3.8630810340687E-01
(PID.TID 0000.0001) %MON dynstat_uvel_mean            =   1.2810265474686E-02
(PID.TID 0000.0001) %MON dynstat_uvel_sd              =   3.8758007893641E-02
(PID.TID 0000.0001) %MON dynstat_uvel_del2            =   6.1913011516467E-04
(PID.TID 0000.0001) %MON dynstat_vvel_max             =   2.2979298046577E-02
(PID.TID 0000.0001) %MON dynstat_vvel_min             =  -2.2979298046553E-02
(PID.TID 0000.0001) %MON dynstat_vvel_mean            =  -3.0675380263148E-16
(PID.TID 0000.0001) %MON dynstat_vvel_sd              =   1.5552420942259E-03
(PID.TID 0000.0001) %MON dynstat_vvel_del2            =   7.3002225193227E-05
(PID.TID 0000.0001) %MON dynstat_wvel_max             =   1.6286798735249E-06
(PID.TID 0000.0001) %MON dynstat_wvel_min             =  -8.0880589107335E-07
(PID.TID 0000.0001) %MON dynstat_wvel_mean            =   2.9282689047677E-24
(PID.TID 0000.0001) %MON dynstat_wvel_sd              =   2.8585579980551E-07
(PID.TID 0000.0001) %MON dynstat_wvel_del2            =   3.6936894254111E-08
(PID.TID 0000.0001) %MON dynstat_theta_max            =   2.6671367484904E+01
(PID.TID 0000.0001) %MON dynstat_theta_min            =  -9.3077099598599E-01
(PID.TID 0000.0001) %MON dynstat_theta_mean           =   2.2242731908294E+00
(PID.TID 0000.0001) %MON dynstat_theta_sd             =   3.9280066025521E+00
(PID.TID 0000.0001) %MON dynstat_theta_del2           =   4.1679508756362E-02
(PID.TID 0000.0001) %MON dynstat_salt_max             =   3.4700000000000E+01
(PID.TID 0000.0001) %MON dynstat_salt_min             =   3.4700000000000E+01
(PID.TID 0000.0001) %MON dynstat_salt_mean            =   3.4700000000000E+01
(PID.TID 0000.0001) %MON dynstat_salt_sd              =   7.1054273576010E-15
(PID.TID 0000.0001) %MON dynstat_salt_del2            =   0.0000000000000E+00
(PID.TID 0000.0001) %MON extforcing_qnet_max          =   0.0000000000000E+00
(PID.TID 0000.0001) %MON extforcing_qnet_min          =   0.0000000000000E+00
(PID.TID 0000.0001) %MON extforcing_qnet_mean         =   0.0000000000000E+00
(PID.TID 0000.0001) %MON extforcing_qnet_sd           =   0.0000000000000E+00
(PID.TID 0000.0001) %MON extforcing_qnet_del2         =   0.0000000000000E+00
(PID.TID 0000.0001) %MON extforcing_qsw_max           =   0.0000000000000E+00
(PID.TID 0000.0001) %MON extforcing_qsw_min           =   0.0000000000000E+00
(PID.TID 0000.0001) %MON extforcing_qsw_mean          =   0.0000000000000E+00
(PID.TID 0000.0001) %MON extforcing_qsw_sd            =   0.0000000000000E+00
(PID.TID 0000.0001) %MON extforcing_qsw_del2          =   0.0000000000000E+00
(PID.TID 0000.0001) %MON extforcing_empmr_max         =   0.0000000000000E+00
(PID.TID 0000.0001) %MON extforcing_empmr_min         =   0.0000000000000E+00
(PID.TID 0000.0001) %MON extforcing_empmr_mean        =   0.0000000000000E+00
(PID.TID 0000.0001) %MON extforcing_empmr_sd          =   0.0000000000000E+00
(PID.TID 0000.0001) %MON extforcing_empmr_del2        =   0.0000000000000E+00
(PID.TID 0000.0001) %MON advcfl_uvel_max              =   1.0010559549385E-01
(PID.TID 0000.0001) %MON advcfl_vvel_max              =   5.9526787557569E-03
(PID.TID 0000.0001) %MON advcfl_wvel_max              =   2.3452990178758E-03
(PID.TID 0000.0001) %MON advcfl_W_hf_max              =   2.8143588214510E-03
(PID.TID 0000.0001) %MON pe_b_mean                    =   2.5596557339627E-03
(PID.TID 0000.0001) %MON ke_max                       =   7.4646017935444E-02
(PID.TID 0000.0001) %MON ke_mean                      =   8.3444231547159E-04
(PID.TID 0000.0001) %MON ke_vol                       =   2.1823819113454E+16
(PID.TID 0000.0001) %MON vort_r_min                   =  -1.7705218722315E-07
(PID.TID 0000.0001) %MON vort_r_max                   =   1.7705218722297E-07
(PID.TID 0000.0001) %MON vort_a_mean                  =  -5.5722509112253E-21
(PID.TID 0000.0001) %MON vort_a_sd                    =   8.3264759263424E-05
(PID.TID 0000.0001) %MON vort_p_mean                  =  -5.6069888336370E-21
(PID.TID 0000.0001) %MON vort_p_sd                    =   8.6550987130018E-05
(PID.TID 0000.0001) %MON surfExpan_theta_mean         =   2.1795194610980E-06
(PID.TID 0000.0001) %MON surfExpan_salt_mean          =  -4.4381575587886E-22
(PID.TID 0000.0001) // =======================================================
(PID.TID 0000.0001) // End MONITOR dynamic field statistics
(PID.TID 0000.0001) // =======================================================
 cg2d: Sum(rhs),rhsMax =   1.24344978758018E-14  1.47829525025411E+00
(PID.TID 0000.0001)                    cg2d_init_res =    4.42340214059010E-03
(PID.TID 0000.0001)                       cg2d_iters =    27
(PID.TID 0000.0001)                         cg2d_res =    1.64419886813694E-17
(PID.TID 0000.0001) // =======================================================
(PID.TID 0000.0001) // Begin MONITOR dynamic field statistics
(PID.TID 0000.0001) // =======================================================
(PID.TID 0000.0001) %MON time_tsnumber                =                 36019
(PID.TID 0000.0001) %MON time_secondsf                =   3.1120416000000E+09
(PID.TID 0000.0001) %MON dynstat_eta_max              =   1.6147175192887E+00
(PID.TID 0000.0001) %MON dynstat_eta_min              =  -3.9229554797975E+00
(PID.TID 0000.0001) %MON dynstat_eta_mean             =  -2.9783971202332E-16
(PID.TID 0000.0001) %MON dynstat_eta_sd               =   1.6480844330434E+00
(PID.TID 0000.0001) %MON dynstat_eta_del2             =   1.3948281757778E-02
(PID.TID 0000.0001) %MON dynstat_uvel_max             =   1.4299234977282E-01
(PID.TID 0000.0001) %MON dynstat_uvel_min             =  -3.8630762246428E-01
(PID.TID 0000.0001) %MON dynstat_uvel_mean            =   1.2798728415200E-02
(PID.TID 0000.0001) %MON dynstat_uvel_sd              =   3.8753757729000E-02
(PID.TID 0000.0001) %MON dynstat_uvel_del2            =   6.1907186216505E-04
(PID.TID 0000.0001) %MON dynstat_vvel_max             =   2.2971957711507E-02
(PID.TID 0000.0001) %MON dynstat_vvel_min             =  -2.2971957711483E-02
(PID.TID 0000.0001) %MON dynstat_vvel_mean            =  -5.7430618241749E-16
(PID.TID 0000.0001) %MON dynstat_vvel_sd              =   1.5568933488070E-03
(PID.TID 0000.0001) %MON dynstat_vvel_del2            =   7.3014753691245E-05
(PID.TID 0000.0001) %MON dynstat_wvel_max             =   1.6702886807453E-06
(PID.TID 0000.0001) %MON dynstat_wvel_min             =  -8.2003988292810E-07
(PID.TID 0000.0001) %MON dynstat_wvel_mean            =   0.0000000000000E+00
(PID.TID 0000.0001) %MON dynstat_wvel_sd              =   2.9744130335212E-07
(PID.TID 0000.0001) %MON dynstat_wvel_del2            =   3.6940628377039E-08
(PID.TID 0000.0001) %MON dynstat_theta_max            =   2.6669059234025E+01
(PID.TID 0000.0001) %MON dynstat_theta_min            =  -9.3077151707020E-01
(PID.TID 0000.0001) %MON dynstat_theta_mean           =   2.2242206390785E+00
(PID.TID 0000.0001) %MON dynstat_theta_sd             =   3.9278666911896E+00
(PID.TID 0000.0001) %MON dynstat_theta_del2           =   4.1684646352725E-02
(PID.TID 0000.0001) %MON dynstat_salt_max             =   3.4700000000000E+01
(PID.TID 0000.0001) %MON dynstat_salt_min             =   3.4700000000000E+01
(PID.TID 0000.0001) %MON dynstat_salt_mean            =   3.4700000000000E+01
(PID.TID 0000.0001) %MON dynstat_salt_sd              =   7.1054273576010E-15
(PID.TID 0000.0001) %MON dynstat_salt_del2            =   0.0000000000000E+00
(PID.TID 0000.0001) %MON extforcing_qnet_max          =   0.0000000000000E+00
(PID.TID 0000.0001) %MON extforcing_qnet_min          =   0.0000000000000E+00
(PID.TID 0000.0001) %MON extforcing_qnet_mean         =   0.0000000000000E+00
(PID.TID 0000.0001) %MON extforcing_qnet_sd           =   0.0000000000000E+00
(PID.TID 0000.0001) %MON extforcing_qnet_del2         =   0.0000000000000E+00
(PID.TID 0000.0001) %MON extforcing_qsw_max           =   0.0000000000000E+00
(PID.TID 0000.0001) %MON extforcing_qsw_min           =   0.0000000000000E+00
(PID.TID 0000.0001) %MON extforcing_qsw_mean          =   0.0000000000000E+00
(PID.TID 0000.0001) %MON extforcing_qsw_sd            =   0.0000000000000E+00
(PID.TID 0000.0001) %MON extforcing_qsw_del2          =   0.0000000000000E+00
(PID.TID 0000.0001) %MON extforcing_empmr_max         =   0.0000000000000E+00
(PID.TID 0000.0001) %MON extforcing_empmr_min         =   0.0000000000000E+00
(PID.TID 0000.0001) %MON extforcing_empmr_mean        =   0.0000000000000E+00
(PID.TID 0000.0001) %MON extforcing_empmr_sd          =   0.0000000000000E+00
(PID.TID 0000.0001) %MON extforcing_empmr_del2        =   0.0000000000000E+00
(PID.TID 0000.0001) %MON advcfl_uvel_max              =   1.0010547086523E-01
(PID.TID 0000.0001) %MON advcfl_vvel_max              =   5.9507772765847E-03
(PID.TID 0000.0001) %MON advcfl_wvel_max              =   2.4052157002732E-03
(PID.TID 0000.0001) %MON advcfl_W_hf_max              =   2.8862588403279E-03
(PID.TID 0000.0001) %MON pe_b_mean                    =   2.5620911872786E-03
(PID.TID 0000.0001) %MON ke_max                       =   7.4645803405674E-02
(PID.TID 0000.0001) %MON ke_mean                      =   8.3413239287454E-04
(PID.TID 0000.0001) %MON ke_vol                       =   2.1823819113454E+16
(PID.TID 0000.0001) %MON vort_r_min                   =  -1.7705129350583E-07
(PID.TID 0000.0001) %MON vort_r_max                   =   1.7705129350565E-07
(PID.TID 0000.0001) %MON vort_a_mean                  =   0.0000000000000E+00
(PID.TID 0000.0001) %MON vort_a_sd                    =   8.3264757062172E-05
(PID.TID 0000.0001) %MON vort_p_mean                  =   0.0000000000000E+00
(PID.TID 0000.0001) %MON vort_p_sd                    =   8.6550984621033E-05
(PID.TID 0000.0001) %MON surfExpan_theta_mean         =   2.5918692143858E-06
(PID.TID 0000.0001) %MON surfExpan_salt_mean          =  -6.6572363381829E-22
(PID.TID 0000.0001) // =======================================================
(PID.TID 0000.0001) // End MONITOR dynamic field statistics
(PID.TID 0000.0001) // =======================================================
 cg2d: Sum(rhs),rhsMax =   3.55271367880050E-15  1.47870971336154E+00
(PID.TID 0000.0001)                    cg2d_init_res =    4.91003177777908E-03
(PID.TID 0000.0001)                       cg2d_iters =    27
(PID.TID 0000.0001)                         cg2d_res =    8.08676010846125E-18
(PID.TID 0000.0001) // =======================================================
(PID.TID 0000.0001) // Begin MONITOR dynamic field statistics
(PID.TID 0000.0001) // =======================================================
(PID.TID 0000.0001) %MON time_tsnumber                =                 36020
(PID.TID 0000.0001) %MON time_secondsf                =   3.1121280000000E+09
(PID.TID 0000.0001) %MON dynstat_eta_max              =   1.6151993967182E+00
(PID.TID 0000.0001) %MON dynstat_eta_min              =  -3.9247977298678E+00
(PID.TID 0000.0001) %MON dynstat_eta_mean             =  -3.7229964002914E-16
(PID.TID 0000.0001) %MON dynstat_eta_sd               =   1.6489511833634E+00
(PID.TID 0000.0001) %MON dynstat_eta_del2             =   1.3949906835612E-02
(PID.TID 0000.0001) %MON dynstat_uvel_max             =   1.4296811548865E-01
(PID.TID 0000.0001) %MON dynstat_uvel_min             =  -3.8630712573132E-01
(PID.TID 0000.0001) %MON dynstat_uvel_mean            =   1.2785714303346E-02
(PID.TID 0000.0001) %MON dynstat_uvel_sd              =   3.8748994035841E-02
(PID.TID 0000.0001) %MON dynstat_uvel_del2            =   6.1900908516536E-04
(PID.TID 0000.0001) %MON dynstat_vvel_max             =   2.2967647148552E-02
(PID.TID 0000.0001) %MON dynstat_vvel_min             =  -2.2967647148527E-02
(PID.TID 0000.0001) %MON dynstat_vvel_mean            =  -8.3516954200893E-16
(PID.TID 0000.0001) %MON dynstat_vvel_sd              =   1.5581584339205E-03
(PID.TID 0000.0001) %MON dynstat_vvel_del2            =   7.3022244605628E-05
(PID.TID 0000.0001) %MON dynstat_wvel_max             =   1.6981482509694E-06
(PID.TID 0000.0001) %MON dynstat_wvel_min             =  -8.3485616069512E-07
(PID.TID 0000.0001) %MON dynstat_wvel_mean            =  -2.6354420142910E-23
(PID.TID 0000.0001) %MON dynstat_wvel_sd              =   3.0619783124912E-07
(PID.TID 0000.0001) %MON dynstat_wvel_del2            =   3.6942360493977E-08
(PID.TID 0000.0001) %MON dynstat_theta_max            =   2.6666644624572E+01
(PID.TID 0000.0001) %MON dynstat_theta_min            =  -9.3077204105088E-01
(PID.TID 0000.0001) %MON dynstat_theta_mean           =   2.2241637373045E+00
(PID.TID 0000.0001) %MON dynstat_theta_sd             =   3.9277137270026E+00
(PID.TID 0000.0001) %MON dynstat_theta_del2           =   4.1689929979488E-02
(PID.TID 0000.0001) %MON dynstat_salt_max             =   3.4700000000000E+01
(PID.TID 0000.0001) %MON dynstat_salt_min             =   3.4700000000000E+01
(PID.TID 0000.0001) %MON dynstat_salt_mean            =   3.4700000000000E+01
(PID.TID 0000.0001) %MON dynstat_salt_sd              =   7.1054273576010E-15
(PID.TID 0000.0001) %MON dynstat_salt_del2            =   0.0000000000000E+00
(PID.TID 0000.0001) %MON extforcing_qnet_max          =   0.0000000000000E+00
(PID.TID 0000.0001) %MON extforcing_qnet_min          =   0.0000000000000E+00
(PID.TID 0000.0001) %MON extforcing_qnet_mean         =   0.0000000000000E+00
(PID.TID 0000.0001) %MON extforcing_qnet_sd           =   0.0000000000000E+00
(PID.TID 0000.0001) %MON extforcing_qnet_del2         =   0.0000000000000E+00
(PID.TID 0000.0001) %MON extforcing_qsw_max           =   0.0000000000000E+00
(PID.TID 0000.0001) %MON extforcing_qsw_min           =   0.0000000000000E+00
(PID.TID 0000.0001) %MON extforcing_qsw_mean          =   0.0000000000000E+00
(PID.TID 0000.0001) %MON extforcing_qsw_sd            =   0.0000000000000E+00
(PID.TID 0000.0001) %MON extforcing_qsw_del2          =   0.0000000000000E+00
(PID.TID 0000.0001) %MON extforcing_empmr_max         =   0.0000000000000E+00
(PID.TID 0000.0001) %MON extforcing_empmr_min         =   0.0000000000000E+00
(PID.TID 0000.0001) %MON extforcing_empmr_mean        =   0.0000000000000E+00
(PID.TID 0000.0001) %MON extforcing_empmr_sd          =   0.0000000000000E+00
(PID.TID 0000.0001) %MON extforcing_empmr_del2        =   0.0000000000000E+00
(PID.TID 0000.0001) %MON advcfl_uvel_max              =   1.0010534214480E-01
(PID.TID 0000.0001) %MON advcfl_vvel_max              =   5.9496606455858E-03
(PID.TID 0000.0001) %MON advcfl_wvel_max              =   2.4453334813959E-03
(PID.TID 0000.0001) %MON advcfl_W_hf_max              =   2.9344001776751E-03
(PID.TID 0000.0001) %MON pe_b_mean                    =   2.5647867740561E-03
(PID.TID 0000.0001) %MON ke_max                       =   7.4645588449882E-02
(PID.TID 0000.0001) %MON ke_mean                      =   8.3378323548560E-04
(PID.TID 0000.0001) %MON ke_vol                       =   2.1823819113454E+16
(PID.TID 0000.0001) %MON vort_r_min                   =  -1.7704992857460E-07
(PID.TID 0000.0001) %MON vort_r_max                   =   1.7704992857442E-07
(PID.TID 0000.0001) %MON vort_a_mean                  =   2.7861254556126E-21
(PID.TID 0000.0001) %MON vort_a_sd                    =   8.3264754565460E-05
(PID.TID 0000.0001) %MON vort_p_mean                  =   2.8034944168185E-21
(PID.TID 0000.0001) %MON vort_p_sd                    =   8.6550981789022E-05
(PID.TID 0000.0001) %MON surfExpan_theta_mean         =   2.8694791364363E-06
(PID.TID 0000.0001) %MON surfExpan_salt_mean          =  -8.8763151175772E-22
(PID.TID 0000.0001) // =======================================================
(PID.TID 0000.0001) // End MONITOR dynamic field statistics
(PID.TID 0000.0001) // =======================================================
 Computing Diagnostic #     30  UVEL         Counter:      20   Parms: UU      MR      
           Vector  Mate for  UVEL         Diagnostic #     31  VVEL     exists 
 Computing Diagnostic #     31  VVEL         Counter:      20   Parms: VV      MR      
           Vector  Mate for  VVEL         Diagnostic #     30  UVEL     exists 
 Computing Diagnostic #     32  WVEL         Counter:      20   Parms: WM      LR      
 Computing Diagnostic #     67  PHIHYD       Counter:      20   Parms: SM      MR      
 Computing Diagnostic #     46  VVELMASS     Counter:      20   Parms: VV      MR      
           Vector  Mate for  VVELMASS     Diagnostic #     45  UVELMASS not enabled
 Computing Diagnostic #     26  THETA        Counter:      20   Parms: SM      MR      
 Computing Diagnostic #     49  VTHMASS      Counter:      20   Parms: VV      MR      
           Vector  Mate for  VTHMASS      Diagnostic #     48  UTHMASS  not enabled
 Computing Diagnostic #     50  WTHMASS      Counter:      20   Parms: WM      LR      
 Computing Diagnostic #     33  THETASQ      Counter:      20   Parms: SM P    MR      
 Computing Diagnostic #     36  UVELSQ       Counter:      20   Parms: UU P    MR      
           Vector  Mate for  UVELSQ       Diagnostic #     37  VVELSQ   not enabled
 Computing Diagnostic #     42  UV_VEL_Z     Counter:      20   Parms: UZ      MR      
           Vector  Mate for  UV_VEL_Z     Diagnostic #     42  UV_VEL_Z exists 
 Computing Diagnostic #     43  WU_VEL       Counter:      20   Parms: WU      LR      
 Computing Diagnostic #     72  DRHODR       Counter:      10   Parms: SM      LR      
 Computing Diagnostic #     62  RHOAnoma     Counter:      10   Parms: SM      MR      
 Computing Diagnostic #    183  GM_PsiY      Counter:      10   Parms: VV   182LR      
           Vector  Mate for  GM_PsiY      Diagnostic #    182  GM_PsiX  not enabled
 Computing Diagnostic #    176  GM_Kvy       Counter:      10   Parms: VV P 175MR      
           Vector  Mate for  GM_Kvy       Diagnostic #    175  GM_Kux   not enabled
 Computing Diagnostic #    178  GM_Kvz       Counter:      10   Parms: VV   177MR      
           Vector  Mate for  GM_Kvz       Diagnostic #    177  GM_Kuz   not enabled
 Computing Diagnostic #    180  GM_Kwy       Counter:      10   Parms: VM   179LR      
           Vector  Mate for  GM_Kwy       Diagnostic #    179  GM_Kwx   not enabled
 Computing Diagnostic #    181  GM_Kwz       Counter:      10   Parms: WM P    LR      
 Computing Diagnostic #     97  ADVy_TH      Counter:      20   Parms: VV      MR      
           Vector  Mate for  ADVy_TH      Diagnostic #     96  ADVx_TH  not enabled
 Computing Diagnostic #     95  ADVr_TH      Counter:      20   Parms: WM      LR      
 Computing Diagnostic #    100  DFyE_TH      Counter:      20   Parms: VV      MR      
           Vector  Mate for  DFyE_TH      Diagnostic #     99  DFxE_TH  not enabled
 Computing Diagnostic #     98  DFrE_TH      Counter:      20   Parms: WM      LR      
 Computing Diagnostic #    101  DFrI_TH      Counter:      20   Parms: WM      LR      
(PID.TID 0000.0001) %CHECKPOINT     36020 ckptA
(PID.TID 0000.0001)   Seconds in section "ALL                    [THE_MODEL_MAIN]":
(PID.TID 0000.0001)           User time:  6.60099618
(PID.TID 0000.0001)         System time:  0.181973001
(PID.TID 0000.0001)     Wall clock time:  7.19303513
(PID.TID 0000.0001)          No. starts: 1
(PID.TID 0000.0001)           No. stops: 1
(PID.TID 0000.0001)   Seconds in section "INITIALISE_FIXED       [THE_MODEL_MAIN]":
(PID.TID 0000.0001)           User time:  1.67274503
(PID.TID 0000.0001)         System time:  0.0419939999
(PID.TID 0000.0001)     Wall clock time:  1.7842021
(PID.TID 0000.0001)          No. starts: 1
(PID.TID 0000.0001)           No. stops: 1
(PID.TID 0000.0001)   Seconds in section "THE_MAIN_LOOP          [THE_MODEL_MAIN]":
(PID.TID 0000.0001)           User time:  4.91525304
(PID.TID 0000.0001)         System time:  0.138978999
(PID.TID 0000.0001)     Wall clock time:  5.39441514
(PID.TID 0000.0001)          No. starts: 1
(PID.TID 0000.0001)           No. stops: 1
(PID.TID 0000.0001)   Seconds in section "INITIALISE_VARIA    [THE_MAIN_LOOP]":
(PID.TID 0000.0001)           User time:  0.215968013
(PID.TID 0000.0001)         System time:  0.035993997
(PID.TID 0000.0001)     Wall clock time:  0.578729153
(PID.TID 0000.0001)          No. starts: 1
(PID.TID 0000.0001)           No. stops: 1
(PID.TID 0000.0001)   Seconds in section "MAIN LOOP           [THE_MAIN_LOOP]":
(PID.TID 0000.0001)           User time:  4.69928503
(PID.TID 0000.0001)         System time:  0.102985002
(PID.TID 0000.0001)     Wall clock time:  4.81556296
(PID.TID 0000.0001)          No. starts: 1
(PID.TID 0000.0001)           No. stops: 1
(PID.TID 0000.0001)   Seconds in section "FORWARD_STEP        [THE_MAIN_LOOP]":
(PID.TID 0000.0001)           User time:  4.69828606
(PID.TID 0000.0001)         System time:  0.102985002
(PID.TID 0000.0001)     Wall clock time:  4.81465769
(PID.TID 0000.0001)          No. starts: 20
(PID.TID 0000.0001)           No. stops: 20
(PID.TID 0000.0001)   Seconds in section "DO_STATEVARS_DIAGS  [FORWARD_STEP]":
(PID.TID 0000.0001)           User time:  0.0429912806
(PID.TID 0000.0001)         System time:  0.
(PID.TID 0000.0001)     Wall clock time:  0.0415611267
(PID.TID 0000.0001)          No. starts: 60
(PID.TID 0000.0001)           No. stops: 60
(PID.TID 0000.0001)   Seconds in section "LOAD_FIELDS_DRIVER  [FORWARD_STEP]":
(PID.TID 0000.0001)           User time:  0.00399899483
(PID.TID 0000.0001)         System time:  0.000999994576
(PID.TID 0000.0001)     Wall clock time:  0.00245785713
(PID.TID 0000.0001)          No. starts: 20
(PID.TID 0000.0001)           No. stops: 20
(PID.TID 0000.0001)   Seconds in section "EXTERNAL_FLDS_LOAD [LOAD_FLDS_DRIVER]":
(PID.TID 0000.0001)           User time:  0.00200009346
(PID.TID 0000.0001)         System time:  0.
(PID.TID 0000.0001)     Wall clock time:  0.000833272934
(PID.TID 0000.0001)          No. starts: 20
(PID.TID 0000.0001)           No. stops: 20
(PID.TID 0000.0001)   Seconds in section "DO_ATMOSPHERIC_PHYS [FORWARD_STEP]":
(PID.TID 0000.0001)           User time:  0.
(PID.TID 0000.0001)         System time:  0.
(PID.TID 0000.0001)     Wall clock time:  0.000800132751
(PID.TID 0000.0001)          No. starts: 20
(PID.TID 0000.0001)           No. stops: 20
(PID.TID 0000.0001)   Seconds in section "DO_OCEANIC_PHYS     [FORWARD_STEP]":
(PID.TID 0000.0001)           User time:  0.310952306
(PID.TID 0000.0001)         System time:  0.00100000203
(PID.TID 0000.0001)     Wall clock time:  0.313668489
(PID.TID 0000.0001)          No. starts: 20
(PID.TID 0000.0001)           No. stops: 20
(PID.TID 0000.0001)   Seconds in section "DYNAMICS            [FORWARD_STEP]":
(PID.TID 0000.0001)           User time:  0.554917693
(PID.TID 0000.0001)         System time:  0.
(PID.TID 0000.0001)     Wall clock time:  0.555417061
(PID.TID 0000.0001)          No. starts: 20
(PID.TID 0000.0001)           No. stops: 20
(PID.TID 0000.0001)   Seconds in section "SOLVE_FOR_PRESSURE  [FORWARD_STEP]":
(PID.TID 0000.0001)           User time:  0.0879855156
(PID.TID 0000.0001)         System time:  0.
(PID.TID 0000.0001)     Wall clock time:  0.0880079269
(PID.TID 0000.0001)          No. starts: 20
(PID.TID 0000.0001)           No. stops: 20
(PID.TID 0000.0001)   Seconds in section "MOM_CORRECTION_STEP [FORWARD_STEP]":
(PID.TID 0000.0001)           User time:  0.0249963999
(PID.TID 0000.0001)         System time:  0.
(PID.TID 0000.0001)     Wall clock time:  0.0258369446
(PID.TID 0000.0001)          No. starts: 20
(PID.TID 0000.0001)           No. stops: 20
(PID.TID 0000.0001)   Seconds in section "UPDATE_ETAH         [FORWARD_STEP]":
(PID.TID 0000.0001)           User time:  0.000999927521
(PID.TID 0000.0001)         System time:  0.00100000203
(PID.TID 0000.0001)     Wall clock time:  0.00127100945
(PID.TID 0000.0001)          No. starts: 20
(PID.TID 0000.0001)           No. stops: 20
(PID.TID 0000.0001)   Seconds in section "BLOCKING_EXCHANGES  [FORWARD_STEP]":
(PID.TID 0000.0001)           User time:  0.108984351
(PID.TID 0000.0001)         System time:  0.00199900568
(PID.TID 0000.0001)     Wall clock time:  0.112312555
(PID.TID 0000.0001)          No. starts: 40
(PID.TID 0000.0001)           No. stops: 40
(PID.TID 0000.0001)   Seconds in section "THERMODYNAMICS      [FORWARD_STEP]":
(PID.TID 0000.0001)           User time:  0.480928302
(PID.TID 0000.0001)         System time:  0.
(PID.TID 0000.0001)     Wall clock time:  0.48099041
(PID.TID 0000.0001)          No. starts: 20
(PID.TID 0000.0001)           No. stops: 20
(PID.TID 0000.0001)   Seconds in section "TRC_CORRECTION_STEP [FORWARD_STEP]":
(PID.TID 0000.0001)           User time:  0.0079972744
(PID.TID 0000.0001)         System time:  0.
(PID.TID 0000.0001)     Wall clock time:  0.00519800186
(PID.TID 0000.0001)          No. starts: 20
(PID.TID 0000.0001)           No. stops: 20
(PID.TID 0000.0001)   Seconds in section "DO_STATEVARS_TAVE   [FORWARD_STEP]":
(PID.TID 0000.0001)           User time:  0.0399938822
(PID.TID 0000.0001)         System time:  0.
(PID.TID 0000.0001)     Wall clock time:  0.0413210392
(PID.TID 0000.0001)          No. starts: 20
(PID.TID 0000.0001)           No. stops: 20
(PID.TID 0000.0001)   Seconds in section "MONITOR             [FORWARD_STEP]":
(PID.TID 0000.0001)           User time:  0.0979846716
(PID.TID 0000.0001)         System time:  0.00300000608
(PID.TID 0000.0001)     Wall clock time:  0.100673676
(PID.TID 0000.0001)          No. starts: 20
(PID.TID 0000.0001)           No. stops: 20
(PID.TID 0000.0001)   Seconds in section "DO_THE_MODEL_IO     [FORWARD_STEP]":
(PID.TID 0000.0001)           User time:  2.88056207
(PID.TID 0000.0001)         System time:  0.0229969919
(PID.TID 0000.0001)     Wall clock time:  2.91515899
(PID.TID 0000.0001)          No. starts: 20
(PID.TID 0000.0001)           No. stops: 20
(PID.TID 0000.0001)   Seconds in section "DO_WRITE_PICKUP     [FORWARD_STEP]":
(PID.TID 0000.0001)           User time:  0.0409941673
(PID.TID 0000.0001)         System time:  0.0719889998
(PID.TID 0000.0001)     Wall clock time:  0.11405015
(PID.TID 0000.0001)          No. starts: 20
(PID.TID 0000.0001)           No. stops: 20
(PID.TID 0000.0001) // ======================================================
(PID.TID 0000.0001) // Tile <-> Tile communication statistics
(PID.TID 0000.0001) // ======================================================
(PID.TID 0000.0001) // o Tile number: 000001
(PID.TID 0000.0001) //         No. X exchanges =              0
(PID.TID 0000.0001) //            Max. X spins =              0
(PID.TID 0000.0001) //            Min. X spins =     1000000000
(PID.TID 0000.0001) //          Total. X spins =              0
(PID.TID 0000.0001) //            Avg. X spins =       0.00E+00
(PID.TID 0000.0001) //         No. Y exchanges =              0
(PID.TID 0000.0001) //            Max. Y spins =              0
(PID.TID 0000.0001) //            Min. Y spins =     1000000000
(PID.TID 0000.0001) //          Total. Y spins =              0
(PID.TID 0000.0001) //            Avg. Y spins =       0.00E+00
(PID.TID 0000.0001) // o Tile number: 000002
(PID.TID 0000.0001) //         No. X exchanges =              0
(PID.TID 0000.0001) //            Max. X spins =              0
(PID.TID 0000.0001) //            Min. X spins =     1000000000
(PID.TID 0000.0001) //          Total. X spins =              0
(PID.TID 0000.0001) //            Avg. X spins =       0.00E+00
(PID.TID 0000.0001) //         No. Y exchanges =              0
(PID.TID 0000.0001) //            Max. Y spins =              0
(PID.TID 0000.0001) //            Min. Y spins =     1000000000
(PID.TID 0000.0001) //          Total. Y spins =              0
(PID.TID 0000.0001) //            Avg. Y spins =       0.00E+00
(PID.TID 0000.0001) // o Tile number: 000003
(PID.TID 0000.0001) //         No. X exchanges =              0
(PID.TID 0000.0001) //            Max. X spins =              0
(PID.TID 0000.0001) //            Min. X spins =     1000000000
(PID.TID 0000.0001) //          Total. X spins =              0
(PID.TID 0000.0001) //            Avg. X spins =       0.00E+00
(PID.TID 0000.0001) //         No. Y exchanges =              0
(PID.TID 0000.0001) //            Max. Y spins =              0
(PID.TID 0000.0001) //            Min. Y spins =     1000000000
(PID.TID 0000.0001) //          Total. Y spins =              0
(PID.TID 0000.0001) //            Avg. Y spins =       0.00E+00
(PID.TID 0000.0001) // o Tile number: 000004
(PID.TID 0000.0001) //         No. X exchanges =              0
(PID.TID 0000.0001) //            Max. X spins =              0
(PID.TID 0000.0001) //            Min. X spins =     1000000000
(PID.TID 0000.0001) //          Total. X spins =              0
(PID.TID 0000.0001) //            Avg. X spins =       0.00E+00
(PID.TID 0000.0001) //         No. Y exchanges =              0
(PID.TID 0000.0001) //            Max. Y spins =              0
(PID.TID 0000.0001) //            Min. Y spins =     1000000000
(PID.TID 0000.0001) //          Total. Y spins =              0
(PID.TID 0000.0001) //            Avg. Y spins =       0.00E+00
(PID.TID 0000.0001) // o Thread number: 000001
(PID.TID 0000.0001) //            No. barriers =          17744
(PID.TID 0000.0001) //      Max. barrier spins =              1
(PID.TID 0000.0001) //      Min. barrier spins =              1
(PID.TID 0000.0001) //     Total barrier spins =          17744
(PID.TID 0000.0001) //      Avg. barrier spins =       1.00E+00
