(PID.TID 0000.0001) 
(PID.TID 0000.0001) // ======================================================
(PID.TID 0000.0001) //                      MITgcm UV
(PID.TID 0000.0001) //                      =========
(PID.TID 0000.0001) // ======================================================
(PID.TID 0000.0001) // execution environment starting up...
(PID.TID 0000.0001) 
(PID.TID 0000.0001) // MITgcmUV version:  checkpoint61n
(PID.TID 0000.0001) // Build user:        jmc
(PID.TID 0000.0001) // Build host:        faulks
(PID.TID 0000.0001) // Build date:        Sun May 17 12:16:51 EDT 2009
(PID.TID 0000.0001) 
(PID.TID 0000.0001) // =======================================================
(PID.TID 0000.0001) // Execution Environment parameter file "eedata"
(PID.TID 0000.0001) // =======================================================
(PID.TID 0000.0001) ># Example "eedata" file
(PID.TID 0000.0001) ># Lines beginning "#" are comments
(PID.TID 0000.0001) ># nTx - No. threads per process in X
(PID.TID 0000.0001) ># nTy - No. threads per process in Y
(PID.TID 0000.0001) > &EEPARMS
(PID.TID 0000.0001) > nTx=1,
(PID.TID 0000.0001) > nTy=1,
(PID.TID 0000.0001) > &
(PID.TID 0000.0001) ># Note: Some systems use & as the
(PID.TID 0000.0001) ># namelist terminator. Other systems
(PID.TID 0000.0001) ># use a / character (as shown here).
(PID.TID 0000.0001) 
(PID.TID 0000.0001) // =======================================================
(PID.TID 0000.0001) // Computational Grid Specification ( see files "SIZE.h" )
(PID.TID 0000.0001) //                                  ( and "eedata"       )
(PID.TID 0000.0001) // =======================================================
(PID.TID 0000.0001)      nPx =    1 ; /* No. processes in X */
(PID.TID 0000.0001)      nPy =    1 ; /* No. processes in Y */
(PID.TID 0000.0001)      nSx =    1 ; /* No. tiles in X per process */
(PID.TID 0000.0001)      nSy =    1 ; /* No. tiles in Y per process */
(PID.TID 0000.0001)      sNx =    1 ; /* Tile size in X */
(PID.TID 0000.0001)      sNy =   56 ; /* Tile size in Y */
(PID.TID 0000.0001)      OLx =    3 ; /* Tile overlap distance in X */
(PID.TID 0000.0001)      OLy =    3 ; /* Tile overlap distance in Y */
(PID.TID 0000.0001)      nTx =    1 ; /* No. threads in X per process */
(PID.TID 0000.0001)      nTy =    1 ; /* No. threads in Y per process */
(PID.TID 0000.0001)       Nr =   15 ; /* No. levels in the vertical   */
(PID.TID 0000.0001)       Nx =    1 ; /* Total domain size in X ( = nPx*nSx*sNx ) */
(PID.TID 0000.0001)       Ny =   56 ; /* Total domain size in Y ( = nPy*nSy*sNy ) */
(PID.TID 0000.0001)   nTiles =    1 ; /* Total no. tiles per process ( = nSx*nSy ) */
(PID.TID 0000.0001)   nProcs =    1 ; /* Total no. processes ( = nPx*nPy ) */
(PID.TID 0000.0001) nThreads =    1 ; /* Total no. threads per process ( = nTx*nTy ) */
(PID.TID 0000.0001) usingMPI =    F ; /* Flag used to control whether MPI is in use */
(PID.TID 0000.0001)                   /*  note: To execute a program with MPI calls */
(PID.TID 0000.0001)                   /*  it must be launched appropriately e.g     */
(PID.TID 0000.0001)                   /*  "mpirun -np 64 ......"                    */
(PID.TID 0000.0001) useCoupler=    F ;/* Flag used to control communications with   */
(PID.TID 0000.0001)                   /*  other model components, through a coupler */
(PID.TID 0000.0001) printMapIncludesZeros=    F ; /* print zeros in Std.Output maps */
(PID.TID 0000.0001) maxLengthPrt1D=   65 /* maxLength of 1D array printed to StdOut */
(PID.TID 0000.0001) 
(PID.TID 0000.0001) // ======================================================
(PID.TID 0000.0001) // Mapping of tiles to threads
(PID.TID 0000.0001) // ======================================================
(PID.TID 0000.0001) // -o- Thread   1, tiles (   1:   1,   1:   1)
(PID.TID 0000.0001) 
(PID.TID 0000.0001) // ======================================================
(PID.TID 0000.0001) // Tile <-> Tile connectvity table
(PID.TID 0000.0001) // ======================================================
(PID.TID 0000.0001) // Tile number: 000001 (process no. = 000001)
(PID.TID 0000.0001) //        WEST: Tile = 000001, Process = 000001, Comm = put
(PID.TID 0000.0001) //                bi = 000001, bj = 000001
(PID.TID 0000.0001) //        EAST: Tile = 000001, Process = 000001, Comm = put
(PID.TID 0000.0001) //                bi = 000001, bj = 000001
(PID.TID 0000.0001) //       SOUTH: Tile = 000001, Process = 000001, Comm = put
(PID.TID 0000.0001) //                bi = 000001, bj = 000001
(PID.TID 0000.0001) //       NORTH: Tile = 000001, Process = 000001, Comm = put
(PID.TID 0000.0001) //                bi = 000001, bj = 000001
(PID.TID 0000.0001) 
(PID.TID 0000.0001) // =======================================================
(PID.TID 0000.0001) // Model parameter file "data"
(PID.TID 0000.0001) // =======================================================
(PID.TID 0000.0001) ># ====================
(PID.TID 0000.0001) ># | Model parameters |
(PID.TID 0000.0001) ># ====================
(PID.TID 0000.0001) >#
(PID.TID 0000.0001) ># Continuous equation parameters
(PID.TID 0000.0001) > &PARM01
(PID.TID 0000.0001) > tRef= 18.8, 16.3, 13.1, 10.4, 8.1, 6.0, 4.5,
(PID.TID 0000.0001) >      3.4, 2.7, 2.2, 1.8, 1.5, 1.2, 1.0, 0.9,
(PID.TID 0000.0001) > sRef= 15*34.7,
(PID.TID 0000.0001) > cosPower=1.,
(PID.TID 0000.0001) > viscAr=1.E-3,
(PID.TID 0000.0001) > viscAh=12.E5,
(PID.TID 0000.0001) > no_slip_sides=.FALSE.,
(PID.TID 0000.0001) > no_slip_bottom=.TRUE.,
(PID.TID 0000.0001) > bottomDragLinear=1.E-3,
(PID.TID 0000.0001) >#diffK4T=2.E12,
(PID.TID 0000.0001) > diffKhT=0.E3,
(PID.TID 0000.0001) > diffKrNrT=1.E-4, 14*1.E-5,
(PID.TID 0000.0001) > ivdc_kappa=100.,
(PID.TID 0000.0001) > implicitDiffusion=.TRUE.,
(PID.TID 0000.0001) > eosType='LINEAR',
(PID.TID 0000.0001) > tAlpha=2.E-4,
(PID.TID 0000.0001) > sBeta =0.E-4,
(PID.TID 0000.0001) > saltStepping=.FALSE.,
(PID.TID 0000.0001) > gravity=9.81,
(PID.TID 0000.0001) > rhonil=1035.,
(PID.TID 0000.0001) > implicitFreeSurface=.TRUE.,
(PID.TID 0000.0001) > exactConserv=.TRUE.,
(PID.TID 0000.0001) > staggerTimeStep=.TRUE.,
(PID.TID 0000.0001) > useCDscheme=.TRUE.,
(PID.TID 0000.0001) > readBinaryPrec=64,
(PID.TID 0000.0001) > tempAdvScheme=77,
(PID.TID 0000.0001) > usePickupBeforeC54=.TRUE.,
(PID.TID 0000.0001) > &
(PID.TID 0000.0001) >
(PID.TID 0000.0001) ># Elliptic solver parameters
(PID.TID 0000.0001) > &PARM02
(PID.TID 0000.0001) > cg2dMaxIters=1000,
(PID.TID 0000.0001) >#cg2dTargetResidual=1.E-13,
(PID.TID 0000.0001) > cg2dTargetResWunit=1.E-17,
(PID.TID 0000.0001) > &
(PID.TID 0000.0001) >
(PID.TID 0000.0001) ># Time stepping parameters
(PID.TID 0000.0001) > &PARM03
(PID.TID 0000.0001) > niter0=36000,
(PID.TID 0000.0001) > nTimeSteps=20,
(PID.TID 0000.0001) >#endTime=3110400000.,
(PID.TID 0000.0001) > deltaTmom=1200.0,
(PID.TID 0000.0001) > deltaTfreesurf=3600.0,
(PID.TID 0000.0001) > deltaTtracer=86400.0,
(PID.TID 0000.0001) > deltaTClock =86400.0,
(PID.TID 0000.0001) > abEps=0.1,
(PID.TID 0000.0001) > tauCD=321428.,
(PID.TID 0000.0001) > tauThetaClimRelax=2592000.0,
(PID.TID 0000.0001) > pickupStrictlyMatch=.FALSE.,
(PID.TID 0000.0001) > chkptFreq=0.0,
(PID.TID 0000.0001) > pChkptFreq=3110400000.0,
(PID.TID 0000.0001) > taveFreq=1555200000.0,
(PID.TID 0000.0001) > dumpFreq=1555200000.0,
(PID.TID 0000.0001) > diagFreq=1555200000.0,
(PID.TID 0000.0001) >#monitorFreq=31104000.0,
(PID.TID 0000.0001) > monitorFreq=1.0,
(PID.TID 0000.0001) > monitorSelect=2,
(PID.TID 0000.0001) > &
(PID.TID 0000.0001) >
(PID.TID 0000.0001) ># Gridding parameters
(PID.TID 0000.0001) > &PARM04
(PID.TID 0000.0001) > usingSphericalPolarGrid=.TRUE.,
(PID.TID 0000.0001) > delRc= 20.,  60.,  85., 120., 165., 215., 265., 315.,
(PID.TID 0000.0001) >       365., 415., 465., 515., 565., 615., 665., 350.,
(PID.TID 0000.0001) > ygOrigin=-84.,
(PID.TID 0000.0001) > delY=56*3.,
(PID.TID 0000.0001) > delX=1*3.,
(PID.TID 0000.0001) > &
(PID.TID 0000.0001) >
(PID.TID 0000.0001) ># Input datasets
(PID.TID 0000.0001) > &PARM05
(PID.TID 0000.0001) > bathyFile='topo_sl.bin',
(PID.TID 0000.0001) > zonalWindFile='taux_sl.bin',
(PID.TID 0000.0001) > thetaClimFile='sst_sl.bin',
(PID.TID 0000.0001) > &
(PID.TID 0000.0001) 
(PID.TID 0000.0001) S/R INI_PARMS ; starts to read PARM01
(PID.TID 0000.0001) S/R INI_PARMS ; read PARM01 : OK
(PID.TID 0000.0001) S/R INI_PARMS ; starts to read PARM02
(PID.TID 0000.0001) S/R INI_PARMS ; read PARM02 : OK
(PID.TID 0000.0001) S/R INI_PARMS ; starts to read PARM03
(PID.TID 0000.0001) S/R INI_PARMS ; read PARM03 : OK
(PID.TID 0000.0001) S/R INI_PARMS ; starts to read PARM04
(PID.TID 0000.0001) S/R INI_PARMS ; read PARM04 : OK
(PID.TID 0000.0001) S/R INI_PARMS ; starts to read PARM05
(PID.TID 0000.0001) S/R INI_PARMS ; read PARM05 : OK
(PID.TID 0000.0001)  PACKAGES_BOOT: opening data.pkg
(PID.TID 0000.0001)  OPEN_COPY_DATA_FILE: opening file data.pkg
(PID.TID 0000.0001) // =======================================================
(PID.TID 0000.0001) // Parameter file "data.pkg"
(PID.TID 0000.0001) // =======================================================
(PID.TID 0000.0001) ># Packages
(PID.TID 0000.0001) > &PACKAGES
(PID.TID 0000.0001) > useGMRedi=.TRUE.,
(PID.TID 0000.0001) > useDiagnostics=.TRUE.,
(PID.TID 0000.0001) > useMNC=.TRUE.,
(PID.TID 0000.0001) > &
(PID.TID 0000.0001) >
(PID.TID 0000.0001) 
(PID.TID 0000.0001)  PACKAGES_BOOT: finished reading data.pkg
(PID.TID 0000.0001)  MNC_READPARMS: opening file 'data.mnc'
(PID.TID 0000.0001)  OPEN_COPY_DATA_FILE: opening file data.mnc
(PID.TID 0000.0001) // =======================================================
(PID.TID 0000.0001) // Parameter file "data.mnc"
(PID.TID 0000.0001) // =======================================================
(PID.TID 0000.0001) ># Example "data.mnc" file
(PID.TID 0000.0001) ># Lines beginning "#" are comments
(PID.TID 0000.0001) > &MNC_01
(PID.TID 0000.0001) ># mnc_echo_gvtypes=.FALSE.,
(PID.TID 0000.0001) ># mnc_use_indir=.FALSE.,
(PID.TID 0000.0001) > mnc_use_outdir=.TRUE.,
(PID.TID 0000.0001) > mnc_outdir_str='mnc_test_',
(PID.TID 0000.0001) >#mnc_outdir_date=.TRUE.,
(PID.TID 0000.0001) > monitor_mnc=.FALSE.,
(PID.TID 0000.0001) >#snapshot_mnc=.FALSE.,
(PID.TID 0000.0001) >#timeave_mnc=.FALSE.,
(PID.TID 0000.0001) > pickup_read_mnc=.FALSE.,
(PID.TID 0000.0001) > pickup_write_mnc=.FALSE.,
(PID.TID 0000.0001) > &
(PID.TID 0000.0001) ># Note: Some systems use & as the
(PID.TID 0000.0001) ># namelist terminator. Other systems
(PID.TID 0000.0001) ># use a / character (as shown here).
(PID.TID 0000.0001) 
(PID.TID 0000.0001)  MNC_READPARMS: finished reading data.mnc
(PID.TID 0000.0001)  GM_READPARMS: opening data.gmredi
(PID.TID 0000.0001)  OPEN_COPY_DATA_FILE: opening file data.gmredi
(PID.TID 0000.0001) // =======================================================
(PID.TID 0000.0001) // Parameter file "data.gmredi"
(PID.TID 0000.0001) // =======================================================
(PID.TID 0000.0001) ># from MOM
(PID.TID 0000.0001) ># GM_background_K: 	isopycnal diffusion coefficien
(PID.TID 0000.0001) ># GM_maxSlope:		max slope of isopycnals
(PID.TID 0000.0001) ># GM_Scrit:		transition for scaling diffusion coefficient
(PID.TID 0000.0001) ># GM_Sd:		half width scaling for diffusion coefficient
(PID.TID 0000.0001) ># real background diff:	horizontal diffusion
(PID.TID 0000.0001) >
(PID.TID 0000.0001) > &GM_PARM01
(PID.TID 0000.0001) >  GM_AdvForm=.TRUE.,
(PID.TID 0000.0001) ># GM_AdvSeparate=.TRUE.,
(PID.TID 0000.0001) ># GM_background_K=1000.,
(PID.TID 0000.0001) >  GM_background_K=10.,
(PID.TID 0000.0001) ># GM_isopycK=1000.,
(PID.TID 0000.0001) ># GM_taper_scheme    = 'clipping',
(PID.TID 0000.0001) >  GM_taper_scheme    = 'linear',
(PID.TID 0000.0001) ># GM_taper_scheme    = 'gkw91',
(PID.TID 0000.0001) ># GM_taper_scheme    = 'ldd97',
(PID.TID 0000.0001) >  GM_Small_Number    = 1.e-18,
(PID.TID 0000.0001) >  GM_maxSlope        = 1.e-2,
(PID.TID 0000.0001) >  GM_Scrit           = 4.e-3,
(PID.TID 0000.0001) >  GM_Sd              = 1.e-3,
(PID.TID 0000.0001) >  GM_Visbeck_alpha   = 1.e-2,
(PID.TID 0000.0001) >  GM_Visbeck_length  = 2.e+5,
(PID.TID 0000.0001) >  GM_Visbeck_depth   = 1.e+3,
(PID.TID 0000.0001) >  GM_Visbeck_maxval_K= 2.5e+3,
(PID.TID 0000.0001) > &
(PID.TID 0000.0001) >
(PID.TID 0000.0001) >
(PID.TID 0000.0001) 
(PID.TID 0000.0001)  GM_READPARMS: finished reading data.gmredi
(PID.TID 0000.0001)  DIAGNOSTICS_READPARMS: opening data.diagnostics
(PID.TID 0000.0001)  OPEN_COPY_DATA_FILE: opening file data.diagnostics
(PID.TID 0000.0001) // =======================================================
(PID.TID 0000.0001) // Parameter file "data.diagnostics"
(PID.TID 0000.0001) // =======================================================
(PID.TID 0000.0001) ># Diagnostic Package Choices
(PID.TID 0000.0001) >#-----------------
(PID.TID 0000.0001) ># for each output-stream:
(PID.TID 0000.0001) >#  filename(n) : prefix of the output file name (only 8.c long) for outp.stream n
(PID.TID 0000.0001) >#  frequency(n):< 0 : write snap-shot output every |frequency| seconds
(PID.TID 0000.0001) >#               > 0 : write time-average output every frequency seconds
(PID.TID 0000.0001) >#  timePhase(n)     : write at time = timePhase + multiple of |frequency|
(PID.TID 0000.0001) >#  levels(:,n) : list of levels to write to file (Notes: declared as REAL)
(PID.TID 0000.0001) >#                 when this entry is missing, select all common levels of this list
(PID.TID 0000.0001) >#  fields(:,n) : list of diagnostics fields (8.c) (see "available_diagnostics.log"
(PID.TID 0000.0001) >#                 file for the list of all available diag. in this particular config)
(PID.TID 0000.0001) >#-----------------
(PID.TID 0000.0001) > &diagnostics_list
(PID.TID 0000.0001) ># diag_mnc     = .FALSE.,
(PID.TID 0000.0001) >  frequency(1) = -864000.,
(PID.TID 0000.0001) >   filename(1) = 'surfDiag',
(PID.TID 0000.0001) >   levels(1,1) = 1.,
(PID.TID 0000.0001) >   fields(1,1) = 'ETAN    ','ETANSQ  ','DETADT2 ','PHIBOT  ','PHIBOTSQ',
(PID.TID 0000.0001) >                 'GM_VisbK',
(PID.TID 0000.0001) >   fileflags(1)= 'D       ',
(PID.TID 0000.0001) >  frequency(2) = 1728000.,
(PID.TID 0000.0001) >   filename(2) = 'dynDiag',
(PID.TID 0000.0001) ># do not specify levels => all levels are selected
(PID.TID 0000.0001) >   fields(1,2) = 'UVEL    ','VVEL    ','WVEL    ','PHIHYD  ',
(PID.TID 0000.0001) >                 'VVELMASS',
(PID.TID 0000.0001) >                 'THETA   ','VTHMASS ','WTHMASS ',
(PID.TID 0000.0001) >#                'SALT    ','USLTMASS','VSLTMASS','WSLTMASS',
(PID.TID 0000.0001) >                 'THETASQ ','UVELSQ  ',
(PID.TID 0000.0001) >                 'UV_VEL_Z','WU_VEL  ',
(PID.TID 0000.0001) >  frequency(3) = 864000.,
(PID.TID 0000.0001) >   filename(3) = 'oceDiag',
(PID.TID 0000.0001) >   levels(1,3) = 2., 3., 4., 5., 6., 7., 8., 9., 10., 11., 12., 13.,
(PID.TID 0000.0001) >   fields(1,3) = 'DRHODR  ','RHOAnoma',
(PID.TID 0000.0001) >                 'GM_PsiY ','GM_Kvy  ','GM_Kvz  ','GM_Kwy  ','GM_Kwz  ',
(PID.TID 0000.0001) >  frequency(4) = 1728000.,
(PID.TID 0000.0001) >   filename(4) = 'flxDiag',
(PID.TID 0000.0001) >   fields(1,4) = 'ADVy_TH ','ADVr_TH ',
(PID.TID 0000.0001) >                 'DFyE_TH ','DFrE_TH ',
(PID.TID 0000.0001) >                 'DFrI_TH ',
(PID.TID 0000.0001) >#                'ADVx_SLT',
(PID.TID 0000.0001) > &
(PID.TID 0000.0001) >
(PID.TID 0000.0001) ># Parameter for Diagnostics of per level statistics:
(PID.TID 0000.0001) >#-----------------
(PID.TID 0000.0001) ># for each output-stream:
(PID.TID 0000.0001) >#  stat_fname(n) : prefix of the output file name (only 8.c long) for outp.stream n
(PID.TID 0000.0001) >#  stat_freq(n):< 0 : write snap-shot output every |stat_freq| seconds
(PID.TID 0000.0001) >#               > 0 : write time-average output every stat_freq seconds
(PID.TID 0000.0001) >#  stat_phase(n)    : write at time = stat_phase + multiple of |stat_freq|
(PID.TID 0000.0001) >#  stat_region(:,n) : list of "regions" (default: 1 region only=global)
(PID.TID 0000.0001) >#  stat_fields(:,n) : list of diagnostics fields (8.c) (see "available_diagnostics.log"
(PID.TID 0000.0001) >#                 file for the list of all available diag. in this particular config)
(PID.TID 0000.0001) >#-----------------
(PID.TID 0000.0001) > &DIAG_STATIS_PARMS
(PID.TID 0000.0001) ># an example just to check the agreement with MONITOR output:
(PID.TID 0000.0001) > stat_fields(1,1)= 'ETAN    ','UVEL    ','VVEL    ','WVEL    ', 'THETA   ',
(PID.TID 0000.0001) >    stat_fname(1)= 'dynStDiag',
(PID.TID 0000.0001) >     stat_freq(1)= -864000.,
(PID.TID 0000.0001) >    stat_phase(1)= 0.,
(PID.TID 0000.0001) > &
(PID.TID 0000.0001) >
(PID.TID 0000.0001) 
(PID.TID 0000.0001) S/R DIAGNOSTICS_READPARMS, read namelist "diagnostics_list": start
(PID.TID 0000.0001) S/R DIAGNOSTICS_READPARMS, read namelist "diagnostics_list": OK
(PID.TID 0000.0001) S/R DIAGNOSTICS_READPARMS, read namelist "DIAG_STATIS_PARMS": start
(PID.TID 0000.0001) S/R DIAGNOSTICS_READPARMS, read namelist "DIAG_STATIS_PARMS": OK
(PID.TID 0000.0001) -----------------------------------------------------
(PID.TID 0000.0001)  DIAGNOSTICS_READPARMS: active diagnostics summary:
(PID.TID 0000.0001) -----------------------------------------------------
(PID.TID 0000.0001) Creating Output Stream: surfDiag
(PID.TID 0000.0001) Output Frequency:    -864000.000000 ; Phase:      432000.000000
(PID.TID 0000.0001)  Averaging Freq.:          0.000000 , Phase:           0.000000 , Cycle:   1
(PID.TID 0000.0001)  missing value:  1.234567000000E+05 ; for integers:   123456789
(PID.TID 0000.0001)  Levels:       1.
(PID.TID 0000.0001)  Fields:    ETAN     ETANSQ   DETADT2  PHIBOT   PHIBOTSQ GM_VisbK
(PID.TID 0000.0001) Creating Output Stream: dynDiag
(PID.TID 0000.0001) Output Frequency:    1728000.000000 ; Phase:           0.000000
(PID.TID 0000.0001)  Averaging Freq.:    1728000.000000 , Phase:           0.000000 , Cycle:   1
(PID.TID 0000.0001)  missing value:  1.234567000000E+05 ; for integers:   123456789
(PID.TID 0000.0001)  Levels:    will be set later
(PID.TID 0000.0001)  Fields:    UVEL     VVEL     WVEL     PHIHYD   VVELMASS THETA    VTHMASS  WTHMASS  THETASQ  UVELSQ
(PID.TID 0000.0001)  Fields:    UV_VEL_Z WU_VEL
(PID.TID 0000.0001) Creating Output Stream: oceDiag
(PID.TID 0000.0001) Output Frequency:     864000.000000 ; Phase:           0.000000
(PID.TID 0000.0001)  Averaging Freq.:     864000.000000 , Phase:           0.000000 , Cycle:   1
(PID.TID 0000.0001)  missing value:  1.234567000000E+05 ; for integers:   123456789
(PID.TID 0000.0001)  Levels:       2.   3.   4.   5.   6.   7.   8.   9.  10.  11.  12.  13.
(PID.TID 0000.0001)  Fields:    DRHODR   RHOAnoma GM_PsiY  GM_Kvy   GM_Kvz   GM_Kwy   GM_Kwz
(PID.TID 0000.0001) Creating Output Stream: flxDiag
(PID.TID 0000.0001) Output Frequency:    1728000.000000 ; Phase:           0.000000
(PID.TID 0000.0001)  Averaging Freq.:    1728000.000000 , Phase:           0.000000 , Cycle:   1
(PID.TID 0000.0001)  missing value:  1.234567000000E+05 ; for integers:   123456789
(PID.TID 0000.0001)  Levels:    will be set later
(PID.TID 0000.0001)  Fields:    ADVy_TH  ADVr_TH  DFyE_TH  DFrE_TH  DFrI_TH
(PID.TID 0000.0001) -----------------------------------------------------
(PID.TID 0000.0001)  DIAGNOSTICS_READPARMS: statistics diags. summary:
(PID.TID 0000.0001) Creating Stats. Output Stream: dynStDiag
(PID.TID 0000.0001) Output Frequency:    -864000.000000 ; Phase:           0.000000
(PID.TID 0000.0001)  Regions:   0
(PID.TID 0000.0001)  Fields:    ETAN     UVEL     VVEL     WVEL     THETA
(PID.TID 0000.0001) -----------------------------------------------------
(PID.TID 0000.0001) 
(PID.TID 0000.0001) SET_PARMS: done
(PID.TID 0000.0001) Enter INI_VERTICAL_GRID: setInterFDr=    F ; setCenterDr=    T
(PID.TID 0000.0001) %MON XC_max                       =   1.5000000000000E+00
(PID.TID 0000.0001) %MON XC_min                       =   1.5000000000000E+00
(PID.TID 0000.0001) %MON XC_mean                      =   1.5000000000000E+00
(PID.TID 0000.0001) %MON XC_sd                        =   0.0000000000000E+00
(PID.TID 0000.0001) %MON XG_max                       =   0.0000000000000E+00
(PID.TID 0000.0001) %MON XG_min                       =   0.0000000000000E+00
(PID.TID 0000.0001) %MON XG_mean                      =   0.0000000000000E+00
(PID.TID 0000.0001) %MON XG_sd                        =   0.0000000000000E+00
(PID.TID 0000.0001) %MON DXC_max                      =   3.3341812682592E+05
(PID.TID 0000.0001) %MON DXC_min                      =   4.3534716771864E+04
(PID.TID 0000.0001) %MON DXC_mean                     =   2.2627957857351E+05
(PID.TID 0000.0001) %MON DXC_sd                       =   9.1462046601761E+04
(PID.TID 0000.0001) %MON DXF_max                      =   3.3341812682592E+05
(PID.TID 0000.0001) %MON DXF_min                      =   4.3534716771864E+04
(PID.TID 0000.0001) %MON DXF_mean                     =   2.2627957857351E+05
(PID.TID 0000.0001) %MON DXF_sd                       =   9.1462046601761E+04
(PID.TID 0000.0001) %MON DXG_max                      =   3.3353242005612E+05
(PID.TID 0000.0001) %MON DXG_min                      =   3.4863631318407E+04
(PID.TID 0000.0001) %MON DXG_mean                     =   2.2620203821339E+05
(PID.TID 0000.0001) %MON DXG_sd                       =   9.1624145029333E+04
(PID.TID 0000.0001) %MON DXV_max                      =   3.3353242005612E+05
(PID.TID 0000.0001) %MON DXV_min                      =   3.4863631318407E+04
(PID.TID 0000.0001) %MON DXV_mean                     =   2.2620203821339E+05
(PID.TID 0000.0001) %MON DXV_sd                       =   9.1624145029333E+04
(PID.TID 0000.0001) %MON YC_max                       =   8.2500000000000E+01
(PID.TID 0000.0001) %MON YC_min                       =  -8.2500000000000E+01
(PID.TID 0000.0001) %MON YC_mean                      =   0.0000000000000E+00
(PID.TID 0000.0001) %MON YC_sd                        =   4.8489689625734E+01
(PID.TID 0000.0001) %MON YG_max                       =   8.1000000000000E+01
(PID.TID 0000.0001) %MON YG_min                       =  -8.4000000000000E+01
(PID.TID 0000.0001) %MON YG_mean                      =  -1.5000000000000E+00
(PID.TID 0000.0001) %MON YG_sd                        =   4.8489689625734E+01
(PID.TID 0000.0001) %MON DYC_max                      =   3.3353242005612E+05
(PID.TID 0000.0001) %MON DYC_min                      =   3.3353242005612E+05
(PID.TID 0000.0001) %MON DYC_mean                     =   3.3353242005612E+05
(PID.TID 0000.0001) %MON DYC_sd                       =   2.3283064365387E-10
(PID.TID 0000.0001) %MON DYF_max                      =   3.3353242005612E+05
(PID.TID 0000.0001) %MON DYF_min                      =   3.3353242005612E+05
(PID.TID 0000.0001) %MON DYF_mean                     =   3.3353242005612E+05
(PID.TID 0000.0001) %MON DYF_sd                       =   2.3283064365387E-10
(PID.TID 0000.0001) %MON DYG_max                      =   3.3353242005612E+05
(PID.TID 0000.0001) %MON DYG_min                      =   3.3353242005612E+05
(PID.TID 0000.0001) %MON DYG_mean                     =   3.3353242005612E+05
(PID.TID 0000.0001) %MON DYG_sd                       =   2.3283064365387E-10
(PID.TID 0000.0001) %MON DYU_max                      =   3.3353242005612E+05
(PID.TID 0000.0001) %MON DYU_min                      =   3.3353242005612E+05
(PID.TID 0000.0001) %MON DYU_mean                     =   3.3353242005612E+05
(PID.TID 0000.0001) %MON DYU_sd                       =   2.3283064365387E-10
(PID.TID 0000.0001) %MON RA_max                       =   1.1119305196237E+11
(PID.TID 0000.0001) %MON RA_min                       =   1.4518580829015E+10
(PID.TID 0000.0001) %MON RA_mean                      =   7.5462954512622E+10
(PID.TID 0000.0001) %MON RA_sd                        =   3.0502073169179E+10
(PID.TID 0000.0001) %MON RAW_max                      =   1.1119305196237E+11
(PID.TID 0000.0001) %MON RAW_min                      =   1.4518580829015E+10
(PID.TID 0000.0001) %MON RAW_mean                     =   7.5462954512622E+10
(PID.TID 0000.0001) %MON RAW_sd                       =   3.0502073169179E+10
(PID.TID 0000.0001) %MON RAS_max                      =   1.1123116810562E+11
(PID.TID 0000.0001) %MON RAS_min                      =   1.1626823069547E+10
(PID.TID 0000.0001) %MON RAS_mean                     =   7.5437095242840E+10
(PID.TID 0000.0001) %MON RAS_sd                       =   3.0556132074289E+10
(PID.TID 0000.0001) %MON RAZ_max                      =   1.1123116810562E+11
(PID.TID 0000.0001) %MON RAZ_min                      =   1.1626823069547E+10
(PID.TID 0000.0001) %MON RAZ_mean                     =   7.5437095242840E+10
(PID.TID 0000.0001) %MON RAZ_sd                       =   3.0556132074289E+10
(PID.TID 0000.0001) %MON AngleCS_max                  =   1.0000000000000E+00
(PID.TID 0000.0001) %MON AngleCS_min                  =   1.0000000000000E+00
(PID.TID 0000.0001) %MON AngleCS_mean                 =   1.0000000000000E+00
(PID.TID 0000.0001) %MON AngleCS_sd                   =   0.0000000000000E+00
(PID.TID 0000.0001) %MON AngleSN_max                  =   0.0000000000000E+00
(PID.TID 0000.0001) %MON AngleSN_min                  =   0.0000000000000E+00
(PID.TID 0000.0001) %MON AngleSN_mean                 =   0.0000000000000E+00
(PID.TID 0000.0001) %MON AngleSN_sd                   =   0.0000000000000E+00
(PID.TID 0000.0001)  MDS_READ_FIELD: opening global file: topo_sl.bin
(PID.TID 0000.0001) // =======================================================
(PID.TID 0000.0001) // Field Model R_low (ini_masks_etc) at iteration          1
(PID.TID 0000.0001) // CMIN =         -5.200000000000000E+03
(PID.TID 0000.0001) // CMAX =         -5.200000000000000E+03
(PID.TID 0000.0001) // CINT =          0.000000000000000E+00
(PID.TID 0000.0001) // SYMBOLS (CMIN->CMAX): -abcdefghijklmnopqrstuvwxyz+
(PID.TID 0000.0001) //                  0.0: .
(PID.TID 0000.0001) // RANGE I (Lo:Hi:Step):(  -2:   4:   1)
(PID.TID 0000.0001) // RANGE J (Lo:Hi:Step):(  59:  -2:  -1)
(PID.TID 0000.0001) // RANGE K (Lo:Hi:Step):(   1:   1:   1)
(PID.TID 0000.0001) // =======================================================
(PID.TID 0000.0001) // =======================================================
(PID.TID 0000.0001) // END OF FIELD                                          =
(PID.TID 0000.0001) // =======================================================
(PID.TID 0000.0001) 
(PID.TID 0000.0001) // =======================================================
(PID.TID 0000.0001) // Field Model Ro_surf (ini_masks_etc) at iteration          1
(PID.TID 0000.0001) // CMIN =          1.000000000000000E+32
(PID.TID 0000.0001) // CMAX =         -1.000000000000000E+32
(PID.TID 0000.0001) // CINT =          0.000000000000000E+00
(PID.TID 0000.0001) // SYMBOLS (CMIN->CMAX): -abcdefghijklmnopqrstuvwxyz+
(PID.TID 0000.0001) //                  0.0: .
(PID.TID 0000.0001) // RANGE I (Lo:Hi:Step):(  -2:   4:   1)
(PID.TID 0000.0001) // RANGE J (Lo:Hi:Step):(  59:  -2:  -1)
(PID.TID 0000.0001) // RANGE K (Lo:Hi:Step):(   1:   1:   1)
(PID.TID 0000.0001) // =======================================================
(PID.TID 0000.0001) // =======================================================
(PID.TID 0000.0001) // END OF FIELD                                          =
(PID.TID 0000.0001) // =======================================================
(PID.TID 0000.0001) 
(PID.TID 0000.0001) // =======================================================
(PID.TID 0000.0001) // Field hFacC at iteration          1
(PID.TID 0000.0001) // CMIN =          1.000000000000000E+00
(PID.TID 0000.0001) // CMAX =          1.000000000000000E+00
(PID.TID 0000.0001) // CINT =          0.000000000000000E+00
(PID.TID 0000.0001) // SYMBOLS (CMIN->CMAX): -abcdefghijklmnopqrstuvwxyz+
(PID.TID 0000.0001) //                  0.0: .
(PID.TID 0000.0001) // RANGE I (Lo:Hi:Step):(  -2:   4:   1)
(PID.TID 0000.0001) // RANGE J (Lo:Hi:Step):(  59:  -2:  -1)
(PID.TID 0000.0001) // RANGE K (Lo:Hi:Step):(   1:   1:   1)
(PID.TID 0000.0001) // =======================================================
(PID.TID 0000.0001) // =======================================================
(PID.TID 0000.0001) // END OF FIELD                                          =
(PID.TID 0000.0001) // =======================================================
(PID.TID 0000.0001) 
(PID.TID 0000.0001) // =======================================================
(PID.TID 0000.0001) // Field hFacW at iteration          1
(PID.TID 0000.0001) // CMIN =          1.000000000000000E+00
(PID.TID 0000.0001) // CMAX =          1.000000000000000E+00
(PID.TID 0000.0001) // CINT =          0.000000000000000E+00
(PID.TID 0000.0001) // SYMBOLS (CMIN->CMAX): -abcdefghijklmnopqrstuvwxyz+
(PID.TID 0000.0001) //                  0.0: .
(PID.TID 0000.0001) // RANGE I (Lo:Hi:Step):(  -2:   4:   1)
(PID.TID 0000.0001) // RANGE J (Lo:Hi:Step):(  59:  -2:  -1)
(PID.TID 0000.0001) // RANGE K (Lo:Hi:Step):(   1:   1:   1)
(PID.TID 0000.0001) // =======================================================
(PID.TID 0000.0001) // =======================================================
(PID.TID 0000.0001) // END OF FIELD                                          =
(PID.TID 0000.0001) // =======================================================
(PID.TID 0000.0001) 
(PID.TID 0000.0001) // =======================================================
(PID.TID 0000.0001) // Field hFacS at iteration          1
(PID.TID 0000.0001) // CMIN =          1.000000000000000E+00
(PID.TID 0000.0001) // CMAX =          1.000000000000000E+00
(PID.TID 0000.0001) // CINT =          0.000000000000000E+00
(PID.TID 0000.0001) // SYMBOLS (CMIN->CMAX): -abcdefghijklmnopqrstuvwxyz+
(PID.TID 0000.0001) //                  0.0: .
(PID.TID 0000.0001) // RANGE I (Lo:Hi:Step):(  -2:   4:   1)
(PID.TID 0000.0001) // RANGE J (Lo:Hi:Step):(  59:  -2:  -1)
(PID.TID 0000.0001) // RANGE K (Lo:Hi:Step):(   1:   1:   1)
(PID.TID 0000.0001) // =======================================================
(PID.TID 0000.0001) // =======================================================
(PID.TID 0000.0001) // END OF FIELD                                          =
(PID.TID 0000.0001) // =======================================================
(PID.TID 0000.0001) 
(PID.TID 0000.0001) 
(PID.TID 0000.0001) // ===================================
(PID.TID 0000.0001) // GAD parameters :
(PID.TID 0000.0001) // ===================================
(PID.TID 0000.0001) tempAdvScheme =   /* Temp. Horiz.Advection scheme selector */
(PID.TID 0000.0001)                      77
(PID.TID 0000.0001)     ;
(PID.TID 0000.0001) tempVertAdvScheme =   /* Temp. Vert. Advection scheme selector */
(PID.TID 0000.0001)                      77
(PID.TID 0000.0001)     ;
(PID.TID 0000.0001) tempMultiDimAdvec =   /* use Muti-Dim Advec method for Temp */
(PID.TID 0000.0001)                   T
(PID.TID 0000.0001)     ;
(PID.TID 0000.0001) tempSOM_Advection = /* use 2nd Order Moment Advection for Temp */
(PID.TID 0000.0001)                   F
(PID.TID 0000.0001)     ;
(PID.TID 0000.0001) AdamsBashforthGt = /* apply Adams-Bashforth extrapolation on Gt */
(PID.TID 0000.0001)                   F
(PID.TID 0000.0001)     ;
(PID.TID 0000.0001) AdamsBashforth_T = /* apply Adams-Bashforth extrapolation on Temp */
(PID.TID 0000.0001)                   F
(PID.TID 0000.0001)     ;
(PID.TID 0000.0001) saltAdvScheme =   /* Salt. Horiz.advection scheme selector */
(PID.TID 0000.0001)                       2
(PID.TID 0000.0001)     ;
(PID.TID 0000.0001) saltVertAdvScheme =   /* Salt. Vert. Advection scheme selector */
(PID.TID 0000.0001)                       2
(PID.TID 0000.0001)     ;
(PID.TID 0000.0001) saltMultiDimAdvec =   /* use Muti-Dim Advec method for Salt */
(PID.TID 0000.0001)                   F
(PID.TID 0000.0001)     ;
(PID.TID 0000.0001) saltSOM_Advection = /* use 2nd Order Moment Advection for Salt */
(PID.TID 0000.0001)                   F
(PID.TID 0000.0001)     ;
(PID.TID 0000.0001) AdamsBashforthGs = /* apply Adams-Bashforth extrapolation on Gs */
(PID.TID 0000.0001)                   F
(PID.TID 0000.0001)     ;
(PID.TID 0000.0001) AdamsBashforth_S = /* apply Adams-Bashforth extrapolation on Salt */
(PID.TID 0000.0001)                   F
(PID.TID 0000.0001)     ;
(PID.TID 0000.0001) // ===================================
(PID.TID 0000.0001) ------------------------------------------------------------
(PID.TID 0000.0001) DIAGNOSTICS_SET_LEVELS: done
(PID.TID 0000.0001)  Total Nb of available Diagnostics: ndiagt=   187
(PID.TID 0000.0001)  write list of available Diagnostics to file: available_diagnostics.log
(PID.TID 0000.0001) SETDIAG: Allocate  1 x  1 Levels for Diagnostic #    23 ETAN
(PID.TID 0000.0001) SETDIAG: Allocate  1 x  1 Levels for Diagnostic #    24 ETANSQ
(PID.TID 0000.0001) SETDIAG: Allocate  1 x  1 Levels for Diagnostic #    25 DETADT2
(PID.TID 0000.0001) SETDIAG: Allocate  1 x  1 Levels for Diagnostic #    69 PHIBOT
(PID.TID 0000.0001) SETDIAG: Allocate  1 x  1 Levels for Diagnostic #    70 PHIBOTSQ
(PID.TID 0000.0001) SETDIAG: Allocate  1 x  1 Levels for Diagnostic #   171 GM_VisbK
(PID.TID 0000.0001) SETDIAG: Allocate 15 x  1 Levels for Diagnostic #    30 UVEL
(PID.TID 0000.0001) SETDIAG: Allocate 15 x  1 Levels for Diagnostic #    31 VVEL
(PID.TID 0000.0001) SETDIAG: Allocate 15 x  1 Levels for Diagnostic #    32 WVEL
(PID.TID 0000.0001) SETDIAG: Allocate 15 x  1 Levels for Diagnostic #    67 PHIHYD
(PID.TID 0000.0001) SETDIAG: Allocate 15 x  1 Levels for Diagnostic #    46 VVELMASS
(PID.TID 0000.0001) SETDIAG: Allocate 15 x  1 Levels for Diagnostic #    26 THETA
(PID.TID 0000.0001) SETDIAG: Allocate 15 x  1 Levels for Diagnostic #    49 VTHMASS
(PID.TID 0000.0001) SETDIAG: Allocate 15 x  1 Levels for Diagnostic #    50 WTHMASS
(PID.TID 0000.0001) SETDIAG: Allocate 15 x  1 Levels for Diagnostic #    33 THETASQ
(PID.TID 0000.0001) SETDIAG: Allocate 15 x  1 Levels for Diagnostic #    36 UVELSQ
(PID.TID 0000.0001) SETDIAG: Allocate 15 x  1 Levels for Diagnostic #    42 UV_VEL_Z
(PID.TID 0000.0001) SETDIAG: Allocate 15 x  1 Levels for Diagnostic #    43 WU_VEL
(PID.TID 0000.0001) SETDIAG: Allocate 15 x  1 Levels for Diagnostic #    72 DRHODR
(PID.TID 0000.0001) SETDIAG: Allocate 15 x  1 Levels for Diagnostic #    62 RHOAnoma
(PID.TID 0000.0001) SETDIAG: Allocate 15 x  1 Levels for Diagnostic #   183 GM_PsiY
(PID.TID 0000.0001) SETDIAG: Allocate 15 x  1 Levels for Diagnostic #   176 GM_Kvy
(PID.TID 0000.0001) SETDIAG: Allocate 15 x  1 Levels for Diagnostic #   178 GM_Kvz
(PID.TID 0000.0001) SETDIAG: Allocate 15 x  1 Levels for Diagnostic #   180 GM_Kwy
(PID.TID 0000.0001) SETDIAG: Allocate 15 x  1 Levels for Diagnostic #   181 GM_Kwz
(PID.TID 0000.0001) SETDIAG: Allocate 15 x  1 Levels for Diagnostic #    97 ADVy_TH
(PID.TID 0000.0001) SETDIAG: Allocate 15 x  1 Levels for Diagnostic #    95 ADVr_TH
(PID.TID 0000.0001) SETDIAG: Allocate 15 x  1 Levels for Diagnostic #   100 DFyE_TH
(PID.TID 0000.0001) SETDIAG: Allocate 15 x  1 Levels for Diagnostic #    98 DFrE_TH
(PID.TID 0000.0001) SETDIAG: Allocate 15 x  1 Levels for Diagnostic #   101 DFrI_TH
(PID.TID 0000.0001)   space allocated for all diagnostics:     366 levels
(PID.TID 0000.0001)   set mate pointer for diag #    30  UVEL     , Parms: UU      MR , mate:    31
(PID.TID 0000.0001)   set mate pointer for diag #    31  VVEL     , Parms: VV      MR , mate:    30
(PID.TID 0000.0001)   set mate pointer for diag #    42  UV_VEL_Z , Parms: UZ      MR , mate:    42
(PID.TID 0000.0001) DIAGNOSTICS_SET_POINTERS: Set levels for Outp.Stream: dynDiag
(PID.TID 0000.0001)  Levels:       1.   2.   3.   4.   5.   6.   7.   8.   9.  10.  11.  12.  13.  14.  15.
(PID.TID 0000.0001) DIAGNOSTICS_SET_POINTERS: Set levels for Outp.Stream: flxDiag
(PID.TID 0000.0001)  Levels:       1.   2.   3.   4.   5.   6.   7.   8.   9.  10.  11.  12.  13.  14.  15.
(PID.TID 0000.0001) DIAGNOSTICS_SET_POINTERS: done
(PID.TID 0000.0001) ------------------------------------------------------------
(PID.TID 0000.0001) DIAGSTATS_SET_REGIONS: define no region
(PID.TID 0000.0001) ------------------------------------------------------------
(PID.TID 0000.0001) SETDIAG: Allocate  1 Levels for Stats-Diag #    23 ETAN
(PID.TID 0000.0001) SETDIAG: Allocate 15 Levels for Stats-Diag #    30 UVEL
(PID.TID 0000.0001) SETDIAG: Allocate 15 Levels for Stats-Diag #    31 VVEL
(PID.TID 0000.0001) SETDIAG: Allocate 15 Levels for Stats-Diag #    32 WVEL
(PID.TID 0000.0001) SETDIAG: Allocate 15 Levels for Stats-Diag #    26 THETA
(PID.TID 0000.0001)   space allocated for all stats-diags:      61 levels
(PID.TID 0000.0001) DIAGSTATS_SET_POINTERS: done
(PID.TID 0000.0001) ------------------------------------------------------------
(PID.TID 0000.0001) %MON fCori_max                    =   1.4459476778846E-04
(PID.TID 0000.0001) %MON fCori_min                    =  -1.4459476778846E-04
(PID.TID 0000.0001) %MON fCori_mean                   =  -1.4520564810074E-21
(PID.TID 0000.0001) %MON fCori_sd                     =   9.9401036497041E-05
(PID.TID 0000.0001) %MON fCoriG_max                   =   1.4404690751822E-04
(PID.TID 0000.0001) %MON fCoriG_min                   =  -1.4504353002754E-04
(PID.TID 0000.0001) %MON fCoriG_mean                  =  -2.5900630362060E-06
(PID.TID 0000.0001) %MON fCoriG_sd                    =   9.9372489017716E-05
(PID.TID 0000.0001) %MON fCoriCos_max                 =   1.4579249376772E-04
(PID.TID 0000.0001) %MON fCoriCos_min                 =   1.9036262317421E-05
(PID.TID 0000.0001) %MON fCoriCos_mean                =   9.8944422617323E-05
(PID.TID 0000.0001) %MON fCoriCos_sd                  =   3.9993266071379E-05
(PID.TID 0000.0001) INI_CG2D: CG2D normalisation factor =  3.5045293363874508E-05
(PID.TID 0000.0001) INI_CG2D: cg2dTolerance = 1.225676511460127E-12 (Area=4.1968882910E+12)
(PID.TID 0000.0001) 
(PID.TID 0000.0001) // =======================================================
(PID.TID 0000.0001) // Model configuration
(PID.TID 0000.0001) // =======================================================
(PID.TID 0000.0001) //
(PID.TID 0000.0001) // "Physical" paramters ( PARM01 in namelist )
(PID.TID 0000.0001) //
(PID.TID 0000.0001) buoyancyRelation = /* Type of relation to get Buoyancy */
(PID.TID 0000.0001)               'OCEANIC'
(PID.TID 0000.0001)     ;
(PID.TID 0000.0001) fluidIsAir  =  /* fluid major constituent is Air */
(PID.TID 0000.0001)                   F
(PID.TID 0000.0001)     ;
(PID.TID 0000.0001) fluidIsWater=  /* fluid major constituent is Water */
(PID.TID 0000.0001)                   T
(PID.TID 0000.0001)     ;
(PID.TID 0000.0001) usingPCoords =  /* use p (or p*) vertical coordinate */
(PID.TID 0000.0001)                   F
(PID.TID 0000.0001)     ;
(PID.TID 0000.0001) usingZCoords =  /* use z (or z*) vertical coordinate */
(PID.TID 0000.0001)                   T
(PID.TID 0000.0001)     ;
(PID.TID 0000.0001) tRef =   /* Reference temperature profile ( oC or K ) */
(PID.TID 0000.0001)                 1.880000000000000E+01,      /* K =  1 */
(PID.TID 0000.0001)                 1.630000000000000E+01,      /* K =  2 */
(PID.TID 0000.0001)                 1.310000000000000E+01,      /* K =  3 */
(PID.TID 0000.0001)                 1.040000000000000E+01,      /* K =  4 */
(PID.TID 0000.0001)                 8.100000000000000E+00,      /* K =  5 */
(PID.TID 0000.0001)                 6.000000000000000E+00,      /* K =  6 */
(PID.TID 0000.0001)                 4.500000000000000E+00,      /* K =  7 */
(PID.TID 0000.0001)                 3.400000000000000E+00,      /* K =  8 */
(PID.TID 0000.0001)                 2.700000000000000E+00,      /* K =  9 */
(PID.TID 0000.0001)                 2.200000000000000E+00,      /* K = 10 */
(PID.TID 0000.0001)                 1.800000000000000E+00,      /* K = 11 */
(PID.TID 0000.0001)                 1.500000000000000E+00,      /* K = 12 */
(PID.TID 0000.0001)                 1.200000000000000E+00,      /* K = 13 */
(PID.TID 0000.0001)                 1.000000000000000E+00,      /* K = 14 */
(PID.TID 0000.0001)                 9.000000000000000E-01       /* K = 15 */
(PID.TID 0000.0001)     ;
(PID.TID 0000.0001) sRef =   /* Reference salinity profile ( psu ) */
(PID.TID 0000.0001)    15 @  3.470000000000000E+01              /* K =  1: 15 */
(PID.TID 0000.0001)     ;
(PID.TID 0000.0001) viscAh =   /* Lateral eddy viscosity ( m^2/s ) */
(PID.TID 0000.0001)                 1.200000000000000E+06
(PID.TID 0000.0001)     ;
(PID.TID 0000.0001) viscAhMax =   /* Maximum lateral eddy viscosity ( m^2/s ) */
(PID.TID 0000.0001)                 1.000000000000000E+21
(PID.TID 0000.0001)     ;
(PID.TID 0000.0001) viscAhGrid =   /* Grid dependent lateral eddy viscosity ( non-dim. ) */
(PID.TID 0000.0001)                 0.000000000000000E+00
(PID.TID 0000.0001)     ;
(PID.TID 0000.0001) useFullLeith =   /* Use Full Form of Leith Viscosity on/off flag*/
(PID.TID 0000.0001)                   F
(PID.TID 0000.0001)     ;
(PID.TID 0000.0001) useStrainTensionVisc =   /* Use StrainTension Form of Viscous Operator on/off flag*/
(PID.TID 0000.0001)                   F
(PID.TID 0000.0001)     ;
(PID.TID 0000.0001) useAreaViscLength =   /* Use area for visc length instead of geom. mean*/
(PID.TID 0000.0001)                   F
(PID.TID 0000.0001)     ;
(PID.TID 0000.0001) viscC2leith = /* Leith harmonic visc. factor (on grad(vort),non-dim.) */
(PID.TID 0000.0001)                 0.000000000000000E+00
(PID.TID 0000.0001)     ;
(PID.TID 0000.0001) viscC2leithD = /* Leith harmonic viscosity factor (on grad(div),non-dim.) */
(PID.TID 0000.0001)                 0.000000000000000E+00
(PID.TID 0000.0001)     ;
(PID.TID 0000.0001) viscC2smag =   /* Smagorinsky harmonic viscosity factor (non-dim.) */
(PID.TID 0000.0001)                 0.000000000000000E+00
(PID.TID 0000.0001)     ;
(PID.TID 0000.0001) viscA4 =   /* Lateral biharmonic viscosity ( m^4/s ) */
(PID.TID 0000.0001)                 0.000000000000000E+00
(PID.TID 0000.0001)     ;
(PID.TID 0000.0001) viscA4Max =   /* Maximum biharmonic viscosity ( m^2/s ) */
(PID.TID 0000.0001)                 1.000000000000000E+21
(PID.TID 0000.0001)     ;
(PID.TID 0000.0001) viscA4Grid =   /* Grid dependent biharmonic viscosity ( non-dim. ) */
(PID.TID 0000.0001)                 0.000000000000000E+00
(PID.TID 0000.0001)     ;
(PID.TID 0000.0001) viscC4leith = /* Leith biharm viscosity factor (on grad(vort), non-dim.) */
(PID.TID 0000.0001)                 0.000000000000000E+00
(PID.TID 0000.0001)     ;
(PID.TID 0000.0001) viscC4leithD = /* Leith biharm viscosity factor (on grad(div), non-dim.) */
(PID.TID 0000.0001)                 0.000000000000000E+00
(PID.TID 0000.0001)     ;
(PID.TID 0000.0001) viscC4Smag = /* Smagorinsky biharm viscosity factor (non-dim) */
(PID.TID 0000.0001)                 0.000000000000000E+00
(PID.TID 0000.0001)     ;
(PID.TID 0000.0001) no_slip_sides =  /* Viscous BCs: No-slip sides */
(PID.TID 0000.0001)                   F
(PID.TID 0000.0001)     ;
(PID.TID 0000.0001) sideDragFactor = /* side-drag scaling factor (non-dim) */
(PID.TID 0000.0001)                 2.000000000000000E+00
(PID.TID 0000.0001)     ;
(PID.TID 0000.0001) viscAr =   /* Vertical eddy viscosity ( m^2/s ) */
(PID.TID 0000.0001)                 1.000000000000000E-03
(PID.TID 0000.0001)     ;
(PID.TID 0000.0001) no_slip_bottom =  /* Viscous BCs: No-slip bottom */
(PID.TID 0000.0001)                   T
(PID.TID 0000.0001)     ;
(PID.TID 0000.0001) bottomDragLinear = /* linear bottom-drag coefficient ( m/s ) */
(PID.TID 0000.0001)                 1.000000000000000E-03
(PID.TID 0000.0001)     ;
(PID.TID 0000.0001) bottomDragQuadratic = /* quadratic bottom-drag coefficient (-) */
(PID.TID 0000.0001)                 0.000000000000000E+00
(PID.TID 0000.0001)     ;
(PID.TID 0000.0001) diffKhT =   /* Laplacian diffusion of heat laterally ( m^2/s ) */
(PID.TID 0000.0001)                 0.000000000000000E+00
(PID.TID 0000.0001)     ;
(PID.TID 0000.0001) diffK4T =   /* Biharmonic diffusion of heat laterally ( m^4/s ) */
(PID.TID 0000.0001)                 0.000000000000000E+00
(PID.TID 0000.0001)     ;
(PID.TID 0000.0001) diffKhS =   /* Laplacian diffusion of salt laterally ( m^2/s ) */
(PID.TID 0000.0001)                 0.000000000000000E+00
(PID.TID 0000.0001)     ;
(PID.TID 0000.0001) diffK4S =   /* Biharmonic diffusion of salt laterally ( m^4/s ) */
(PID.TID 0000.0001)                 0.000000000000000E+00
(PID.TID 0000.0001)     ;
(PID.TID 0000.0001) diffKrNrT = /* vertical profile of vertical diffusion of Temp ( m^2/s )*/
(PID.TID 0000.0001)                 1.000000000000000E-04,      /* K =  1 */
(PID.TID 0000.0001)    14 @  1.000000000000000E-05              /* K =  2: 15 */
(PID.TID 0000.0001)     ;
(PID.TID 0000.0001) diffKrNrS = /* vertical profile of vertical diffusion of Salt ( m^2/s )*/
(PID.TID 0000.0001)    15 @  0.000000000000000E+00              /* K =  1: 15 */
(PID.TID 0000.0001)     ;
(PID.TID 0000.0001) diffKrBL79surf = /* Surface diffusion for Bryan and Lewis 79 ( m^2/s ) */
(PID.TID 0000.0001)                 0.000000000000000E+00
(PID.TID 0000.0001)     ;
(PID.TID 0000.0001) diffKrBL79deep = /* Deep diffusion for Bryan and Lewis 1979 ( m^2/s ) */
(PID.TID 0000.0001)                 0.000000000000000E+00
(PID.TID 0000.0001)     ;
(PID.TID 0000.0001) diffKrBL79scl = /* Depth scale for Bryan and Lewis 1979 ( m ) */
(PID.TID 0000.0001)                 2.000000000000000E+02
(PID.TID 0000.0001)     ;
(PID.TID 0000.0001) diffKrBL79Ho = /* Turning depth for Bryan and Lewis 1979 ( m ) */
(PID.TID 0000.0001)                -2.000000000000000E+03
(PID.TID 0000.0001)     ;
(PID.TID 0000.0001) ivdc_kappa = /* Implicit Vertical Diffusivity for Convection ( m^2/s ) */
(PID.TID 0000.0001)                 1.000000000000000E+02
(PID.TID 0000.0001)     ;
(PID.TID 0000.0001) hMixCriteria=  /* Criteria for mixed-layer diagnostic */
(PID.TID 0000.0001)                -8.000000000000000E-01
(PID.TID 0000.0001)     ;
(PID.TID 0000.0001) dRhoSmall=  /* Parameter for mixed-layer diagnostic */
(PID.TID 0000.0001)                 1.000000000000000E-06
(PID.TID 0000.0001)     ;
(PID.TID 0000.0001) hMixSmooth=  /* Smoothing parameter for mixed-layer diagnostic */
(PID.TID 0000.0001)                 0.000000000000000E+00
(PID.TID 0000.0001)     ;
(PID.TID 0000.0001) eosType =  /* Type of Equation of State */
(PID.TID 0000.0001)               'LINEAR'
(PID.TID 0000.0001)     ;
(PID.TID 0000.0001) tAlpha =   /* Linear EOS thermal expansion coefficient ( 1/oC ) */
(PID.TID 0000.0001)                 2.000000000000000E-04
(PID.TID 0000.0001)     ;
(PID.TID 0000.0001) sBeta =   /* Linear EOS haline contraction coefficient ( 1/psu ) */
(PID.TID 0000.0001)                 0.000000000000000E+00
(PID.TID 0000.0001)     ;
(PID.TID 0000.0001) rhonil =   /* Reference density ( kg/m^3 ) */
(PID.TID 0000.0001)                 1.035000000000000E+03
(PID.TID 0000.0001)     ;
(PID.TID 0000.0001) rhoConst =   /* Reference density ( kg/m^3 ) */
(PID.TID 0000.0001)                 1.035000000000000E+03
(PID.TID 0000.0001)     ;
(PID.TID 0000.0001) rhoFacC = /* normalized Reference density @ cell-Center (-) */
(PID.TID 0000.0001)    15 @  1.000000000000000E+00              /* K =  1: 15 */
(PID.TID 0000.0001)     ;
(PID.TID 0000.0001) rhoFacF = /* normalized Reference density @ W-Interface (-) */
(PID.TID 0000.0001)    16 @  1.000000000000000E+00              /* K =  1: 16 */
(PID.TID 0000.0001)     ;
(PID.TID 0000.0001) rhoConstFresh =   /* Reference density ( kg/m^3 ) */
(PID.TID 0000.0001)                 1.035000000000000E+03
(PID.TID 0000.0001)     ;
(PID.TID 0000.0001) gravity =   /* Gravitational acceleration ( m/s^2 ) */
(PID.TID 0000.0001)                 9.810000000000000E+00
(PID.TID 0000.0001)     ;
(PID.TID 0000.0001) gBaro =   /* Barotropic gravity ( m/s^2 ) */
(PID.TID 0000.0001)                 9.810000000000000E+00
(PID.TID 0000.0001)     ;
(PID.TID 0000.0001) rotationPeriod =   /* Rotation Period ( s ) */
(PID.TID 0000.0001)                 8.616400000000000E+04
(PID.TID 0000.0001)     ;
(PID.TID 0000.0001) omega =   /* Angular velocity ( rad/s ) */
(PID.TID 0000.0001)                 7.292123516990375E-05
(PID.TID 0000.0001)     ;
(PID.TID 0000.0001) f0 =   /* Reference coriolis parameter ( 1/s ) */
(PID.TID 0000.0001)                 1.000000000000000E-04
(PID.TID 0000.0001)     ;
(PID.TID 0000.0001) beta =   /* Beta ( 1/(m.s) ) */
(PID.TID 0000.0001)                 9.999999999999999E-12
(PID.TID 0000.0001)     ;
(PID.TID 0000.0001) freeSurfFac =   /* Implicit free surface factor */
(PID.TID 0000.0001)                 1.000000000000000E+00
(PID.TID 0000.0001)     ;
(PID.TID 0000.0001) implicitFreeSurface =   /* Implicit free surface on/off flag */
(PID.TID 0000.0001)                   T
(PID.TID 0000.0001)     ;
(PID.TID 0000.0001) rigidLid =   /* Rigid lid on/off flag */
(PID.TID 0000.0001)                   F
(PID.TID 0000.0001)     ;
(PID.TID 0000.0001) implicSurfPress =   /* Surface Pressure implicit factor (0-1)*/
(PID.TID 0000.0001)                 1.000000000000000E+00
(PID.TID 0000.0001)     ;
(PID.TID 0000.0001) implicDiv2Dflow =   /* Barot. Flow Div. implicit factor (0-1)*/
(PID.TID 0000.0001)                 1.000000000000000E+00
(PID.TID 0000.0001)     ;
(PID.TID 0000.0001) exactConserv =   /* Exact Volume Conservation on/off flag*/
(PID.TID 0000.0001)                   T
(PID.TID 0000.0001)     ;
(PID.TID 0000.0001) linFSConserveTr =   /* Tracer correction for Lin Free Surface on/off flag*/
(PID.TID 0000.0001)                   F
(PID.TID 0000.0001)     ;
(PID.TID 0000.0001) uniformLin_PhiSurf =   /* use uniform Bo_surf on/off flag*/
(PID.TID 0000.0001)                   T
(PID.TID 0000.0001)     ;
(PID.TID 0000.0001) nonlinFreeSurf =   /* Non-linear Free Surf. options (-1,0,1,2,3)*/
(PID.TID 0000.0001)                       0
(PID.TID 0000.0001)     ;
(PID.TID 0000.0001)      -1,0= Off ; 1,2,3= On, 2=+rescale gU,gV, 3=+update cg2d solv.
(PID.TID 0000.0001) hFacInf =   /* lower threshold for hFac (nonlinFreeSurf only)*/
(PID.TID 0000.0001)                 2.000000000000000E-01
(PID.TID 0000.0001)     ;
(PID.TID 0000.0001) hFacSup =   /* upper threshold for hFac (nonlinFreeSurf only)*/
(PID.TID 0000.0001)                 2.000000000000000E+00
(PID.TID 0000.0001)     ;
(PID.TID 0000.0001) select_rStar = /* r* Vertical coord. options (=0 r coord.; > 0 uses r*) */
(PID.TID 0000.0001)                       0
(PID.TID 0000.0001)     ;
(PID.TID 0000.0001) selectAddFluid = /* option for mass source/sink of fluid (=0: off) */
(PID.TID 0000.0001)                       0
(PID.TID 0000.0001)     ;
(PID.TID 0000.0001) useRealFreshWaterFlux = /* Real Fresh Water Flux on/off flag*/
(PID.TID 0000.0001)                   F
(PID.TID 0000.0001)     ;
(PID.TID 0000.0001) temp_EvPrRn = /* Temp. of Evap/Prec/R (UNSET=use local T)(oC)*/
(PID.TID 0000.0001)                 1.234567000000000E+05
(PID.TID 0000.0001)     ;
(PID.TID 0000.0001) salt_EvPrRn = /* Salin. of Evap/Prec/R (UNSET=use local S)(ppt)*/
(PID.TID 0000.0001)                 0.000000000000000E+00
(PID.TID 0000.0001)     ;
(PID.TID 0000.0001) convertFW2Salt = /* convert F.W. Flux to Salt Flux (-1=use local S)(ppt)*/
(PID.TID 0000.0001)                 3.500000000000000E+01
(PID.TID 0000.0001)     ;
(PID.TID 0000.0001) use3Dsolver = /* use 3-D pressure solver on/off flag */
(PID.TID 0000.0001)                   F
(PID.TID 0000.0001)     ;
(PID.TID 0000.0001) nonHydrostatic =  /* Non-Hydrostatic on/off flag */
(PID.TID 0000.0001)                   F
(PID.TID 0000.0001)     ;
(PID.TID 0000.0001) nh_Am2 = /* Non-Hydrostatic terms scaling factor */
(PID.TID 0000.0001)                 1.000000000000000E+00
(PID.TID 0000.0001)     ;
(PID.TID 0000.0001) quasiHydrostatic = /* Quasi-Hydrostatic on/off flag */
(PID.TID 0000.0001)                   F
(PID.TID 0000.0001)     ;
(PID.TID 0000.0001) momStepping =  /* Momentum equation on/off flag */
(PID.TID 0000.0001)                   T
(PID.TID 0000.0001)     ;
(PID.TID 0000.0001) vectorInvariantMomentum= /* Vector-Invariant Momentum on/off */
(PID.TID 0000.0001)                   F
(PID.TID 0000.0001)     ;
(PID.TID 0000.0001) momAdvection =  /* Momentum advection on/off flag */
(PID.TID 0000.0001)                   T
(PID.TID 0000.0001)     ;
(PID.TID 0000.0001) momViscosity =  /* Momentum viscosity on/off flag */
(PID.TID 0000.0001)                   T
(PID.TID 0000.0001)     ;
(PID.TID 0000.0001) momImplVertAdv =/* Momentum implicit vert. advection on/off*/
(PID.TID 0000.0001)                   F
(PID.TID 0000.0001)     ;
(PID.TID 0000.0001) implicitViscosity = /* Implicit viscosity on/off flag */
(PID.TID 0000.0001)                   F
(PID.TID 0000.0001)     ;
(PID.TID 0000.0001) metricTerms =  /* metric-Terms on/off flag */
(PID.TID 0000.0001)                   T
(PID.TID 0000.0001)     ;
(PID.TID 0000.0001) useNHMTerms = /* Non-Hydrostatic Metric-Terms on/off */
(PID.TID 0000.0001)                   F
(PID.TID 0000.0001)     ;
(PID.TID 0000.0001) useConstantF =  /* use Constant f0 Coriolis flag */
(PID.TID 0000.0001)                   F
(PID.TID 0000.0001)     ;
(PID.TID 0000.0001) useBetaPlaneF = /* use Beta-Plane Coriolis flag */
(PID.TID 0000.0001)                   F
(PID.TID 0000.0001)     ;
(PID.TID 0000.0001) useSphereF  =   /* use Spherical Coriolis flag */
(PID.TID 0000.0001)                   T
(PID.TID 0000.0001)     ;
(PID.TID 0000.0001) use3dCoriolis = /* 3-D Coriolis on/off flag */
(PID.TID 0000.0001)                   F
(PID.TID 0000.0001)     ;
(PID.TID 0000.0001) useCoriolis =  /* Coriolis on/off flag */
(PID.TID 0000.0001)                   T
(PID.TID 0000.0001)     ;
(PID.TID 0000.0001) useCDscheme =  /* CD scheme on/off flag */
(PID.TID 0000.0001)                   T
(PID.TID 0000.0001)     ;
(PID.TID 0000.0001) useJamartWetPoints= /* Coriolis WetPoints method flag */
(PID.TID 0000.0001)                   F
(PID.TID 0000.0001)     ;
(PID.TID 0000.0001) useJamartMomAdv= /* V.I. Non-linear terms Jamart flag */
(PID.TID 0000.0001)                   F
(PID.TID 0000.0001)     ;
(PID.TID 0000.0001) useAbsVorticity= /* Work with f+zeta in Coriolis */
(PID.TID 0000.0001)                   F
(PID.TID 0000.0001)     ;
(PID.TID 0000.0001) selectVortScheme= /* Scheme selector for Vorticity-Term */
(PID.TID 0000.0001)               123456789
(PID.TID 0000.0001)    = 0 : enstrophy (Shallow-Water Eq.) conserving scheme by Sadourny, JAS 75
(PID.TID 0000.0001)    = 1 : same as 0 with modified hFac
(PID.TID 0000.0001)    = 2 : energy conserving scheme (used by Sadourny in JAS 75 paper)
(PID.TID 0000.0001)    = 3 : energy (general) and enstrophy (2D, nonDiv.) conserving scheme
(PID.TID 0000.0001)          from Sadourny (Burridge & Haseler, ECMWF Rep.4, 1977)
(PID.TID 0000.0001)     ;
(PID.TID 0000.0001) upwindVorticity= /* Upwind bias vorticity flag */
(PID.TID 0000.0001)                   F
(PID.TID 0000.0001)     ;
(PID.TID 0000.0001) highOrderVorticity= /* High order interp. of vort. flag */
(PID.TID 0000.0001)                   F
(PID.TID 0000.0001)     ;
(PID.TID 0000.0001) upwindShear= /* Upwind vertical Shear advection flag */
(PID.TID 0000.0001)                   F
(PID.TID 0000.0001)     ;
(PID.TID 0000.0001) selectKEscheme= /* Kinetic Energy scheme selector */
(PID.TID 0000.0001)                       0
(PID.TID 0000.0001)     ;
(PID.TID 0000.0001) momForcing =  /* Momentum forcing on/off flag */
(PID.TID 0000.0001)                   T
(PID.TID 0000.0001)     ;
(PID.TID 0000.0001) momPressureForcing =  /* Momentum pressure term on/off flag */
(PID.TID 0000.0001)                   T
(PID.TID 0000.0001)     ;
(PID.TID 0000.0001) implicitIntGravWave= /* Implicit Internal Gravity Wave flag */
(PID.TID 0000.0001)                   F
(PID.TID 0000.0001)     ;
(PID.TID 0000.0001) staggerTimeStep =   /* Stagger time stepping on/off flag */
(PID.TID 0000.0001)                   T
(PID.TID 0000.0001)     ;
(PID.TID 0000.0001) multiDimAdvection =   /* enable/disable Multi-Dim Advection */
(PID.TID 0000.0001)                   T
(PID.TID 0000.0001)     ;
(PID.TID 0000.0001) useMultiDimAdvec =   /* Multi-Dim Advection is/is-not used */
(PID.TID 0000.0001)                   T
(PID.TID 0000.0001)     ;
(PID.TID 0000.0001) implicitDiffusion =/* Implicit Diffusion on/off flag */
(PID.TID 0000.0001)                   T
(PID.TID 0000.0001)     ;
(PID.TID 0000.0001) tempStepping =  /* Temperature equation on/off flag */
(PID.TID 0000.0001)                   T
(PID.TID 0000.0001)     ;
(PID.TID 0000.0001) tempAdvection=  /* Temperature advection on/off flag */
(PID.TID 0000.0001)                   T
(PID.TID 0000.0001)     ;
(PID.TID 0000.0001) tempImplVertAdv =/* Temp. implicit vert. advection on/off */
(PID.TID 0000.0001)                   F
(PID.TID 0000.0001)     ;
(PID.TID 0000.0001) tempForcing  =  /* Temperature forcing on/off flag */
(PID.TID 0000.0001)                   T
(PID.TID 0000.0001)     ;
(PID.TID 0000.0001) tempIsActiveTr = /* Temp. is a dynamically Active Tracer */
(PID.TID 0000.0001)                   T
(PID.TID 0000.0001)     ;
(PID.TID 0000.0001) saltStepping =  /* Salinity equation on/off flag */
(PID.TID 0000.0001)                   F
(PID.TID 0000.0001)     ;
(PID.TID 0000.0001) saltAdvection=  /* Salinity advection on/off flag */
(PID.TID 0000.0001)                   F
(PID.TID 0000.0001)     ;
(PID.TID 0000.0001) saltImplVertAdv =/* Sali. implicit vert. advection on/off */
(PID.TID 0000.0001)                   F
(PID.TID 0000.0001)     ;
(PID.TID 0000.0001) saltForcing  =  /* Salinity forcing on/off flag */
(PID.TID 0000.0001)                   F
(PID.TID 0000.0001)     ;
(PID.TID 0000.0001) saltIsActiveTr = /* Salt  is a dynamically Active Tracer */
(PID.TID 0000.0001)                   F
(PID.TID 0000.0001)     ;
(PID.TID 0000.0001)  readBinaryPrec = /* Precision used for reading binary files */
(PID.TID 0000.0001)                      64
(PID.TID 0000.0001)     ;
(PID.TID 0000.0001) writeBinaryPrec = /* Precision used for writing binary files */
(PID.TID 0000.0001)                      32
(PID.TID 0000.0001)     ;
(PID.TID 0000.0001)  globalFiles = /* write "global" (=not per tile) files */
(PID.TID 0000.0001)                   F
(PID.TID 0000.0001)     ;
(PID.TID 0000.0001)  useSingleCpuIO = /* only master MPI process does I/O */
(PID.TID 0000.0001)                   F
(PID.TID 0000.0001)     ;
(PID.TID 0000.0001)  debugMode  =  /* Debug Mode on/off flag */
(PID.TID 0000.0001)                   F
(PID.TID 0000.0001)     ;
(PID.TID 0000.0001)    debLevA  =  /* 1rst level of debugging */
(PID.TID 0000.0001)                       1
(PID.TID 0000.0001)     ;
(PID.TID 0000.0001)    debLevB  =  /* 2nd  level of debugging */
(PID.TID 0000.0001)                       2
(PID.TID 0000.0001)     ;
(PID.TID 0000.0001)  debugLevel =  /* select debugging level */
(PID.TID 0000.0001)                       1
(PID.TID 0000.0001)     ;
(PID.TID 0000.0001) //
(PID.TID 0000.0001) // Elliptic solver(s) paramters ( PARM02 in namelist )
(PID.TID 0000.0001) //
(PID.TID 0000.0001) cg2dMaxIters =   /* Upper limit on 2d con. grad iterations  */
(PID.TID 0000.0001)                    1000
(PID.TID 0000.0001)     ;
(PID.TID 0000.0001) cg2dChkResFreq =   /* 2d con. grad convergence test frequency */
(PID.TID 0000.0001)                       1
(PID.TID 0000.0001)     ;
(PID.TID 0000.0001) cg2dTargetResidual =   /* 2d con. grad target residual  */
(PID.TID 0000.0001)                 1.000000000000000E-07
(PID.TID 0000.0001)     ;
(PID.TID 0000.0001) cg2dTargetResWunit =   /* CG2d target residual [W units] */
(PID.TID 0000.0001)                 1.000000000000000E-17
(PID.TID 0000.0001)     ;
(PID.TID 0000.0001) cg2dPreCondFreq =   /* Freq. for updating cg2d preconditioner */
(PID.TID 0000.0001)                       1
(PID.TID 0000.0001)     ;
(PID.TID 0000.0001) //
(PID.TID 0000.0001) // Time stepping paramters ( PARM03 in namelist )
(PID.TID 0000.0001) //
(PID.TID 0000.0001) deltaTmom =   /* Momentum equation timestep ( s ) */
(PID.TID 0000.0001)                 1.200000000000000E+03
(PID.TID 0000.0001)     ;
(PID.TID 0000.0001) deltaTfreesurf = /* FreeSurface equation timestep ( s ) */
(PID.TID 0000.0001)                 3.600000000000000E+03
(PID.TID 0000.0001)     ;
(PID.TID 0000.0001) dTtracerLev =  /* Tracer equation timestep ( s ) */
(PID.TID 0000.0001)    15 @  8.640000000000000E+04              /* K =  1: 15 */
(PID.TID 0000.0001)     ;
(PID.TID 0000.0001) deltaTClock  =   /* Model clock timestep ( s ) */
(PID.TID 0000.0001)                 8.640000000000000E+04
(PID.TID 0000.0001)     ;
(PID.TID 0000.0001) cAdjFreq =   /* Convective adjustment interval ( s ) */
(PID.TID 0000.0001)                 0.000000000000000E+00
(PID.TID 0000.0001)     ;
(PID.TID 0000.0001) momForcingOutAB = /* =1: take Momentum Forcing out of Adams-Bash. stepping */
(PID.TID 0000.0001)                       0
(PID.TID 0000.0001)     ;
(PID.TID 0000.0001) tracForcingOutAB = /* =1: take T,S,pTr Forcing out of Adams-Bash. stepping */
(PID.TID 0000.0001)                       0
(PID.TID 0000.0001)     ;
(PID.TID 0000.0001) momDissip_In_AB = /* put Dissipation Tendency in Adams-Bash. stepping */
(PID.TID 0000.0001)                   T
(PID.TID 0000.0001)     ;
(PID.TID 0000.0001) doAB_onGtGs = /* apply AB on Tendencies (rather than on T,S)*/
(PID.TID 0000.0001)                   T
(PID.TID 0000.0001)     ;
(PID.TID 0000.0001) abEps =   /* Adams-Bashforth-2 stabilizing weight */
(PID.TID 0000.0001)                 1.000000000000000E-01
(PID.TID 0000.0001)     ;
(PID.TID 0000.0001) tauCD =   /* CD coupling time-scale ( s ) */
(PID.TID 0000.0001)                 3.214280000000000E+05
(PID.TID 0000.0001)     ;
(PID.TID 0000.0001) rCD =   /* Normalised CD coupling parameter */
(PID.TID 0000.0001)                 9.962666600296178E-01
(PID.TID 0000.0001)     ;
(PID.TID 0000.0001) pickupStrictlyMatch= /* stop if pickup do not strictly match */
(PID.TID 0000.0001)                   F
(PID.TID 0000.0001)     ;
(PID.TID 0000.0001) nIter0 =   /* Run starting timestep number  */
(PID.TID 0000.0001)                   36000
(PID.TID 0000.0001)     ;
(PID.TID 0000.0001) nTimeSteps =   /* Number of timesteps */
(PID.TID 0000.0001)                      20
(PID.TID 0000.0001)     ;
(PID.TID 0000.0001) baseTime =   /* Model base time ( s ). */
(PID.TID 0000.0001)                 0.000000000000000E+00
(PID.TID 0000.0001)     ;
(PID.TID 0000.0001) startTime =   /* Run start time ( s ). */
(PID.TID 0000.0001)                 3.110400000000000E+09
(PID.TID 0000.0001)     ;
(PID.TID 0000.0001) endTime =   /* Integration ending time ( s ). */
(PID.TID 0000.0001)                 3.112128000000000E+09
(PID.TID 0000.0001)     ;
(PID.TID 0000.0001) pChkPtFreq =   /* Permanent restart/checkpoint file interval ( s ). */
(PID.TID 0000.0001)                 3.110400000000000E+09
(PID.TID 0000.0001)     ;
(PID.TID 0000.0001) chkPtFreq =   /* Rolling restart/checkpoint file interval ( s ). */
(PID.TID 0000.0001)                 0.000000000000000E+00
(PID.TID 0000.0001)     ;
(PID.TID 0000.0001) pickup_write_mdsio =   /* Model IO flag. */
(PID.TID 0000.0001)                   T
(PID.TID 0000.0001)     ;
(PID.TID 0000.0001) pickup_read_mdsio =   /* Model IO flag. */
(PID.TID 0000.0001)                   T
(PID.TID 0000.0001)     ;
(PID.TID 0000.0001) pickup_write_mnc =   /* Model IO flag. */
(PID.TID 0000.0001)                   F
(PID.TID 0000.0001)     ;
(PID.TID 0000.0001) pickup_read_mnc =   /* Model IO flag. */
(PID.TID 0000.0001)                   F
(PID.TID 0000.0001)     ;
(PID.TID 0000.0001) pickup_write_immed =   /* Model IO flag. */
(PID.TID 0000.0001)                   F
(PID.TID 0000.0001)     ;
(PID.TID 0000.0001) writePickupAtEnd =   /* Model IO flag. */
(PID.TID 0000.0001)                   T
(PID.TID 0000.0001)     ;
(PID.TID 0000.0001) dumpFreq =   /* Model state write out interval ( s ). */
(PID.TID 0000.0001)                 1.555200000000000E+09
(PID.TID 0000.0001)     ;
(PID.TID 0000.0001) dumpInitAndLast= /* write out Initial & Last iter. model state */
(PID.TID 0000.0001)                   T
(PID.TID 0000.0001)     ;
(PID.TID 0000.0001) snapshot_mdsio =   /* Model IO flag. */
(PID.TID 0000.0001)                   F
(PID.TID 0000.0001)     ;
(PID.TID 0000.0001) snapshot_mnc =   /* Model IO flag. */
(PID.TID 0000.0001)                   T
(PID.TID 0000.0001)     ;
(PID.TID 0000.0001) monitorFreq =   /* Monitor output interval ( s ). */
(PID.TID 0000.0001)                 1.000000000000000E+00
(PID.TID 0000.0001)     ;
(PID.TID 0000.0001) monitorSelect = /* select group of variables to monitor */
(PID.TID 0000.0001)                       2
(PID.TID 0000.0001)     ;
(PID.TID 0000.0001) monitor_stdio =   /* Model IO flag. */
(PID.TID 0000.0001)                   T
(PID.TID 0000.0001)     ;
(PID.TID 0000.0001) monitor_mnc =   /* Model IO flag. */
(PID.TID 0000.0001)                   F
(PID.TID 0000.0001)     ;
(PID.TID 0000.0001) externForcingPeriod =   /* forcing period (s) */
(PID.TID 0000.0001)                 0.000000000000000E+00
(PID.TID 0000.0001)     ;
(PID.TID 0000.0001) externForcingCycle =   /* period of the cyle (s). */
(PID.TID 0000.0001)                 0.000000000000000E+00
(PID.TID 0000.0001)     ;
(PID.TID 0000.0001) tauThetaClimRelax =   /* relaxation time scale (s) */
(PID.TID 0000.0001)                 2.592000000000000E+06
(PID.TID 0000.0001)     ;
(PID.TID 0000.0001) tauSaltClimRelax =   /* relaxation time scale (s) */
(PID.TID 0000.0001)                 0.000000000000000E+00
(PID.TID 0000.0001)     ;
(PID.TID 0000.0001) latBandClimRelax =   /* max. Lat. where relaxation */
(PID.TID 0000.0001)                 1.800000000000000E+02
(PID.TID 0000.0001)     ;
(PID.TID 0000.0001) //
(PID.TID 0000.0001) // Gridding paramters ( PARM04 in namelist )
(PID.TID 0000.0001) //
(PID.TID 0000.0001) usingCartesianGrid = /* Cartesian coordinates flag ( True/False ) */
(PID.TID 0000.0001)                   F
(PID.TID 0000.0001)     ;
(PID.TID 0000.0001) usingCylindricalGrid = /* Cylindrical coordinates flag ( True/False ) */
(PID.TID 0000.0001)                   F
(PID.TID 0000.0001)     ;
(PID.TID 0000.0001) usingSphericalPolarGrid = /* Spherical coordinates flag ( True/False ) */
(PID.TID 0000.0001)                   T
(PID.TID 0000.0001)     ;
(PID.TID 0000.0001) usingCurvilinearGrid = /* Curvilinear coordinates flag ( True/False ) */
(PID.TID 0000.0001)                   F
(PID.TID 0000.0001)     ;
(PID.TID 0000.0001) Ro_SeaLevel = /* r(1) ( units of r ==  m ) */
(PID.TID 0000.0001)                 0.000000000000000E+00
(PID.TID 0000.0001)     ;
(PID.TID 0000.0001) rkSign =   /* index orientation relative to vertical coordinate */
(PID.TID 0000.0001)                -1.000000000000000E+00
(PID.TID 0000.0001)     ;
(PID.TID 0000.0001) gravitySign = /* gravity orientation relative to vertical coordinate */
(PID.TID 0000.0001)                -1.000000000000000E+00
(PID.TID 0000.0001)     ;
(PID.TID 0000.0001) mass2rUnit = /* convert mass per unit area [kg/m2] to r-units [m] */
(PID.TID 0000.0001)                 9.661835748792270E-04
(PID.TID 0000.0001)     ;
(PID.TID 0000.0001) rUnit2mass = /* convert r-units [m] to mass per unit area [kg/m2] */
(PID.TID 0000.0001)                 1.035000000000000E+03
(PID.TID 0000.0001)     ;
(PID.TID 0000.0001) drC =   /* C spacing ( units of r ) */
(PID.TID 0000.0001)                 2.000000000000000E+01,      /* K =  1 */
(PID.TID 0000.0001)                 6.000000000000000E+01,      /* K =  2 */
(PID.TID 0000.0001)                 8.500000000000000E+01,      /* K =  3 */
(PID.TID 0000.0001)                 1.200000000000000E+02,      /* K =  4 */
(PID.TID 0000.0001)                 1.650000000000000E+02,      /* K =  5 */
(PID.TID 0000.0001)                 2.150000000000000E+02,      /* K =  6 */
(PID.TID 0000.0001)                 2.650000000000000E+02,      /* K =  7 */
(PID.TID 0000.0001)                 3.150000000000000E+02,      /* K =  8 */
(PID.TID 0000.0001)                 3.650000000000000E+02,      /* K =  9 */
(PID.TID 0000.0001)                 4.150000000000000E+02,      /* K = 10 */
(PID.TID 0000.0001)                 4.650000000000000E+02,      /* K = 11 */
(PID.TID 0000.0001)                 5.150000000000000E+02,      /* K = 12 */
(PID.TID 0000.0001)                 5.650000000000000E+02,      /* K = 13 */
(PID.TID 0000.0001)                 6.150000000000000E+02,      /* K = 14 */
(PID.TID 0000.0001)                 6.650000000000000E+02       /* K = 15 */
(PID.TID 0000.0001)     ;
(PID.TID 0000.0001) drF =   /* W spacing ( units of r ) */
(PID.TID 0000.0001)                 5.000000000000000E+01,      /* K =  1 */
(PID.TID 0000.0001)                 7.250000000000000E+01,      /* K =  2 */
(PID.TID 0000.0001)                 1.025000000000000E+02,      /* K =  3 */
(PID.TID 0000.0001)                 1.425000000000000E+02,      /* K =  4 */
(PID.TID 0000.0001)                 1.900000000000000E+02,      /* K =  5 */
(PID.TID 0000.0001)                 2.400000000000000E+02,      /* K =  6 */
(PID.TID 0000.0001)                 2.900000000000000E+02,      /* K =  7 */
(PID.TID 0000.0001)                 3.400000000000000E+02,      /* K =  8 */
(PID.TID 0000.0001)                 3.900000000000000E+02,      /* K =  9 */
(PID.TID 0000.0001)                 4.400000000000000E+02,      /* K = 10 */
(PID.TID 0000.0001)                 4.900000000000000E+02,      /* K = 11 */
(PID.TID 0000.0001)                 5.400000000000000E+02,      /* K = 12 */
(PID.TID 0000.0001)                 5.900000000000000E+02,      /* K = 13 */
(PID.TID 0000.0001)                 6.400000000000000E+02,      /* K = 14 */
(PID.TID 0000.0001)                 6.825000000000000E+02       /* K = 15 */
(PID.TID 0000.0001)     ;
(PID.TID 0000.0001) delX = /* U spacing ( m - cartesian, degrees - spherical ) */
(PID.TID 0000.0001)                 3.000000000000000E+00       /* I =  1 */
(PID.TID 0000.0001)     ;
(PID.TID 0000.0001) delY = /* V spacing ( m - cartesian, degrees - spherical ) */
(PID.TID 0000.0001)    56 @  3.000000000000000E+00              /* J =  1: 56 */
(PID.TID 0000.0001)     ;
(PID.TID 0000.0001) xgOrigin = /* X-axis origin of West  edge (cartesian: m, lat-lon: deg.) */
(PID.TID 0000.0001)                 0.000000000000000E+00
(PID.TID 0000.0001)     ;
(PID.TID 0000.0001) ygOrigin = /* Y-axis origin of South edge (cartesian: m, lat-lon: deg.) */
(PID.TID 0000.0001)                -8.400000000000000E+01
(PID.TID 0000.0001)     ;
(PID.TID 0000.0001) rSphere =  /* Radius ( ignored - cartesian, m - spherical ) */
(PID.TID 0000.0001)                 6.370000000000000E+06
(PID.TID 0000.0001)     ;
(PID.TID 0000.0001) deepAtmosphere = /* Deep/Shallow Atmosphere flag (True/False) */
(PID.TID 0000.0001)                   F
(PID.TID 0000.0001)     ;
(PID.TID 0000.0001) xC =  /* xC(:,1,:,1) : P-point X coord ( deg. or m if cartesian) */
(PID.TID 0000.0001)                 1.500000000000000E+00       /* I =  1 */
(PID.TID 0000.0001)     ;
(PID.TID 0000.0001) yC =  /* yC(1,:,1,:) : P-point Y coord ( deg. or m if cartesian) */
(PID.TID 0000.0001)                -8.250000000000000E+01,      /* J =  1 */
(PID.TID 0000.0001)                -7.950000000000000E+01,      /* J =  2 */
(PID.TID 0000.0001)                -7.650000000000000E+01,      /* J =  3 */
(PID.TID 0000.0001)                -7.350000000000000E+01,      /* J =  4 */
(PID.TID 0000.0001)                -7.050000000000000E+01,      /* J =  5 */
(PID.TID 0000.0001)                -6.750000000000000E+01,      /* J =  6 */
(PID.TID 0000.0001)                -6.450000000000000E+01,      /* J =  7 */
(PID.TID 0000.0001)                -6.150000000000000E+01,      /* J =  8 */
(PID.TID 0000.0001)                -5.850000000000000E+01,      /* J =  9 */
(PID.TID 0000.0001)                -5.550000000000000E+01,      /* J = 10 */
(PID.TID 0000.0001)                -5.250000000000000E+01,      /* J = 11 */
(PID.TID 0000.0001)                -4.950000000000000E+01,      /* J = 12 */
(PID.TID 0000.0001)                -4.650000000000000E+01,      /* J = 13 */
(PID.TID 0000.0001)                -4.350000000000000E+01,      /* J = 14 */
(PID.TID 0000.0001)                -4.050000000000000E+01,      /* J = 15 */
(PID.TID 0000.0001)                -3.750000000000000E+01,      /* J = 16 */
(PID.TID 0000.0001)                -3.450000000000000E+01,      /* J = 17 */
(PID.TID 0000.0001)                -3.150000000000000E+01,      /* J = 18 */
(PID.TID 0000.0001)                -2.850000000000000E+01,      /* J = 19 */
(PID.TID 0000.0001)                -2.550000000000000E+01,      /* J = 20 */
(PID.TID 0000.0001)                -2.250000000000000E+01,      /* J = 21 */
(PID.TID 0000.0001)                -1.950000000000000E+01,      /* J = 22 */
(PID.TID 0000.0001)                -1.650000000000000E+01,      /* J = 23 */
(PID.TID 0000.0001)                -1.350000000000000E+01,      /* J = 24 */
(PID.TID 0000.0001)                -1.050000000000000E+01,      /* J = 25 */
(PID.TID 0000.0001)                -7.500000000000000E+00,      /* J = 26 */
(PID.TID 0000.0001)                -4.500000000000000E+00,      /* J = 27 */
(PID.TID 0000.0001)                -1.500000000000000E+00,      /* J = 28 */
(PID.TID 0000.0001)                 1.500000000000000E+00,      /* J = 29 */
(PID.TID 0000.0001)                 4.500000000000000E+00,      /* J = 30 */
(PID.TID 0000.0001)                 7.500000000000000E+00,      /* J = 31 */
(PID.TID 0000.0001)                 1.050000000000000E+01,      /* J = 32 */
(PID.TID 0000.0001)                 1.350000000000000E+01,      /* J = 33 */
(PID.TID 0000.0001)                 1.650000000000000E+01,      /* J = 34 */
(PID.TID 0000.0001)                 1.950000000000000E+01,      /* J = 35 */
(PID.TID 0000.0001)                 2.250000000000000E+01,      /* J = 36 */
(PID.TID 0000.0001)                 2.550000000000000E+01,      /* J = 37 */
(PID.TID 0000.0001)                 2.850000000000000E+01,      /* J = 38 */
(PID.TID 0000.0001)                 3.150000000000000E+01,      /* J = 39 */
(PID.TID 0000.0001)                 3.450000000000000E+01,      /* J = 40 */
(PID.TID 0000.0001)                 3.750000000000000E+01,      /* J = 41 */
(PID.TID 0000.0001)                 4.050000000000000E+01,      /* J = 42 */
(PID.TID 0000.0001)                 4.350000000000000E+01,      /* J = 43 */
(PID.TID 0000.0001)                 4.650000000000000E+01,      /* J = 44 */
(PID.TID 0000.0001)                 4.950000000000000E+01,      /* J = 45 */
(PID.TID 0000.0001)                 5.250000000000000E+01,      /* J = 46 */
(PID.TID 0000.0001)                 5.550000000000000E+01,      /* J = 47 */
(PID.TID 0000.0001)                 5.850000000000000E+01,      /* J = 48 */
(PID.TID 0000.0001)                 6.150000000000000E+01,      /* J = 49 */
(PID.TID 0000.0001)                 6.450000000000000E+01,      /* J = 50 */
(PID.TID 0000.0001)                 6.750000000000000E+01,      /* J = 51 */
(PID.TID 0000.0001)                 7.050000000000000E+01,      /* J = 52 */
(PID.TID 0000.0001)                 7.350000000000000E+01,      /* J = 53 */
(PID.TID 0000.0001)                 7.650000000000000E+01,      /* J = 54 */
(PID.TID 0000.0001)                 7.950000000000000E+01,      /* J = 55 */
(PID.TID 0000.0001)                 8.250000000000000E+01       /* J = 56 */
(PID.TID 0000.0001)     ;
(PID.TID 0000.0001) rcoord = /* P-point R coordinate (  units of r ) */
(PID.TID 0000.0001)                -2.000000000000000E+01,      /* K =  1 */
(PID.TID 0000.0001)                -8.000000000000000E+01,      /* K =  2 */
(PID.TID 0000.0001)                -1.650000000000000E+02,      /* K =  3 */
(PID.TID 0000.0001)                -2.850000000000000E+02,      /* K =  4 */
(PID.TID 0000.0001)                -4.500000000000000E+02,      /* K =  5 */
(PID.TID 0000.0001)                -6.650000000000000E+02,      /* K =  6 */
(PID.TID 0000.0001)                -9.300000000000000E+02,      /* K =  7 */
(PID.TID 0000.0001)                -1.245000000000000E+03,      /* K =  8 */
(PID.TID 0000.0001)                -1.610000000000000E+03,      /* K =  9 */
(PID.TID 0000.0001)                -2.025000000000000E+03,      /* K = 10 */
(PID.TID 0000.0001)                -2.490000000000000E+03,      /* K = 11 */
(PID.TID 0000.0001)                -3.005000000000000E+03,      /* K = 12 */
(PID.TID 0000.0001)                -3.570000000000000E+03,      /* K = 13 */
(PID.TID 0000.0001)                -4.185000000000000E+03,      /* K = 14 */
(PID.TID 0000.0001)                -4.850000000000000E+03       /* K = 15 */
(PID.TID 0000.0001)     ;
(PID.TID 0000.0001) rF =   /* W-Interf. R coordinate (  units of r ) */
(PID.TID 0000.0001)                 0.000000000000000E+00,      /* K =  1 */
(PID.TID 0000.0001)                -5.000000000000000E+01,      /* K =  2 */
(PID.TID 0000.0001)                -1.225000000000000E+02,      /* K =  3 */
(PID.TID 0000.0001)                -2.250000000000000E+02,      /* K =  4 */
(PID.TID 0000.0001)                -3.675000000000000E+02,      /* K =  5 */
(PID.TID 0000.0001)                -5.575000000000000E+02,      /* K =  6 */
(PID.TID 0000.0001)                -7.975000000000000E+02,      /* K =  7 */
(PID.TID 0000.0001)                -1.087500000000000E+03,      /* K =  8 */
(PID.TID 0000.0001)                -1.427500000000000E+03,      /* K =  9 */
(PID.TID 0000.0001)                -1.817500000000000E+03,      /* K = 10 */
(PID.TID 0000.0001)                -2.257500000000000E+03,      /* K = 11 */
(PID.TID 0000.0001)                -2.747500000000000E+03,      /* K = 12 */
(PID.TID 0000.0001)                -3.287500000000000E+03,      /* K = 13 */
(PID.TID 0000.0001)                -3.877500000000000E+03,      /* K = 14 */
(PID.TID 0000.0001)                -4.517500000000000E+03,      /* K = 15 */
(PID.TID 0000.0001)                -5.200000000000000E+03       /* K = 16 */
(PID.TID 0000.0001)     ;
(PID.TID 0000.0001) deepFacC = /* deep-model grid factor @ cell-Center (-) */
(PID.TID 0000.0001)    15 @  1.000000000000000E+00              /* K =  1: 15 */
(PID.TID 0000.0001)     ;
(PID.TID 0000.0001) deepFacF = /* deep-model grid factor @ W-Interface (-) */
(PID.TID 0000.0001)    16 @  1.000000000000000E+00              /* K =  1: 16 */
(PID.TID 0000.0001)     ;
(PID.TID 0000.0001) rVel2wUnit = /* convert units: rVel -> wSpeed (=1 if z-coord)*/
(PID.TID 0000.0001)    16 @  1.000000000000000E+00              /* K =  1: 16 */
(PID.TID 0000.0001)     ;
(PID.TID 0000.0001) wUnit2rVel = /* convert units: wSpeed -> rVel (=1 if z-coord)*/
(PID.TID 0000.0001)    16 @  1.000000000000000E+00              /* K =  1: 16 */
(PID.TID 0000.0001)     ;
(PID.TID 0000.0001) dBdrRef = /* Vertical gradient of reference boyancy [(m/s/r)^2)] */
(PID.TID 0000.0001)                 0.000000000000000E+00,      /* K =  1 */
(PID.TID 0000.0001)                 8.175000000000001E-05,      /* K =  2 */
(PID.TID 0000.0001)                 7.386352941176473E-05,      /* K =  3 */
(PID.TID 0000.0001)                 4.414500000000000E-05,      /* K =  4 */
(PID.TID 0000.0001)                 2.734909090909092E-05,      /* K =  5 */
(PID.TID 0000.0001)                 1.916372093023256E-05,      /* K =  6 */
(PID.TID 0000.0001)                 1.110566037735849E-05,      /* K =  7 */
(PID.TID 0000.0001)                 6.851428571428573E-06,      /* K =  8 */
(PID.TID 0000.0001)                 3.762739726027396E-06,      /* K =  9 */
(PID.TID 0000.0001)                 2.363855421686748E-06,      /* K = 10 */
(PID.TID 0000.0001)                 1.687741935483872E-06,      /* K = 11 */
(PID.TID 0000.0001)                 1.142912621359224E-06,      /* K = 12 */
(PID.TID 0000.0001)                 1.041769911504425E-06,      /* K = 13 */
(PID.TID 0000.0001)                 6.380487804878048E-07,      /* K = 14 */
(PID.TID 0000.0001)                 2.950375939849624E-07       /* K = 15 */
(PID.TID 0000.0001)     ;
(PID.TID 0000.0001) rotateGrid = /* use rotated grid ( True/False ) */
(PID.TID 0000.0001)                   F
(PID.TID 0000.0001)     ;
(PID.TID 0000.0001) phiEuler = /* Euler angle, rotation about original z-coordinate [rad] */
(PID.TID 0000.0001)                 0.000000000000000E+00
(PID.TID 0000.0001)     ;
(PID.TID 0000.0001) thetaEuler = /* Euler angle, rotation about new x-coordinate [rad] */
(PID.TID 0000.0001)                 0.000000000000000E+00
(PID.TID 0000.0001)     ;
(PID.TID 0000.0001) psiEuler = /* Euler angle, rotation about new z-coordinate [rad] */
(PID.TID 0000.0001)                 0.000000000000000E+00
(PID.TID 0000.0001)     ;
(PID.TID 0000.0001) dxF =  /* dxF(:,1,:,1) ( units: m ) */
(PID.TID 0000.0001)                 4.353471677186367E+04       /* I =  1 */
(PID.TID 0000.0001)     ;
(PID.TID 0000.0001) dxF =  /* dxF(1,:,1,:) ( units: m ) */
(PID.TID 0000.0001)                 4.353471677186367E+04,      /* J =  1 */
(PID.TID 0000.0001)                 6.078145583759403E+04,      /* J =  2 */
(PID.TID 0000.0001)                 7.786159715774079E+04,      /* J =  3 */
(PID.TID 0000.0001)                 9.472832525217145E+04,      /* J =  4 */
(PID.TID 0000.0001)                 1.113354095915710E+05,      /* J =  5 */
(PID.TID 0000.0001)                 1.276373313121096E+05,      /* J =  6 */
(PID.TID 0000.0001)                 1.435894079794837E+05,      /* J =  7 */
(PID.TID 0000.0001)                 1.591479160603634E+05,      /* J =  8 */
(PID.TID 0000.0001)                 1.742702107655578E+05,      /* J =  9 */
(PID.TID 0000.0001)                 1.889148429364175E+05,      /* J = 10 */
(PID.TID 0000.0001)                 2.030416726540983E+05,      /* J = 11 */
(PID.TID 0000.0001)                 2.166119792602878E+05,      /* J = 12 */
(PID.TID 0000.0001)                 2.295885674878389E+05,      /* J = 13 */
(PID.TID 0000.0001)                 2.419358694104115E+05,      /* J = 14 */
(PID.TID 0000.0001)                 2.536200419316863E+05,      /* J = 15 */
(PID.TID 0000.0001)                 2.646090595469393E+05,      /* J = 16 */
(PID.TID 0000.0001)                 2.748728021227243E+05,      /* J = 17 */
(PID.TID 0000.0001)                 2.843831374540652E+05,      /* J = 18 */
(PID.TID 0000.0001)                 2.931139983728740E+05,      /* J = 19 */
(PID.TID 0000.0001)                 3.010414541962470E+05,      /* J = 20 */
(PID.TID 0000.0001)                 3.081437763188029E+05,      /* J = 21 */
(PID.TID 0000.0001)                 3.144014977692803E+05,      /* J = 22 */
(PID.TID 0000.0001)                 3.197974665681523E+05,      /* J = 23 */
(PID.TID 0000.0001)                 3.243168927400103E+05,      /* J = 24 */
(PID.TID 0000.0001)                 3.279473888518588E+05,      /* J = 25 */
(PID.TID 0000.0001)                 3.306790039662077E+05,      /* J = 26 */
(PID.TID 0000.0001)                 3.325042509159012E+05,      /* J = 27 */
(PID.TID 0000.0001)     2 @  3.334181268259212E+05,             /* J = 28: 29 */
(PID.TID 0000.0001)                 3.325042509159012E+05,      /* J = 30 */
(PID.TID 0000.0001)                 3.306790039662077E+05,      /* J = 31 */
(PID.TID 0000.0001)                 3.279473888518588E+05,      /* J = 32 */
(PID.TID 0000.0001)                 3.243168927400103E+05,      /* J = 33 */
(PID.TID 0000.0001)                 3.197974665681523E+05,      /* J = 34 */
(PID.TID 0000.0001)                 3.144014977692803E+05,      /* J = 35 */
(PID.TID 0000.0001)                 3.081437763188029E+05,      /* J = 36 */
(PID.TID 0000.0001)                 3.010414541962470E+05,      /* J = 37 */
(PID.TID 0000.0001)                 2.931139983728740E+05,      /* J = 38 */
(PID.TID 0000.0001)                 2.843831374540652E+05,      /* J = 39 */
(PID.TID 0000.0001)                 2.748728021227243E+05,      /* J = 40 */
(PID.TID 0000.0001)                 2.646090595469393E+05,      /* J = 41 */
(PID.TID 0000.0001)                 2.536200419316863E+05,      /* J = 42 */
(PID.TID 0000.0001)                 2.419358694104115E+05,      /* J = 43 */
(PID.TID 0000.0001)                 2.295885674878389E+05,      /* J = 44 */
(PID.TID 0000.0001)                 2.166119792602878E+05,      /* J = 45 */
(PID.TID 0000.0001)                 2.030416726540983E+05,      /* J = 46 */
(PID.TID 0000.0001)                 1.889148429364175E+05,      /* J = 47 */
(PID.TID 0000.0001)                 1.742702107655578E+05,      /* J = 48 */
(PID.TID 0000.0001)                 1.591479160603634E+05,      /* J = 49 */
(PID.TID 0000.0001)                 1.435894079794837E+05,      /* J = 50 */
(PID.TID 0000.0001)                 1.276373313121096E+05,      /* J = 51 */
(PID.TID 0000.0001)                 1.113354095915710E+05,      /* J = 52 */
(PID.TID 0000.0001)                 9.472832525217145E+04,      /* J = 53 */
(PID.TID 0000.0001)                 7.786159715774079E+04,      /* J = 54 */
(PID.TID 0000.0001)                 6.078145583759403E+04,      /* J = 55 */
(PID.TID 0000.0001)                 4.353471677186367E+04       /* J = 56 */
(PID.TID 0000.0001)     ;
(PID.TID 0000.0001) dyF =  /* dyF(:,1,:,1) ( units: m ) */
(PID.TID 0000.0001)                 3.335324200561164E+05       /* I =  1 */
(PID.TID 0000.0001)     ;
(PID.TID 0000.0001) dyF =  /* dyF(1,:,1,:) ( units: m ) */
(PID.TID 0000.0001)    56 @  3.335324200561164E+05              /* J =  1: 56 */
(PID.TID 0000.0001)     ;
(PID.TID 0000.0001) dxG =  /* dxG(:,1,:,1) ( units: m ) */
(PID.TID 0000.0001)                 3.486363131840732E+04       /* I =  1 */
(PID.TID 0000.0001)     ;
(PID.TID 0000.0001) dxG =  /* dxG(1,:,1,:) ( units: m ) */
(PID.TID 0000.0001)                 3.486363131840732E+04,      /* J =  1 */
(PID.TID 0000.0001)                 5.217596570505216E+04,      /* J =  2 */
(PID.TID 0000.0001)                 6.934528939640634E+04,      /* J =  3 */
(PID.TID 0000.0001)                 8.632454246965688E+04,      /* J =  4 */
(PID.TID 0000.0001)                 1.030671859723435E+05,      /* J =  5 */
(PID.TID 0000.0001)                 1.195273294823923E+05,      /* J =  6 */
(PID.TID 0000.0001)                 1.356598568905725E+05,      /* J =  7 */
(PID.TID 0000.0001)                 1.514205500606167E+05,      /* J =  8 */
(PID.TID 0000.0001)                 1.667662100280583E+05,      /* J =  9 */
(PID.TID 0000.0001)                 1.816547754055899E+05,      /* J = 10 */
(PID.TID 0000.0001)                 1.960454376704035E+05,      /* J = 11 */
(PID.TID 0000.0001)                 2.098987530175138E+05,      /* J = 12 */
(PID.TID 0000.0001)                 2.231767504724866E+05,      /* J = 13 */
(PID.TID 0000.0001)                 2.358430359672399E+05,      /* J = 14 */
(PID.TID 0000.0001)                 2.478628920936556E+05,      /* J = 15 */
(PID.TID 0000.0001)                 2.592033732615808E+05,      /* J = 16 */
(PID.TID 0000.0001)                 2.698333960004017E+05,      /* J = 17 */
(PID.TID 0000.0001)                 2.797238241566748E+05,      /* J = 18 */
(PID.TID 0000.0001)                 2.888475487542992E+05,      /* J = 19 */
(PID.TID 0000.0001)                 2.971795622983349E+05,      /* J = 20 */
(PID.TID 0000.0001)                 3.046970273188090E+05,      /* J = 21 */
(PID.TID 0000.0001)                 3.113793389666330E+05,      /* J = 22 */
(PID.TID 0000.0001)                 3.172081814900618E+05,      /* J = 23 */
(PID.TID 0000.0001)                 3.221675784368968E+05,      /* J = 24 */
(PID.TID 0000.0001)                 3.262439364448300E+05,      /* J = 25 */
(PID.TID 0000.0001)                 3.294260824999061E+05,      /* J = 26 */
(PID.TID 0000.0001)                 3.317052945609759E+05,      /* J = 27 */
(PID.TID 0000.0001)                 3.330753254662066E+05,      /* J = 28 */
(PID.TID 0000.0001)                 3.335324200561164E+05,      /* J = 29 */
(PID.TID 0000.0001)                 3.330753254662066E+05,      /* J = 30 */
(PID.TID 0000.0001)                 3.317052945609759E+05,      /* J = 31 */
(PID.TID 0000.0001)                 3.294260824999061E+05,      /* J = 32 */
(PID.TID 0000.0001)                 3.262439364448300E+05,      /* J = 33 */
(PID.TID 0000.0001)                 3.221675784368968E+05,      /* J = 34 */
(PID.TID 0000.0001)                 3.172081814900618E+05,      /* J = 35 */
(PID.TID 0000.0001)                 3.113793389666330E+05,      /* J = 36 */
(PID.TID 0000.0001)                 3.046970273188090E+05,      /* J = 37 */
(PID.TID 0000.0001)                 2.971795622983349E+05,      /* J = 38 */
(PID.TID 0000.0001)                 2.888475487542992E+05,      /* J = 39 */
(PID.TID 0000.0001)                 2.797238241566748E+05,      /* J = 40 */
(PID.TID 0000.0001)                 2.698333960004017E+05,      /* J = 41 */
(PID.TID 0000.0001)                 2.592033732615808E+05,      /* J = 42 */
(PID.TID 0000.0001)                 2.478628920936556E+05,      /* J = 43 */
(PID.TID 0000.0001)                 2.358430359672399E+05,      /* J = 44 */
(PID.TID 0000.0001)                 2.231767504724866E+05,      /* J = 45 */
(PID.TID 0000.0001)                 2.098987530175138E+05,      /* J = 46 */
(PID.TID 0000.0001)                 1.960454376704035E+05,      /* J = 47 */
(PID.TID 0000.0001)                 1.816547754055899E+05,      /* J = 48 */
(PID.TID 0000.0001)                 1.667662100280583E+05,      /* J = 49 */
(PID.TID 0000.0001)                 1.514205500606167E+05,      /* J = 50 */
(PID.TID 0000.0001)                 1.356598568905725E+05,      /* J = 51 */
(PID.TID 0000.0001)                 1.195273294823923E+05,      /* J = 52 */
(PID.TID 0000.0001)                 1.030671859723435E+05,      /* J = 53 */
(PID.TID 0000.0001)                 8.632454246965688E+04,      /* J = 54 */
(PID.TID 0000.0001)                 6.934528939640634E+04,      /* J = 55 */
(PID.TID 0000.0001)                 5.217596570505216E+04       /* J = 56 */
(PID.TID 0000.0001)     ;
(PID.TID 0000.0001) dyG =  /* dyG(:,1,:,1) ( units: m ) */
(PID.TID 0000.0001)                 3.335324200561164E+05       /* I =  1 */
(PID.TID 0000.0001)     ;
(PID.TID 0000.0001) dyG =  /* dyG(1,:,1,:) ( units: m ) */
(PID.TID 0000.0001)    56 @  3.335324200561164E+05              /* J =  1: 56 */
(PID.TID 0000.0001)     ;
(PID.TID 0000.0001) dxC =  /* dxC(:,1,:,1) ( units: m ) */
(PID.TID 0000.0001)                 4.353471677186367E+04       /* I =  1 */
(PID.TID 0000.0001)     ;
(PID.TID 0000.0001) dxC =  /* dxC(1,:,1,:) ( units: m ) */
(PID.TID 0000.0001)                 4.353471677186367E+04,      /* J =  1 */
(PID.TID 0000.0001)                 6.078145583759403E+04,      /* J =  2 */
(PID.TID 0000.0001)                 7.786159715774079E+04,      /* J =  3 */
(PID.TID 0000.0001)                 9.472832525217145E+04,      /* J =  4 */
(PID.TID 0000.0001)                 1.113354095915710E+05,      /* J =  5 */
(PID.TID 0000.0001)                 1.276373313121096E+05,      /* J =  6 */
(PID.TID 0000.0001)                 1.435894079794837E+05,      /* J =  7 */
(PID.TID 0000.0001)                 1.591479160603634E+05,      /* J =  8 */
(PID.TID 0000.0001)                 1.742702107655578E+05,      /* J =  9 */
(PID.TID 0000.0001)                 1.889148429364175E+05,      /* J = 10 */
(PID.TID 0000.0001)                 2.030416726540983E+05,      /* J = 11 */
(PID.TID 0000.0001)                 2.166119792602878E+05,      /* J = 12 */
(PID.TID 0000.0001)                 2.295885674878389E+05,      /* J = 13 */
(PID.TID 0000.0001)                 2.419358694104115E+05,      /* J = 14 */
(PID.TID 0000.0001)                 2.536200419316863E+05,      /* J = 15 */
(PID.TID 0000.0001)                 2.646090595469393E+05,      /* J = 16 */
(PID.TID 0000.0001)                 2.748728021227243E+05,      /* J = 17 */
(PID.TID 0000.0001)                 2.843831374540652E+05,      /* J = 18 */
(PID.TID 0000.0001)                 2.931139983728740E+05,      /* J = 19 */
(PID.TID 0000.0001)                 3.010414541962470E+05,      /* J = 20 */
(PID.TID 0000.0001)                 3.081437763188029E+05,      /* J = 21 */
(PID.TID 0000.0001)                 3.144014977692803E+05,      /* J = 22 */
(PID.TID 0000.0001)                 3.197974665681523E+05,      /* J = 23 */
(PID.TID 0000.0001)                 3.243168927400103E+05,      /* J = 24 */
(PID.TID 0000.0001)                 3.279473888518588E+05,      /* J = 25 */
(PID.TID 0000.0001)                 3.306790039662077E+05,      /* J = 26 */
(PID.TID 0000.0001)                 3.325042509159012E+05,      /* J = 27 */
(PID.TID 0000.0001)     2 @  3.334181268259212E+05,             /* J = 28: 29 */
(PID.TID 0000.0001)                 3.325042509159012E+05,      /* J = 30 */
(PID.TID 0000.0001)                 3.306790039662077E+05,      /* J = 31 */
(PID.TID 0000.0001)                 3.279473888518588E+05,      /* J = 32 */
(PID.TID 0000.0001)                 3.243168927400103E+05,      /* J = 33 */
(PID.TID 0000.0001)                 3.197974665681523E+05,      /* J = 34 */
(PID.TID 0000.0001)                 3.144014977692803E+05,      /* J = 35 */
(PID.TID 0000.0001)                 3.081437763188029E+05,      /* J = 36 */
(PID.TID 0000.0001)                 3.010414541962470E+05,      /* J = 37 */
(PID.TID 0000.0001)                 2.931139983728740E+05,      /* J = 38 */
(PID.TID 0000.0001)                 2.843831374540652E+05,      /* J = 39 */
(PID.TID 0000.0001)                 2.748728021227243E+05,      /* J = 40 */
(PID.TID 0000.0001)                 2.646090595469393E+05,      /* J = 41 */
(PID.TID 0000.0001)                 2.536200419316863E+05,      /* J = 42 */
(PID.TID 0000.0001)                 2.419358694104115E+05,      /* J = 43 */
(PID.TID 0000.0001)                 2.295885674878389E+05,      /* J = 44 */
(PID.TID 0000.0001)                 2.166119792602878E+05,      /* J = 45 */
(PID.TID 0000.0001)                 2.030416726540983E+05,      /* J = 46 */
(PID.TID 0000.0001)                 1.889148429364175E+05,      /* J = 47 */
(PID.TID 0000.0001)                 1.742702107655578E+05,      /* J = 48 */
(PID.TID 0000.0001)                 1.591479160603634E+05,      /* J = 49 */
(PID.TID 0000.0001)                 1.435894079794837E+05,      /* J = 50 */
(PID.TID 0000.0001)                 1.276373313121096E+05,      /* J = 51 */
(PID.TID 0000.0001)                 1.113354095915710E+05,      /* J = 52 */
(PID.TID 0000.0001)                 9.472832525217145E+04,      /* J = 53 */
(PID.TID 0000.0001)                 7.786159715774079E+04,      /* J = 54 */
(PID.TID 0000.0001)                 6.078145583759403E+04,      /* J = 55 */
(PID.TID 0000.0001)                 4.353471677186367E+04       /* J = 56 */
(PID.TID 0000.0001)     ;
(PID.TID 0000.0001) dyC =  /* dyC(:,1,:,1) ( units: m ) */
(PID.TID 0000.0001)                 3.335324200561164E+05       /* I =  1 */
(PID.TID 0000.0001)     ;
(PID.TID 0000.0001) dyC =  /* dyC(1,:,1,:) ( units: m ) */
(PID.TID 0000.0001)    56 @  3.335324200561164E+05              /* J =  1: 56 */
(PID.TID 0000.0001)     ;
(PID.TID 0000.0001) dxV =  /* dxV(:,1,:,1) ( units: m ) */
(PID.TID 0000.0001)                 3.486363131840732E+04       /* I =  1 */
(PID.TID 0000.0001)     ;
(PID.TID 0000.0001) dxV =  /* dxV(1,:,1,:) ( units: m ) */
(PID.TID 0000.0001)                 3.486363131840732E+04,      /* J =  1 */
(PID.TID 0000.0001)                 5.217596570505216E+04,      /* J =  2 */
(PID.TID 0000.0001)                 6.934528939640634E+04,      /* J =  3 */
(PID.TID 0000.0001)                 8.632454246965688E+04,      /* J =  4 */
(PID.TID 0000.0001)                 1.030671859723435E+05,      /* J =  5 */
(PID.TID 0000.0001)                 1.195273294823923E+05,      /* J =  6 */
(PID.TID 0000.0001)                 1.356598568905725E+05,      /* J =  7 */
(PID.TID 0000.0001)                 1.514205500606167E+05,      /* J =  8 */
(PID.TID 0000.0001)                 1.667662100280583E+05,      /* J =  9 */
(PID.TID 0000.0001)                 1.816547754055899E+05,      /* J = 10 */
(PID.TID 0000.0001)                 1.960454376704035E+05,      /* J = 11 */
(PID.TID 0000.0001)                 2.098987530175138E+05,      /* J = 12 */
(PID.TID 0000.0001)                 2.231767504724866E+05,      /* J = 13 */
(PID.TID 0000.0001)                 2.358430359672399E+05,      /* J = 14 */
(PID.TID 0000.0001)                 2.478628920936556E+05,      /* J = 15 */
(PID.TID 0000.0001)                 2.592033732615808E+05,      /* J = 16 */
(PID.TID 0000.0001)                 2.698333960004017E+05,      /* J = 17 */
(PID.TID 0000.0001)                 2.797238241566748E+05,      /* J = 18 */
(PID.TID 0000.0001)                 2.888475487542992E+05,      /* J = 19 */
(PID.TID 0000.0001)                 2.971795622983349E+05,      /* J = 20 */
(PID.TID 0000.0001)                 3.046970273188090E+05,      /* J = 21 */
(PID.TID 0000.0001)                 3.113793389666330E+05,      /* J = 22 */
(PID.TID 0000.0001)                 3.172081814900618E+05,      /* J = 23 */
(PID.TID 0000.0001)                 3.221675784368968E+05,      /* J = 24 */
(PID.TID 0000.0001)                 3.262439364448300E+05,      /* J = 25 */
(PID.TID 0000.0001)                 3.294260824999061E+05,      /* J = 26 */
(PID.TID 0000.0001)                 3.317052945609759E+05,      /* J = 27 */
(PID.TID 0000.0001)                 3.330753254662066E+05,      /* J = 28 */
(PID.TID 0000.0001)                 3.335324200561164E+05,      /* J = 29 */
(PID.TID 0000.0001)                 3.330753254662066E+05,      /* J = 30 */
(PID.TID 0000.0001)                 3.317052945609759E+05,      /* J = 31 */
(PID.TID 0000.0001)                 3.294260824999061E+05,      /* J = 32 */
(PID.TID 0000.0001)                 3.262439364448300E+05,      /* J = 33 */
(PID.TID 0000.0001)                 3.221675784368968E+05,      /* J = 34 */
(PID.TID 0000.0001)                 3.172081814900618E+05,      /* J = 35 */
(PID.TID 0000.0001)                 3.113793389666330E+05,      /* J = 36 */
(PID.TID 0000.0001)                 3.046970273188090E+05,      /* J = 37 */
(PID.TID 0000.0001)                 2.971795622983349E+05,      /* J = 38 */
(PID.TID 0000.0001)                 2.888475487542992E+05,      /* J = 39 */
(PID.TID 0000.0001)                 2.797238241566748E+05,      /* J = 40 */
(PID.TID 0000.0001)                 2.698333960004017E+05,      /* J = 41 */
(PID.TID 0000.0001)                 2.592033732615808E+05,      /* J = 42 */
(PID.TID 0000.0001)                 2.478628920936556E+05,      /* J = 43 */
(PID.TID 0000.0001)                 2.358430359672399E+05,      /* J = 44 */
(PID.TID 0000.0001)                 2.231767504724866E+05,      /* J = 45 */
(PID.TID 0000.0001)                 2.098987530175138E+05,      /* J = 46 */
(PID.TID 0000.0001)                 1.960454376704035E+05,      /* J = 47 */
(PID.TID 0000.0001)                 1.816547754055899E+05,      /* J = 48 */
(PID.TID 0000.0001)                 1.667662100280583E+05,      /* J = 49 */
(PID.TID 0000.0001)                 1.514205500606167E+05,      /* J = 50 */
(PID.TID 0000.0001)                 1.356598568905725E+05,      /* J = 51 */
(PID.TID 0000.0001)                 1.195273294823923E+05,      /* J = 52 */
(PID.TID 0000.0001)                 1.030671859723435E+05,      /* J = 53 */
(PID.TID 0000.0001)                 8.632454246965688E+04,      /* J = 54 */
(PID.TID 0000.0001)                 6.934528939640634E+04,      /* J = 55 */
(PID.TID 0000.0001)                 5.217596570505216E+04       /* J = 56 */
(PID.TID 0000.0001)     ;
(PID.TID 0000.0001) dyU =  /* dyU(:,1,:,1) ( units: m ) */
(PID.TID 0000.0001)                 3.335324200561164E+05       /* I =  1 */
(PID.TID 0000.0001)     ;
(PID.TID 0000.0001) dyU =  /* dyU(1,:,1,:) ( units: m ) */
(PID.TID 0000.0001)    56 @  3.335324200561164E+05              /* J =  1: 56 */
(PID.TID 0000.0001)     ;
(PID.TID 0000.0001) rA  =  /* rA (:,1,:,1) ( units: m^2 ) */
(PID.TID 0000.0001)                 1.451858082901536E+10       /* I =  1 */
(PID.TID 0000.0001)     ;
(PID.TID 0000.0001) rA  =  /* rA (1,:,1,:) ( units: m^2 ) */
(PID.TID 0000.0001)                 1.451858082901536E+10,      /* J =  1 */
(PID.TID 0000.0001)                 2.027027037083401E+10,      /* J =  2 */
(PID.TID 0000.0001)                 2.596640051053460E+10,      /* J =  3 */
(PID.TID 0000.0001)                 3.159135855133891E+10,      /* J =  4 */
(PID.TID 0000.0001)                 3.712972687424187E+10,      /* J =  5 */
(PID.TID 0000.0001)                 4.256632519663855E+10,      /* J =  6 */
(PID.TID 0000.0001)                 4.788625218042016E+10,      /* J =  7 */
(PID.TID 0000.0001)                 5.307492627550761E+10,      /* J =  8 */
(PID.TID 0000.0001)                 5.811812568686684E+10,      /* J =  9 */
(PID.TID 0000.0001)                 6.300202735545998E+10,      /* J = 10 */
(PID.TID 0000.0001)                 6.771324484628893E+10,      /* J = 11 */
(PID.TID 0000.0001)                 7.223886503968413E+10,      /* J = 12 */
(PID.TID 0000.0001)                 7.656648352526761E+10,      /* J = 13 */
(PID.TID 0000.0001)                 8.068423860157887E+10,      /* J = 14 */
(PID.TID 0000.0001)                 8.458084378817659E+10,      /* J = 15 */
(PID.TID 0000.0001)                 8.824561876109258E+10,      /* J = 16 */
(PID.TID 0000.0001)                 9.166851862686266E+10,      /* J = 17 */
(PID.TID 0000.0001)                 9.484016145487706E+10,      /* J = 18 */
(PID.TID 0000.0001)                 9.775185399260217E+10,      /* J = 19 */
(PID.TID 0000.0001)                 1.003956154931817E+11,      /* J = 20 */
(PID.TID 0000.0001)                 1.027641995901083E+11,      /* J = 21 */
(PID.TID 0000.0001)                 1.048511141590102E+11,      /* J = 22 */
(PID.TID 0000.0001)                 1.066506391121138E+11,      /* J = 23 */
(PID.TID 0000.0001)                 1.081578420766062E+11,      /* J = 24 */
(PID.TID 0000.0001)                 1.093685919139261E+11,      /* J = 25 */
(PID.TID 0000.0001)                 1.102795700429274E+11,      /* J = 26 */
(PID.TID 0000.0001)                 1.108882795358801E+11,      /* J = 27 */
(PID.TID 0000.0001)     2 @  1.111930519623746E+11,             /* J = 28: 29 */
(PID.TID 0000.0001)                 1.108882795358801E+11,      /* J = 30 */
(PID.TID 0000.0001)                 1.102795700429274E+11,      /* J = 31 */
(PID.TID 0000.0001)                 1.093685919139261E+11,      /* J = 32 */
(PID.TID 0000.0001)                 1.081578420766062E+11,      /* J = 33 */
(PID.TID 0000.0001)                 1.066506391121138E+11,      /* J = 34 */
(PID.TID 0000.0001)                 1.048511141590102E+11,      /* J = 35 */
(PID.TID 0000.0001)                 1.027641995901083E+11,      /* J = 36 */
(PID.TID 0000.0001)                 1.003956154931817E+11,      /* J = 37 */
(PID.TID 0000.0001)                 9.775185399260217E+10,      /* J = 38 */
(PID.TID 0000.0001)                 9.484016145487706E+10,      /* J = 39 */
(PID.TID 0000.0001)                 9.166851862686266E+10,      /* J = 40 */
(PID.TID 0000.0001)                 8.824561876109258E+10,      /* J = 41 */
(PID.TID 0000.0001)                 8.458084378817659E+10,      /* J = 42 */
(PID.TID 0000.0001)                 8.068423860157887E+10,      /* J = 43 */
(PID.TID 0000.0001)                 7.656648352526761E+10,      /* J = 44 */
(PID.TID 0000.0001)                 7.223886503968413E+10,      /* J = 45 */
(PID.TID 0000.0001)                 6.771324484628893E+10,      /* J = 46 */
(PID.TID 0000.0001)                 6.300202735545998E+10,      /* J = 47 */
(PID.TID 0000.0001)                 5.811812568686684E+10,      /* J = 48 */
(PID.TID 0000.0001)                 5.307492627550761E+10,      /* J = 49 */
(PID.TID 0000.0001)                 4.788625218042016E+10,      /* J = 50 */
(PID.TID 0000.0001)                 4.256632519663855E+10,      /* J = 51 */
(PID.TID 0000.0001)                 3.712972687424187E+10,      /* J = 52 */
(PID.TID 0000.0001)                 3.159135855133891E+10,      /* J = 53 */
(PID.TID 0000.0001)                 2.596640051053460E+10,      /* J = 54 */
(PID.TID 0000.0001)                 2.027027037083401E+10,      /* J = 55 */
(PID.TID 0000.0001)                 1.451858082901536E+10       /* J = 56 */
(PID.TID 0000.0001)     ;
(PID.TID 0000.0001) rAw =  /* rAw(:,1,:,1) ( units: m^2 ) */
(PID.TID 0000.0001)                 1.451858082901536E+10       /* I =  1 */
(PID.TID 0000.0001)     ;
(PID.TID 0000.0001) rAw =  /* rAw(1,:,1,:) ( units: m^2 ) */
(PID.TID 0000.0001)                 1.451858082901536E+10,      /* J =  1 */
(PID.TID 0000.0001)                 2.027027037083401E+10,      /* J =  2 */
(PID.TID 0000.0001)                 2.596640051053460E+10,      /* J =  3 */
(PID.TID 0000.0001)                 3.159135855133891E+10,      /* J =  4 */
(PID.TID 0000.0001)                 3.712972687424187E+10,      /* J =  5 */
(PID.TID 0000.0001)                 4.256632519663855E+10,      /* J =  6 */
(PID.TID 0000.0001)                 4.788625218042016E+10,      /* J =  7 */
(PID.TID 0000.0001)                 5.307492627550761E+10,      /* J =  8 */
(PID.TID 0000.0001)                 5.811812568686684E+10,      /* J =  9 */
(PID.TID 0000.0001)                 6.300202735545998E+10,      /* J = 10 */
(PID.TID 0000.0001)                 6.771324484628893E+10,      /* J = 11 */
(PID.TID 0000.0001)                 7.223886503968413E+10,      /* J = 12 */
(PID.TID 0000.0001)                 7.656648352526761E+10,      /* J = 13 */
(PID.TID 0000.0001)                 8.068423860157887E+10,      /* J = 14 */
(PID.TID 0000.0001)                 8.458084378817659E+10,      /* J = 15 */
(PID.TID 0000.0001)                 8.824561876109258E+10,      /* J = 16 */
(PID.TID 0000.0001)                 9.166851862686266E+10,      /* J = 17 */
(PID.TID 0000.0001)                 9.484016145487706E+10,      /* J = 18 */
(PID.TID 0000.0001)                 9.775185399260217E+10,      /* J = 19 */
(PID.TID 0000.0001)                 1.003956154931817E+11,      /* J = 20 */
(PID.TID 0000.0001)                 1.027641995901083E+11,      /* J = 21 */
(PID.TID 0000.0001)                 1.048511141590102E+11,      /* J = 22 */
(PID.TID 0000.0001)                 1.066506391121138E+11,      /* J = 23 */
(PID.TID 0000.0001)                 1.081578420766062E+11,      /* J = 24 */
(PID.TID 0000.0001)                 1.093685919139261E+11,      /* J = 25 */
(PID.TID 0000.0001)                 1.102795700429274E+11,      /* J = 26 */
(PID.TID 0000.0001)                 1.108882795358801E+11,      /* J = 27 */
(PID.TID 0000.0001)     2 @  1.111930519623746E+11,             /* J = 28: 29 */
(PID.TID 0000.0001)                 1.108882795358801E+11,      /* J = 30 */
(PID.TID 0000.0001)                 1.102795700429274E+11,      /* J = 31 */
(PID.TID 0000.0001)                 1.093685919139261E+11,      /* J = 32 */
(PID.TID 0000.0001)                 1.081578420766062E+11,      /* J = 33 */
(PID.TID 0000.0001)                 1.066506391121138E+11,      /* J = 34 */
(PID.TID 0000.0001)                 1.048511141590102E+11,      /* J = 35 */
(PID.TID 0000.0001)                 1.027641995901083E+11,      /* J = 36 */
(PID.TID 0000.0001)                 1.003956154931817E+11,      /* J = 37 */
(PID.TID 0000.0001)                 9.775185399260217E+10,      /* J = 38 */
(PID.TID 0000.0001)                 9.484016145487706E+10,      /* J = 39 */
(PID.TID 0000.0001)                 9.166851862686266E+10,      /* J = 40 */
(PID.TID 0000.0001)                 8.824561876109258E+10,      /* J = 41 */
(PID.TID 0000.0001)                 8.458084378817659E+10,      /* J = 42 */
(PID.TID 0000.0001)                 8.068423860157887E+10,      /* J = 43 */
(PID.TID 0000.0001)                 7.656648352526761E+10,      /* J = 44 */
(PID.TID 0000.0001)                 7.223886503968413E+10,      /* J = 45 */
(PID.TID 0000.0001)                 6.771324484628893E+10,      /* J = 46 */
(PID.TID 0000.0001)                 6.300202735545998E+10,      /* J = 47 */
(PID.TID 0000.0001)                 5.811812568686684E+10,      /* J = 48 */
(PID.TID 0000.0001)                 5.307492627550761E+10,      /* J = 49 */
(PID.TID 0000.0001)                 4.788625218042016E+10,      /* J = 50 */
(PID.TID 0000.0001)                 4.256632519663855E+10,      /* J = 51 */
(PID.TID 0000.0001)                 3.712972687424187E+10,      /* J = 52 */
(PID.TID 0000.0001)                 3.159135855133891E+10,      /* J = 53 */
(PID.TID 0000.0001)                 2.596640051053460E+10,      /* J = 54 */
(PID.TID 0000.0001)                 2.027027037083401E+10,      /* J = 55 */
(PID.TID 0000.0001)                 1.451858082901536E+10       /* J = 56 */
(PID.TID 0000.0001)     ;
(PID.TID 0000.0001) rAs =  /* rAs(:,1,:,1) ( units: m^2 ) */
(PID.TID 0000.0001)                 1.162682306954695E+10       /* I =  1 */
(PID.TID 0000.0001)     ;
(PID.TID 0000.0001) rAs =  /* rAs(1,:,1,:) ( units: m^2 ) */
(PID.TID 0000.0001)                 1.162682306954695E+10,      /* J =  1 */
(PID.TID 0000.0001)                 1.740038827840316E+10,      /* J =  2 */
(PID.TID 0000.0001)                 2.312626023247488E+10,      /* J =  3 */
(PID.TID 0000.0001)                 2.878874471473547E+10,      /* J =  4 */
(PID.TID 0000.0001)                 3.437232124881438E+10,      /* J =  5 */
(PID.TID 0000.0001)                 3.986168563954120E+10,      /* J =  6 */
(PID.TID 0000.0001)                 4.524179192068169E+10,      /* J =  7 */
(PID.TID 0000.0001)                 5.049789359488558E+10,      /* J =  8 */
(PID.TID 0000.0001)                 5.561558405281213E+10,      /* J =  9 */
(PID.TID 0000.0001)                 6.058083606064116E+10,      /* J = 10 */
(PID.TID 0000.0001)                 6.538004020775079E+10,      /* J = 11 */
(PID.TID 0000.0001)                 7.000004220916154E+10,      /* J = 12 */
(PID.TID 0000.0001)                 7.442817896052029E+10,      /* J = 13 */
(PID.TID 0000.0001)                 7.865231324678772E+10,      /* J = 14 */
(PID.TID 0000.0001)                 8.266086700950050E+10,      /* J = 15 */
(PID.TID 0000.0001)                 8.644285308142711E+10,      /* J = 16 */
(PID.TID 0000.0001)                 8.998790530162651E+10,      /* J = 17 */
(PID.TID 0000.0001)                 9.328630692837677E+10,      /* J = 18 */
(PID.TID 0000.0001)                 9.632901727208771E+10,      /* J = 19 */
(PID.TID 0000.0001)                 9.910769647520410E+10,      /* J = 20 */
(PID.TID 0000.0001)                 1.016147283711733E+11,      /* J = 21 */
(PID.TID 0000.0001)                 1.038432413598305E+11,      /* J = 22 */
(PID.TID 0000.0001)                 1.057871272419753E+11,      /* J = 23 */
(PID.TID 0000.0001)                 1.074410579615233E+11,      /* J = 24 */
(PID.TID 0000.0001)                 1.088005002093347E+11,      /* J = 25 */
(PID.TID 0000.0001)                 1.098617278487027E+11,      /* J = 26 */
(PID.TID 0000.0001)                 1.106218321284322E+11,      /* J = 27 */
(PID.TID 0000.0001)                 1.110787296555271E+11,      /* J = 28 */
(PID.TID 0000.0001)                 1.112311681056240E+11,      /* J = 29 */
(PID.TID 0000.0001)                 1.110787296555271E+11,      /* J = 30 */
(PID.TID 0000.0001)                 1.106218321284322E+11,      /* J = 31 */
(PID.TID 0000.0001)                 1.098617278487027E+11,      /* J = 32 */
(PID.TID 0000.0001)                 1.088005002093347E+11,      /* J = 33 */
(PID.TID 0000.0001)                 1.074410579615233E+11,      /* J = 34 */
(PID.TID 0000.0001)                 1.057871272419753E+11,      /* J = 35 */
(PID.TID 0000.0001)                 1.038432413598305E+11,      /* J = 36 */
(PID.TID 0000.0001)                 1.016147283711733E+11,      /* J = 37 */
(PID.TID 0000.0001)                 9.910769647520410E+10,      /* J = 38 */
(PID.TID 0000.0001)                 9.632901727208771E+10,      /* J = 39 */
(PID.TID 0000.0001)                 9.328630692837677E+10,      /* J = 40 */
(PID.TID 0000.0001)                 8.998790530162651E+10,      /* J = 41 */
(PID.TID 0000.0001)                 8.644285308142711E+10,      /* J = 42 */
(PID.TID 0000.0001)                 8.266086700950050E+10,      /* J = 43 */
(PID.TID 0000.0001)                 7.865231324678772E+10,      /* J = 44 */
(PID.TID 0000.0001)                 7.442817896052029E+10,      /* J = 45 */
(PID.TID 0000.0001)                 7.000004220916154E+10,      /* J = 46 */
(PID.TID 0000.0001)                 6.538004020775079E+10,      /* J = 47 */
(PID.TID 0000.0001)                 6.058083606064116E+10,      /* J = 48 */
(PID.TID 0000.0001)                 5.561558405281213E+10,      /* J = 49 */
(PID.TID 0000.0001)                 5.049789359488558E+10,      /* J = 50 */
(PID.TID 0000.0001)                 4.524179192068169E+10,      /* J = 51 */
(PID.TID 0000.0001)                 3.986168563954120E+10,      /* J = 52 */
(PID.TID 0000.0001)                 3.437232124881438E+10,      /* J = 53 */
(PID.TID 0000.0001)                 2.878874471473547E+10,      /* J = 54 */
(PID.TID 0000.0001)                 2.312626023247488E+10,      /* J = 55 */
(PID.TID 0000.0001)                 1.740038827840316E+10       /* J = 56 */
(PID.TID 0000.0001)     ;
(PID.TID 0000.0001) globalArea = /* Integrated horizontal Area (m^2) */
(PID.TID 0000.0001)                 4.196888291048803E+12
(PID.TID 0000.0001)     ;
(PID.TID 0000.0001) // =======================================================
(PID.TID 0000.0001) // End of Model config. summary
(PID.TID 0000.0001) // =======================================================
(PID.TID 0000.0001) 
(PID.TID 0000.0001) == Packages configuration : Check & print summary ==
(PID.TID 0000.0001) 
(PID.TID 0000.0001) GAD_CHECK: #define ALLOW_GENERIC_ADVDIFF
(PID.TID 0000.0001) GMREDI_CHECK: #define GMREDI
(PID.TID 0000.0001) GM_AdvForm =     /* if FALSE => use SkewFlux Form */
(PID.TID 0000.0001)                   T
(PID.TID 0000.0001)     ;
(PID.TID 0000.0001) GM_InMomAsStress = /* if TRUE => apply as Eddy Stress */
(PID.TID 0000.0001)                   F
(PID.TID 0000.0001)     ;
(PID.TID 0000.0001) GM_AdvSeparate = /* Calc Bolus & Euler Adv. separately */
(PID.TID 0000.0001)                   F
(PID.TID 0000.0001)     ;
(PID.TID 0000.0001) GM_ExtraDiag =   /* Tensor Extra Diag (line 1&2) non 0 */
(PID.TID 0000.0001)                   T
(PID.TID 0000.0001)     ;
(PID.TID 0000.0001) GM_isopycK =    /* Background Isopyc. Diffusivity [m^2/s] */
(PID.TID 0000.0001)                 1.000000000000000E+01
(PID.TID 0000.0001)     ;
(PID.TID 0000.0001) GM_skewflx*K =  /* Background GM_SkewFlx Diffusivity [m^2/s] */
(PID.TID 0000.0001)                 0.000000000000000E+00
(PID.TID 0000.0001)     ;
(PID.TID 0000.0001) GM_advec*K =    /* Backg. GM-Advec(=Bolus) Diffusivity [m^2/s]*/
(PID.TID 0000.0001)                 1.000000000000000E+01
(PID.TID 0000.0001)     ;
(PID.TID 0000.0001) GM_Kmin_horiz = /* Minimum Horizontal Diffusivity [m^2/s] */
(PID.TID 0000.0001)                 1.000000000000000E+01
(PID.TID 0000.0001)     ;
(PID.TID 0000.0001) GM_Visbeck_alpha = /* Visbeck alpha coeff. [-] */
(PID.TID 0000.0001)                 1.000000000000000E-02
(PID.TID 0000.0001)     ;
(PID.TID 0000.0001) GM_Small_Number =  /* epsilon used in slope calc */
(PID.TID 0000.0001)                 1.000000000000000E-18
(PID.TID 0000.0001)     ;
(PID.TID 0000.0001) GM_slopeSqCutoff = /* Slope^2 cut-off value */
(PID.TID 0000.0001)                 1.000000000000000E+48
(PID.TID 0000.0001)     ;
(PID.TID 0000.0001) GM_taper_scheme =  /* Type of Tapering/Clipping scheme */
(PID.TID 0000.0001)               'linear                                  '
(PID.TID 0000.0001)     ;
(PID.TID 0000.0001) GM_maxSlope =  /* Maximum Slope (Tapering/Clipping) */
(PID.TID 0000.0001)                 1.000000000000000E-02
(PID.TID 0000.0001)     ;
(PID.TID 0000.0001) GM_facTrL2dz = /* Minimum Trans.Layer Thick. (factor of dz) */
(PID.TID 0000.0001)                 1.000000000000000E+00
(PID.TID 0000.0001)     ;
(PID.TID 0000.0001) GM_facTrL2ML = /* Max.Trans.Layer Thick. (factor of MxL Depth)*/
(PID.TID 0000.0001)                 5.000000000000000E+00
(PID.TID 0000.0001)     ;
(PID.TID 0000.0001) GM_maxTransLay = /* Maximum Transition Layer Thickness [m] */
(PID.TID 0000.0001)                 5.000000000000000E+02
(PID.TID 0000.0001)     ;
(PID.TID 0000.0001) // =======================================================
(PID.TID 0000.0001) // CONFIG_CHECK : Normal End
(PID.TID 0000.0001) // =======================================================
(PID.TID 0000.0001) 
(PID.TID 0000.0001)  MDS_READ_META: opening file: pickup.0000036000.meta
(PID.TID 0000.0001)  nRecords =   0 ; filePrec =  64 ; fileIter =         0
(PID.TID 0000.0001)     nDims =   0 , dims:
(PID.TID 0000.0001)     nFlds =   0 , nFl3D =   0 , fields:
(PID.TID 0000.0001)   nTimRec =   0 , timeList:
(PID.TID 0000.0001)  MDS_READ_FIELD: opening global file: pickup.0000036000
(PID.TID 0000.0001)  MDS_READ_FIELD: opening global file: pickup.0000036000
(PID.TID 0000.0001)  MDS_READ_FIELD: opening global file: pickup.0000036000
(PID.TID 0000.0001)  MDS_READ_FIELD: opening global file: pickup.0000036000
(PID.TID 0000.0001)  MDS_READ_FIELD: opening global file: pickup.0000036000
(PID.TID 0000.0001)  MDS_READ_FIELD: opening global file: pickup.0000036000
(PID.TID 0000.0001)  MDS_READ_FIELD: opening global file: pickup.0000036000
(PID.TID 0000.0001)  MDS_READ_FIELD: opening global file: pickup.0000036000
(PID.TID 0000.0001)  MDS_READ_FIELD: opening global file: pickup.0000036000
(PID.TID 0000.0001)  MDS_READ_FIELD: opening global file: pickup.0000036000
(PID.TID 0000.0001)  MDS_READ_FIELD: opening global file: pickup.0000036000
(PID.TID 0000.0001)  MDS_READ_FIELD: opening global file: pickup.0000036000
(PID.TID 0000.0001)  MDS_READ_FIELD: opening global file: pickup.0000036000
(PID.TID 0000.0001) READ_MFLDS_CHECK: - normal end ; reset MFLDS file-name: pickup.0000036000
(PID.TID 0000.0001)  MDS_READ_FIELD: opening global file: taux_sl.bin
(PID.TID 0000.0001)  MDS_READ_FIELD: opening global file: sst_sl.bin
(PID.TID 0000.0001)  write diagnostics summary to file ioUnit:      6
Iter.Nb:     36000 ; Time(s):  3.1104000000000E+09
------------------------------------------------------------------------
2D/3D diagnostics: Number of lists:     4
------------------------------------------------------------------------
listId=    1 ; file name: surfDiag
 nFlds, nActive,       freq     &     phase        , nLev               
    6  |    6  |   -864000.000000    432000.000000 |   1
 levels:   1
 diag# | name   |   ipt  |  iMate | kLev|   count |   mate.C|           
    23 |ETAN    |      1 |      0 |   1 |       0 |
    24 |ETANSQ  |      2 |      0 |   1 |       0 |
    25 |DETADT2 |      3 |      0 |   1 |       0 |
    69 |PHIBOT  |      4 |      0 |   1 |       0 |
    70 |PHIBOTSQ|      5 |      0 |   1 |       0 |
   171 |GM_VisbK|      6 |      0 |   1 |       0 |
------------------------------------------------------------------------
listId=    2 ; file name: dynDiag
 nFlds, nActive,       freq     &     phase        , nLev               
   12  |   12  |   1728000.000000         0.000000 |  15
 levels:   1   2   3   4   5   6   7   8   9  10  11  12  13  14  15
 diag# | name   |   ipt  |  iMate | kLev|   count |   mate.C|           
    30 |UVEL    |      7 |     22 |  15 |       0 |       0 |
    31 |VVEL    |     22 |      7 |  15 |       0 |       0 |
    32 |WVEL    |     37 |      0 |  15 |       0 |
    67 |PHIHYD  |     52 |      0 |  15 |       0 |
    46 |VVELMASS|     67 |      0 |  15 |       0 |
    26 |THETA   |     82 |      0 |  15 |       0 |
    49 |VTHMASS |     97 |      0 |  15 |       0 |
    50 |WTHMASS |    112 |      0 |  15 |       0 |
    33 |THETASQ |    127 |      0 |  15 |       0 |
    36 |UVELSQ  |    142 |      0 |  15 |       0 |
    42 |UV_VEL_Z|    157 |    157 |  15 |       0 |       0 |
    43 |WU_VEL  |    172 |      0 |  15 |       0 |
------------------------------------------------------------------------
listId=    3 ; file name: oceDiag
 nFlds, nActive,       freq     &     phase        , nLev               
    7  |    7  |    864000.000000         0.000000 |  12
 levels:   2   3   4   5   6   7   8   9  10  11  12  13
 diag# | name   |   ipt  |  iMate | kLev|   count |   mate.C|           
    72 |DRHODR  |    187 |      0 |  15 |       0 |
    62 |RHOAnoma|    202 |      0 |  15 |       0 |
   183 |GM_PsiY |    217 |      0 |  15 |       0 |
   176 |GM_Kvy  |    232 |      0 |  15 |       0 |
   178 |GM_Kvz  |    247 |      0 |  15 |       0 |
   180 |GM_Kwy  |    262 |      0 |  15 |       0 |
   181 |GM_Kwz  |    277 |      0 |  15 |       0 |
------------------------------------------------------------------------
listId=    4 ; file name: flxDiag
 nFlds, nActive,       freq     &     phase        , nLev               
    5  |    5  |   1728000.000000         0.000000 |  15
 levels:   1   2   3   4   5   6   7   8   9  10  11  12  13  14  15
 diag# | name   |   ipt  |  iMate | kLev|   count |   mate.C|           
    97 |ADVy_TH |    292 |      0 |  15 |       0 |
    95 |ADVr_TH |    307 |      0 |  15 |       0 |
   100 |DFyE_TH |    322 |      0 |  15 |       0 |
    98 |DFrE_TH |    337 |      0 |  15 |       0 |
   101 |DFrI_TH |    352 |      0 |  15 |       0 |
------------------------------------------------------------------------
Global & Regional Statistics diagnostics: Number of lists:     1
------------------------------------------------------------------------
listId=   1 ; file name: dynStDiag
 nFlds, nActive,       freq     &     phase        |                    
    5  |    5  |   -864000.000000         0.000000 |
 Regions:   0
 diag# | name   |   ipt  |  iMate |    Volume   |   mate-Vol. |         
    23 |ETAN    |      1 |      0 | 0.00000E+00 |
    30 |UVEL    |      2 |      0 | 0.00000E+00 |
    31 |VVEL    |     17 |      0 | 0.00000E+00 |
    32 |WVEL    |     32 |      0 | 0.00000E+00 |
    26 |THETA   |     47 |      0 | 0.00000E+00 |
------------------------------------------------------------------------
(PID.TID 0000.0001)  MDS_READ_FIELD: opening global file: pickup_cd.0000036000
(PID.TID 0000.0001)  MDS_READ_FIELD: opening global file: pickup_cd.0000036000
(PID.TID 0000.0001)  MDS_READ_FIELD: opening global file: pickup_cd.0000036000
(PID.TID 0000.0001)  MDS_READ_FIELD: opening global file: pickup_cd.0000036000
(PID.TID 0000.0001)  MDS_READ_FIELD: opening global file: pickup_cd.0000036000
(PID.TID 0000.0001) // =======================================================
(PID.TID 0000.0001) // Model current state
(PID.TID 0000.0001) // =======================================================
(PID.TID 0000.0001) 
(PID.TID 0000.0001) // =======================================================
(PID.TID 0000.0001) // Begin MONITOR dynamic field statistics
(PID.TID 0000.0001) // =======================================================
(PID.TID 0000.0001) %MON time_tsnumber                =                 36000
(PID.TID 0000.0001) %MON time_secondsf                =   3.1104000000000E+09
(PID.TID 0000.0001) %MON dynstat_eta_max              =   1.6201005177854E+00
(PID.TID 0000.0001) %MON dynstat_eta_min              =  -3.9377441396023E+00
(PID.TID 0000.0001) %MON dynstat_eta_mean             =  -2.2803352951785E-16
(PID.TID 0000.0001) %MON dynstat_eta_sd               =   1.6563991723224E+00
(PID.TID 0000.0001) %MON dynstat_eta_del2             =   1.3977066220033E-02
(PID.TID 0000.0001) %MON dynstat_uvel_max             =   1.4272657430544E-01
(PID.TID 0000.0001) %MON dynstat_uvel_min             =  -3.8630916679110E-01
(PID.TID 0000.0001) %MON dynstat_uvel_mean            =   1.2659893360806E-02
(PID.TID 0000.0001) %MON dynstat_uvel_sd              =   3.8710511996223E-02
(PID.TID 0000.0001) %MON dynstat_uvel_del2            =   6.1842820168116E-04
(PID.TID 0000.0001) %MON dynstat_vvel_max             =   2.2999750655636E-02
(PID.TID 0000.0001) %MON dynstat_vvel_min             =  -2.2999750655604E-02
(PID.TID 0000.0001) %MON dynstat_vvel_mean            =   1.0386467147047E-15
(PID.TID 0000.0001) %MON dynstat_vvel_sd              =   1.5486266626369E-03
(PID.TID 0000.0001) %MON dynstat_vvel_del2            =   7.2795151559418E-05
(PID.TID 0000.0001) %MON dynstat_wvel_max             =   1.3691712526229E-06
(PID.TID 0000.0001) %MON dynstat_wvel_min             =  -8.1261601801594E-07
(PID.TID 0000.0001) %MON dynstat_wvel_mean            =   1.1896092425619E-24
(PID.TID 0000.0001) %MON dynstat_wvel_sd              =   2.5358259198888E-07
(PID.TID 0000.0001) %MON dynstat_wvel_del2            =   3.6741344623394E-08
(PID.TID 0000.0001) %MON dynstat_theta_max            =   2.6657021468384E+01
(PID.TID 0000.0001) %MON dynstat_theta_min            =  -9.3075890930299E-01
(PID.TID 0000.0001) %MON dynstat_theta_mean           =   2.2239378147708E+00
(PID.TID 0000.0001) %MON dynstat_theta_sd             =   3.9264791989428E+00
(PID.TID 0000.0001) %MON dynstat_theta_del2           =   4.1714222085658E-02
(PID.TID 0000.0001) %MON dynstat_salt_max             =   3.4700000000000E+01
(PID.TID 0000.0001) %MON dynstat_salt_min             =   3.4700000000000E+01
(PID.TID 0000.0001) %MON dynstat_salt_mean            =   3.4700000000000E+01
(PID.TID 0000.0001) %MON dynstat_salt_sd              =   4.2632564145606E-14
(PID.TID 0000.0001) %MON dynstat_salt_del2            =   0.0000000000000E+00
(PID.TID 0000.0001) %MON advcfl_uvel_max              =   1.0010587105295E-01
(PID.TID 0000.0001) %MON advcfl_vvel_max              =   5.9579769076500E-03
(PID.TID 0000.0001) %MON advcfl_wvel_max              =   1.9716066037770E-03
(PID.TID 0000.0001) %MON advcfl_W_hf_max              =   2.3659279245324E-03
(PID.TID 0000.0001) %MON pe_b_mean                    =   2.5880083768528E-03
(PID.TID 0000.0001) %MON ke_max                       =   7.4646746291426E-02
(PID.TID 0000.0001) %MON ke_mean                      =   8.3067694548141E-04
(PID.TID 0000.0001) %MON ke_vol                       =   2.1823819113454E+16
(PID.TID 0000.0001) %MON vort_r_min                   =  -1.7696079550502E-07
(PID.TID 0000.0001) %MON vort_r_max                   =   1.7696079550484E-07
(PID.TID 0000.0001) %MON vort_a_mean                  =  -3.0908579273203E-21
(PID.TID 0000.0001) %MON vort_a_sd                    =   8.3492783019949E-05
(PID.TID 0000.0001) %MON vort_p_mean                  =  -3.1101266186580E-21
(PID.TID 0000.0001) %MON vort_p_sd                    =   8.6788005162860E-05
(PID.TID 0000.0001) %MON surfExpan_theta_mean         =   8.7743901385969E-09
(PID.TID 0000.0001) %MON surfExpan_salt_mean          =  -6.3027850951607E-22
(PID.TID 0000.0001) // =======================================================
(PID.TID 0000.0001) // End MONITOR dynamic field statistics
(PID.TID 0000.0001) // =======================================================
 cg2d: Sum(rhs),rhsMax =   1.59872115546023E-14  1.48274215209863E+00
(PID.TID 0000.0001)                    cg2d_init_res =    2.37439073957276E-03
(PID.TID 0000.0001)                       cg2d_iters =    27
(PID.TID 0000.0001)                         cg2d_res =    4.66906690277211E-18
(PID.TID 0000.0001) // =======================================================
(PID.TID 0000.0001) // Begin MONITOR dynamic field statistics
(PID.TID 0000.0001) // =======================================================
(PID.TID 0000.0001) %MON time_tsnumber                =                 36001
(PID.TID 0000.0001) %MON time_secondsf                =   3.1104864000000E+09
(PID.TID 0000.0001) %MON dynstat_eta_max              =   1.6197579170602E+00
(PID.TID 0000.0001) %MON dynstat_eta_min              =  -3.9378560706557E+00
(PID.TID 0000.0001) %MON dynstat_eta_mean             =  -2.7689785727168E-16
(PID.TID 0000.0001) %MON dynstat_eta_sd               =   1.6561523455943E+00
(PID.TID 0000.0001) %MON dynstat_eta_del2             =   1.3976252026900E-02
(PID.TID 0000.0001) %MON dynstat_uvel_max             =   1.4272482385961E-01
(PID.TID 0000.0001) %MON dynstat_uvel_min             =  -3.8630878498752E-01
(PID.TID 0000.0001) %MON dynstat_uvel_mean            =   1.2663284257623E-02
(PID.TID 0000.0001) %MON dynstat_uvel_sd              =   3.8711052471996E-02
(PID.TID 0000.0001) %MON dynstat_uvel_del2            =   6.1844354992212E-04
(PID.TID 0000.0001) %MON dynstat_vvel_max             =   2.3036901787875E-02
(PID.TID 0000.0001) %MON dynstat_vvel_min             =  -2.3036901787843E-02
(PID.TID 0000.0001) %MON dynstat_vvel_mean            =   9.3903459537301E-16
(PID.TID 0000.0001) %MON dynstat_vvel_sd              =   1.5499295000507E-03
(PID.TID 0000.0001) %MON dynstat_vvel_del2            =   7.2778042570584E-05
(PID.TID 0000.0001) %MON dynstat_wvel_max             =   1.4036135036204E-06
(PID.TID 0000.0001) %MON dynstat_wvel_min             =  -8.7718031890300E-07
(PID.TID 0000.0001) %MON dynstat_wvel_mean            =   4.8041911718846E-24
(PID.TID 0000.0001) %MON dynstat_wvel_sd              =   2.5756322299690E-07
(PID.TID 0000.0001) %MON dynstat_wvel_del2            =   3.6543341174290E-08
(PID.TID 0000.0001) %MON dynstat_theta_max            =   2.6657632235490E+01
(PID.TID 0000.0001) %MON dynstat_theta_min            =  -9.3076620677557E-01
(PID.TID 0000.0001) %MON dynstat_theta_mean           =   2.2239435285018E+00
(PID.TID 0000.0001) %MON dynstat_theta_sd             =   3.9265270814652E+00
(PID.TID 0000.0001) %MON dynstat_theta_del2           =   4.1716828166740E-02
(PID.TID 0000.0001) %MON dynstat_salt_max             =   3.4700000000000E+01
(PID.TID 0000.0001) %MON dynstat_salt_min             =   3.4700000000000E+01
(PID.TID 0000.0001) %MON dynstat_salt_mean            =   3.4700000000000E+01
(PID.TID 0000.0001) %MON dynstat_salt_sd              =   4.2632564145606E-14
(PID.TID 0000.0001) %MON dynstat_salt_del2            =   0.0000000000000E+00
(PID.TID 0000.0001) %MON advcfl_uvel_max              =   1.0010577211463E-01
(PID.TID 0000.0001) %MON advcfl_vvel_max              =   5.9676007331987E-03
(PID.TID 0000.0001) %MON advcfl_wvel_max              =   2.0212034452133E-03
(PID.TID 0000.0001) %MON advcfl_W_hf_max              =   2.4254441342560E-03
(PID.TID 0000.0001) %MON pe_b_mean                    =   2.5872371351662E-03
(PID.TID 0000.0001) %MON ke_max                       =   7.4646631384220E-02
(PID.TID 0000.0001) %MON ke_mean                      =   8.3074281878431E-04
(PID.TID 0000.0001) %MON ke_vol                       =   2.1823819113454E+16
(PID.TID 0000.0001) %MON vort_r_min                   =  -1.7696384887812E-07
(PID.TID 0000.0001) %MON vort_r_max                   =   1.7696384887794E-07
(PID.TID 0000.0001) %MON vort_a_mean                  =   2.5249261941490E-21
(PID.TID 0000.0001) %MON vort_a_sd                    =   8.3492783752937E-05
(PID.TID 0000.0001) %MON vort_p_mean                  =   2.5406668152418E-21
(PID.TID 0000.0001) %MON vort_p_sd                    =   8.6788005755252E-05
(PID.TID 0000.0001) %MON surfExpan_theta_mean         =  -8.6247673751231E-07
(PID.TID 0000.0001) %MON surfExpan_salt_mean          =   1.8723477201139E-22
(PID.TID 0000.0001) // =======================================================
(PID.TID 0000.0001) // End MONITOR dynamic field statistics
(PID.TID 0000.0001) // =======================================================
 Compute Stats, Diag. #     23  ETAN      vol(   0 ): 4.197E+12  Parms: SM      M1      
 Compute Stats, Diag. #     30  UVEL      vol(   0 ): 2.182E+16  Parms: UU      MR      
 Compute Stats, Diag. #     31  VVEL      vol(   0 ): 2.173E+16  Parms: VV      MR      
 Compute Stats, Diag. #     32  WVEL      vol(   0 ): 2.035E+16  Parms: WM      LR      
 Compute Stats, Diag. #     26  THETA     vol(   0 ): 2.182E+16  Parms: SM      MR      
 cg2d: Sum(rhs),rhsMax =   8.43769498715119E-15  1.48218685559581E+00
(PID.TID 0000.0001)                    cg2d_init_res =    3.74179139689798E-03
(PID.TID 0000.0001)                       cg2d_iters =    27
(PID.TID 0000.0001)                         cg2d_res =    8.41799241648173E-18
(PID.TID 0000.0001) // =======================================================
(PID.TID 0000.0001) // Begin MONITOR dynamic field statistics
(PID.TID 0000.0001) // =======================================================
(PID.TID 0000.0001) %MON time_tsnumber                =                 36002
(PID.TID 0000.0001) %MON time_secondsf                =   3.1105728000000E+09
(PID.TID 0000.0001) %MON dynstat_eta_max              =   1.6191796792709E+00
(PID.TID 0000.0001) %MON dynstat_eta_min              =  -3.9378599755293E+00
(PID.TID 0000.0001) %MON dynstat_eta_mean             =  -3.3739654877641E-16
(PID.TID 0000.0001) %MON dynstat_eta_sd               =   1.6556885799792E+00
(PID.TID 0000.0001) %MON dynstat_eta_del2             =   1.3971344268145E-02
(PID.TID 0000.0001) %MON dynstat_uvel_max             =   1.4272580116800E-01
(PID.TID 0000.0001) %MON dynstat_uvel_min             =  -3.8630829686665E-01
(PID.TID 0000.0001) %MON dynstat_uvel_mean            =   1.2669708976358E-02
(PID.TID 0000.0001) %MON dynstat_uvel_sd              =   3.8712202199158E-02
(PID.TID 0000.0001) %MON dynstat_uvel_del2            =   6.1846323701172E-04
(PID.TID 0000.0001) %MON dynstat_vvel_max             =   2.3077173772461E-02
(PID.TID 0000.0001) %MON dynstat_vvel_min             =  -2.3077173772429E-02
(PID.TID 0000.0001) %MON dynstat_vvel_mean            =   7.6231321813272E-16
(PID.TID 0000.0001) %MON dynstat_vvel_sd              =   1.5520754747811E-03
(PID.TID 0000.0001) %MON dynstat_vvel_del2            =   7.2773063873577E-05
(PID.TID 0000.0001) %MON dynstat_wvel_max             =   1.3263911584861E-06
(PID.TID 0000.0001) %MON dynstat_wvel_min             =  -9.3187179666614E-07
(PID.TID 0000.0001) %MON dynstat_wvel_mean            =   6.1310630193574E-24
(PID.TID 0000.0001) %MON dynstat_wvel_sd              =   2.7260996982166E-07
(PID.TID 0000.0001) %MON dynstat_wvel_del2            =   3.6733691245628E-08
(PID.TID 0000.0001) %MON dynstat_theta_max            =   2.6658581049678E+01
(PID.TID 0000.0001) %MON dynstat_theta_min            =  -9.3076395191233E-01
(PID.TID 0000.0001) %MON dynstat_theta_mean           =   2.2239621032816E+00
(PID.TID 0000.0001) %MON dynstat_theta_sd             =   3.9266175413569E+00
(PID.TID 0000.0001) %MON dynstat_theta_del2           =   4.1718317775764E-02
(PID.TID 0000.0001) %MON dynstat_salt_max             =   3.4700000000000E+01
(PID.TID 0000.0001) %MON dynstat_salt_min             =   3.4700000000000E+01
(PID.TID 0000.0001) %MON dynstat_salt_mean            =   3.4700000000000E+01
(PID.TID 0000.0001) %MON dynstat_salt_sd              =   4.2632564145606E-14
(PID.TID 0000.0001) %MON dynstat_salt_del2            =   0.0000000000000E+00
(PID.TID 0000.0001) %MON advcfl_uvel_max              =   1.0010564562587E-01
(PID.TID 0000.0001) %MON advcfl_vvel_max              =   5.9780330008255E-03
(PID.TID 0000.0001) %MON advcfl_wvel_max              =   1.9100032682200E-03
(PID.TID 0000.0001) %MON advcfl_W_hf_max              =   2.2920039218641E-03
(PID.TID 0000.0001) %MON pe_b_mean                    =   2.5857883510289E-03
(PID.TID 0000.0001) %MON ke_max                       =   7.4646504733238E-02
(PID.TID 0000.0001) %MON ke_mean                      =   8.3087203350365E-04
(PID.TID 0000.0001) %MON ke_vol                       =   2.1823819113454E+16
(PID.TID 0000.0001) %MON vort_r_min                   =  -1.7696878652725E-07
(PID.TID 0000.0001) %MON vort_r_max                   =   1.7696878652707E-07
(PID.TID 0000.0001) %MON vort_a_mean                  =  -1.5780788713431E-21
(PID.TID 0000.0001) %MON vort_a_sd                    =   8.3492785121136E-05
(PID.TID 0000.0001) %MON vort_p_mean                  =  -1.5879167595261E-21
(PID.TID 0000.0001) %MON vort_p_sd                    =   8.6788006978843E-05
(PID.TID 0000.0001) %MON surfExpan_theta_mean         =  -1.6338284698495E-06
(PID.TID 0000.0001) %MON surfExpan_salt_mean          =   2.7302362081928E-22
(PID.TID 0000.0001) // =======================================================
(PID.TID 0000.0001) // End MONITOR dynamic field statistics
(PID.TID 0000.0001) // =======================================================
 cg2d: Sum(rhs),rhsMax =   1.16573417585641E-14  1.48153154131692E+00
(PID.TID 0000.0001)                    cg2d_init_res =    4.68935419973516E-03
(PID.TID 0000.0001)                       cg2d_iters =    27
(PID.TID 0000.0001)                         cg2d_res =    2.34290788555582E-17
(PID.TID 0000.0001) // =======================================================
(PID.TID 0000.0001) // Begin MONITOR dynamic field statistics
(PID.TID 0000.0001) // =======================================================
(PID.TID 0000.0001) %MON time_tsnumber                =                 36003
(PID.TID 0000.0001) %MON time_secondsf                =   3.1106592000000E+09
(PID.TID 0000.0001) %MON dynstat_eta_max              =   1.6184904011403E+00
(PID.TID 0000.0001) %MON dynstat_eta_min              =  -3.9376052528047E+00
(PID.TID 0000.0001) %MON dynstat_eta_mean             =  -4.3977894978443E-16
(PID.TID 0000.0001) %MON dynstat_eta_sd               =   1.6550483648518E+00
(PID.TID 0000.0001) %MON dynstat_eta_del2             =   1.3964753307593E-02
(PID.TID 0000.0001) %MON dynstat_uvel_max             =   1.4272850709630E-01
(PID.TID 0000.0001) %MON dynstat_uvel_min             =  -3.8630793361623E-01
(PID.TID 0000.0001) %MON dynstat_uvel_mean            =   1.2678914121295E-02
(PID.TID 0000.0001) %MON dynstat_uvel_sd              =   3.8713891461730E-02
(PID.TID 0000.0001) %MON dynstat_uvel_del2            =   6.1848971216929E-04
(PID.TID 0000.0001) %MON dynstat_vvel_max             =   2.3120576541313E-02
(PID.TID 0000.0001) %MON dynstat_vvel_min             =  -2.3120576541280E-02
(PID.TID 0000.0001) %MON dynstat_vvel_mean            =   1.0415410951454E-15
(PID.TID 0000.0001) %MON dynstat_vvel_sd              =   1.5546571462873E-03
(PID.TID 0000.0001) %MON dynstat_vvel_del2            =   7.2760985057840E-05
(PID.TID 0000.0001) %MON dynstat_wvel_max             =   1.2068262641378E-06
(PID.TID 0000.0001) %MON dynstat_wvel_min             =  -9.6366840182250E-07
(PID.TID 0000.0001) %MON dynstat_wvel_mean            =   2.5622352916718E-24
(PID.TID 0000.0001) %MON dynstat_wvel_sd              =   2.9019736703091E-07
(PID.TID 0000.0001) %MON dynstat_wvel_del2            =   3.6815040277607E-08
(PID.TID 0000.0001) %MON dynstat_theta_max            =   2.6659883496300E+01
(PID.TID 0000.0001) %MON dynstat_theta_min            =  -9.3076429337048E-01
(PID.TID 0000.0001) %MON dynstat_theta_mean           =   2.2239913172095E+00
(PID.TID 0000.0001) %MON dynstat_theta_sd             =   3.9267432380767E+00
(PID.TID 0000.0001) %MON dynstat_theta_del2           =   4.1717352185799E-02
(PID.TID 0000.0001) %MON dynstat_salt_max             =   3.4700000000000E+01
(PID.TID 0000.0001) %MON dynstat_salt_min             =   3.4700000000000E+01
(PID.TID 0000.0001) %MON dynstat_salt_mean            =   3.4700000000000E+01
(PID.TID 0000.0001) %MON dynstat_salt_sd              =   4.2632564145606E-14
(PID.TID 0000.0001) %MON dynstat_salt_del2            =   0.0000000000000E+00
(PID.TID 0000.0001) %MON advcfl_uvel_max              =   1.0010555149531E-01
(PID.TID 0000.0001) %MON advcfl_vvel_max              =   5.9892762833471E-03
(PID.TID 0000.0001) %MON advcfl_wvel_max              =   1.7378298203584E-03
(PID.TID 0000.0001) %MON advcfl_W_hf_max              =   2.0853957844300E-03
(PID.TID 0000.0001) %MON pe_b_mean                    =   2.5837890127774E-03
(PID.TID 0000.0001) %MON ke_max                       =   7.4646436340664E-02
(PID.TID 0000.0001) %MON ke_mean                      =   8.3105811241547E-04
(PID.TID 0000.0001) %MON ke_vol                       =   2.1823819113454E+16
(PID.TID 0000.0001) %MON vort_r_min                   =  -1.7697520057078E-07
(PID.TID 0000.0001) %MON vort_r_max                   =   1.7697520057060E-07
(PID.TID 0000.0001) %MON vort_a_mean                  =   4.4403874448827E-21
(PID.TID 0000.0001) %MON vort_a_sd                    =   8.3492787054905E-05
(PID.TID 0000.0001) %MON vort_p_mean                  =   4.4680692268045E-21
(PID.TID 0000.0001) %MON vort_p_sd                    =   8.6788008801426E-05
(PID.TID 0000.0001) %MON surfExpan_theta_mean         =  -2.2741850423403E-06
(PID.TID 0000.0001) %MON surfExpan_salt_mean          =  -4.4381575587886E-22
(PID.TID 0000.0001) // =======================================================
(PID.TID 0000.0001) // End MONITOR dynamic field statistics
(PID.TID 0000.0001) // =======================================================
 cg2d: Sum(rhs),rhsMax =   8.32667268468867E-15  1.48088973296610E+00
(PID.TID 0000.0001)                    cg2d_init_res =    5.31542379448960E-03
(PID.TID 0000.0001)                       cg2d_iters =    27
(PID.TID 0000.0001)                         cg2d_res =    1.52459170499040E-17
(PID.TID 0000.0001) // =======================================================
(PID.TID 0000.0001) // Begin MONITOR dynamic field statistics
(PID.TID 0000.0001) // =======================================================
(PID.TID 0000.0001) %MON time_tsnumber                =                 36004
(PID.TID 0000.0001) %MON time_secondsf                =   3.1107456000000E+09
(PID.TID 0000.0001) %MON dynstat_eta_max              =   1.6178085324833E+00
(PID.TID 0000.0001) %MON dynstat_eta_min              =  -3.9369710241658E+00
(PID.TID 0000.0001) %MON dynstat_eta_mean             =  -2.8387847552222E-16
(PID.TID 0000.0001) %MON dynstat_eta_sd               =   1.6542750954715E+00
(PID.TID 0000.0001) %MON dynstat_eta_del2             =   1.3959079662452E-02
(PID.TID 0000.0001) %MON dynstat_uvel_max             =   1.4273180574083E-01
(PID.TID 0000.0001) %MON dynstat_uvel_min             =  -3.8630768969982E-01
(PID.TID 0000.0001) %MON dynstat_uvel_mean            =   1.2690526138577E-02
(PID.TID 0000.0001) %MON dynstat_uvel_sd              =   3.8716020351686E-02
(PID.TID 0000.0001) %MON dynstat_uvel_del2            =   6.1852182837994E-04
(PID.TID 0000.0001) %MON dynstat_vvel_max             =   2.3164691852062E-02
(PID.TID 0000.0001) %MON dynstat_vvel_min             =  -2.3164691852029E-02
(PID.TID 0000.0001) %MON dynstat_vvel_mean            =   1.2946762449680E-15
(PID.TID 0000.0001) %MON dynstat_vvel_sd              =   1.5572716074590E-03
(PID.TID 0000.0001) %MON dynstat_vvel_del2            =   7.2737626909434E-05
(PID.TID 0000.0001) %MON dynstat_wvel_max             =   1.1809474575868E-06
(PID.TID 0000.0001) %MON dynstat_wvel_min             =  -9.6589831014768E-07
(PID.TID 0000.0001) %MON dynstat_wvel_mean            =   9.1508403273992E-26
(PID.TID 0000.0001) %MON dynstat_wvel_sd              =   3.0632923510290E-07
(PID.TID 0000.0001) %MON dynstat_wvel_del2            =   3.6730247835173E-08
(PID.TID 0000.0001) %MON dynstat_theta_max            =   2.6661603475533E+01
(PID.TID 0000.0001) %MON dynstat_theta_min            =  -9.3076468455236E-01
(PID.TID 0000.0001) %MON dynstat_theta_mean           =   2.2240286252057E+00
(PID.TID 0000.0001) %MON dynstat_theta_sd             =   3.9268953369648E+00
(PID.TID 0000.0001) %MON dynstat_theta_del2           =   4.1713947183483E-02
(PID.TID 0000.0001) %MON dynstat_salt_max             =   3.4700000000000E+01
(PID.TID 0000.0001) %MON dynstat_salt_min             =   3.4700000000000E+01
(PID.TID 0000.0001) %MON dynstat_salt_mean            =   3.4700000000000E+01
(PID.TID 0000.0001) %MON dynstat_salt_sd              =   4.2632564145606E-14
(PID.TID 0000.0001) %MON dynstat_salt_del2            =   0.0000000000000E+00
(PID.TID 0000.0001) %MON advcfl_uvel_max              =   1.0010548828826E-01
(PID.TID 0000.0001) %MON advcfl_vvel_max              =   6.0007041464858E-03
(PID.TID 0000.0001) %MON advcfl_wvel_max              =   1.9139877382593E-03
(PID.TID 0000.0001) %MON advcfl_W_hf_max              =   2.0382241476809E-03
(PID.TID 0000.0001) %MON pe_b_mean                    =   2.5813751882297E-03
(PID.TID 0000.0001) %MON ke_max                       =   7.4646412539887E-02
(PID.TID 0000.0001) %MON ke_mean                      =   8.3129190393945E-04
(PID.TID 0000.0001) %MON ke_vol                       =   2.1823819113454E+16
(PID.TID 0000.0001) %MON vort_r_min                   =  -1.7698272487167E-07
(PID.TID 0000.0001) %MON vort_r_max                   =   1.7698272487149E-07
(PID.TID 0000.0001) %MON vort_a_mean                  =  -1.1862799791476E-21
(PID.TID 0000.0001) %MON vort_a_sd                    =   8.3492789460412E-05
(PID.TID 0000.0001) %MON vort_p_mean                  =  -1.1936753571610E-21
(PID.TID 0000.0001) %MON vort_p_sd                    =   8.6788011157461E-05
(PID.TID 0000.0001) %MON surfExpan_theta_mean         =  -2.7651864635966E-06
(PID.TID 0000.0001) %MON surfExpan_salt_mean          =  -3.2939450631634E-22
(PID.TID 0000.0001) // =======================================================
(PID.TID 0000.0001) // End MONITOR dynamic field statistics
(PID.TID 0000.0001) // =======================================================
 cg2d: Sum(rhs),rhsMax =   1.56541446472147E-14  1.48035145470941E+00
(PID.TID 0000.0001)                    cg2d_init_res =    5.71313044138889E-03
(PID.TID 0000.0001)                       cg2d_iters =    27
(PID.TID 0000.0001)                         cg2d_res =    1.94969644914545E-17
(PID.TID 0000.0001) // =======================================================
(PID.TID 0000.0001) // Begin MONITOR dynamic field statistics
(PID.TID 0000.0001) // =======================================================
(PID.TID 0000.0001) %MON time_tsnumber                =                 36005
(PID.TID 0000.0001) %MON time_secondsf                =   3.1108320000000E+09
(PID.TID 0000.0001) %MON dynstat_eta_max              =   1.6172222039835E+00
(PID.TID 0000.0001) %MON dynstat_eta_min              =  -3.9358752629806E+00
(PID.TID 0000.0001) %MON dynstat_eta_mean             =  -3.0482033027386E-16
(PID.TID 0000.0001) %MON dynstat_eta_sd               =   1.6534113215357E+00
(PID.TID 0000.0001) %MON dynstat_eta_del2             =   1.3955560582561E-02
(PID.TID 0000.0001) %MON dynstat_uvel_max             =   1.4273456485459E-01
(PID.TID 0000.0001) %MON dynstat_uvel_min             =  -3.8630753316413E-01
(PID.TID 0000.0001) %MON dynstat_uvel_mean            =   1.2704057826987E-02
(PID.TID 0000.0001) %MON dynstat_uvel_sd              =   3.8718460575311E-02
(PID.TID 0000.0001) %MON dynstat_uvel_del2            =   6.1855790463509E-04
(PID.TID 0000.0001) %MON dynstat_vvel_max             =   2.3206012955991E-02
(PID.TID 0000.0001) %MON dynstat_vvel_min             =  -2.3206012955956E-02
(PID.TID 0000.0001) %MON dynstat_vvel_mean            =   1.4804415213034E-15
(PID.TID 0000.0001) %MON dynstat_vvel_sd              =   1.5595706125666E-03
(PID.TID 0000.0001) %MON dynstat_vvel_del2            =   7.2709028244515E-05
(PID.TID 0000.0001) %MON dynstat_wvel_max             =   1.2164773961351E-06
(PID.TID 0000.0001) %MON dynstat_wvel_min             =  -1.0030734608240E-06
(PID.TID 0000.0001) %MON dynstat_wvel_mean            =   6.6343592373644E-24
(PID.TID 0000.0001) %MON dynstat_wvel_sd              =   3.1960697903715E-07
(PID.TID 0000.0001) %MON dynstat_wvel_del2            =   3.6614097860847E-08
(PID.TID 0000.0001) %MON dynstat_theta_max            =   2.6663709674092E+01
(PID.TID 0000.0001) %MON dynstat_theta_min            =  -9.3076502849279E-01
(PID.TID 0000.0001) %MON dynstat_theta_mean           =   2.2240713493893E+00
(PID.TID 0000.0001) %MON dynstat_theta_sd             =   3.9270644617524E+00
(PID.TID 0000.0001) %MON dynstat_theta_del2           =   4.1708642711116E-02
(PID.TID 0000.0001) %MON dynstat_salt_max             =   3.4700000000000E+01
(PID.TID 0000.0001) %MON dynstat_salt_min             =   3.4700000000000E+01
(PID.TID 0000.0001) %MON dynstat_salt_mean            =   3.4700000000000E+01
(PID.TID 0000.0001) %MON dynstat_salt_sd              =   4.2632564145606E-14
(PID.TID 0000.0001) %MON dynstat_salt_del2            =   0.0000000000000E+00
(PID.TID 0000.0001) %MON advcfl_uvel_max              =   1.0010544772452E-01
(PID.TID 0000.0001) %MON advcfl_vvel_max              =   6.0114081835291E-03
(PID.TID 0000.0001) %MON advcfl_wvel_max              =   1.9997352624782E-03
(PID.TID 0000.0001) %MON advcfl_W_hf_max              =   2.0988690228373E-03
(PID.TID 0000.0001) %MON pe_b_mean                    =   2.5786801800163E-03
(PID.TID 0000.0001) %MON ke_max                       =   7.4646415197336E-02
(PID.TID 0000.0001) %MON ke_mean                      =   8.3156179602812E-04
(PID.TID 0000.0001) %MON ke_vol                       =   2.1823819113454E+16
(PID.TID 0000.0001) %MON vort_r_min                   =  -1.7699110277122E-07
(PID.TID 0000.0001) %MON vort_r_max                   =   1.7699110277104E-07
(PID.TID 0000.0001) %MON vort_a_mean                  =  -6.2034824597625E-22
(PID.TID 0000.0001) %MON vort_a_sd                    =   8.3492792224408E-05
(PID.TID 0000.0001) %MON vort_p_mean                  =  -6.2421555374475E-22
(PID.TID 0000.0001) %MON vort_p_sd                    =   8.6788013960910E-05
(PID.TID 0000.0001) %MON surfExpan_theta_mean         =  -3.0988731481403E-06
(PID.TID 0000.0001) %MON surfExpan_salt_mean          =  -6.9346211856072E-23
(PID.TID 0000.0001) // =======================================================
(PID.TID 0000.0001) // End MONITOR dynamic field statistics
(PID.TID 0000.0001) // =======================================================
 cg2d: Sum(rhs),rhsMax =   1.05471187339390E-14  1.47996213603323E+00
(PID.TID 0000.0001)                    cg2d_init_res =    5.92953332396029E-03
(PID.TID 0000.0001)                       cg2d_iters =    27
(PID.TID 0000.0001)                         cg2d_res =    1.89422637801826E-17
(PID.TID 0000.0001) // =======================================================
(PID.TID 0000.0001) // Begin MONITOR dynamic field statistics
(PID.TID 0000.0001) // =======================================================
(PID.TID 0000.0001) %MON time_tsnumber                =                 36006
(PID.TID 0000.0001) %MON time_secondsf                =   3.1109184000000E+09
(PID.TID 0000.0001) %MON dynstat_eta_max              =   1.6167712621140E+00
(PID.TID 0000.0001) %MON dynstat_eta_min              =  -3.9343007079960E+00
(PID.TID 0000.0001) %MON dynstat_eta_mean             =  -3.4205029427678E-16
(PID.TID 0000.0001) %MON dynstat_eta_sd               =   1.6524969699552E+00
(PID.TID 0000.0001) %MON dynstat_eta_del2             =   1.3954300629779E-02
(PID.TID 0000.0001) %MON dynstat_uvel_max             =   1.4273575722467E-01
(PID.TID 0000.0001) %MON dynstat_uvel_min             =  -3.8630742500941E-01
(PID.TID 0000.0001) %MON dynstat_uvel_mean            =   1.2718921596052E-02
(PID.TID 0000.0001) %MON dynstat_uvel_sd              =   3.8721060605368E-02
(PID.TID 0000.0001) %MON dynstat_uvel_del2            =   6.1859608985546E-04
(PID.TID 0000.0001) %MON dynstat_vvel_max             =   2.3241542446430E-02
(PID.TID 0000.0001) %MON dynstat_vvel_min             =  -2.3241542446396E-02
(PID.TID 0000.0001) %MON dynstat_vvel_mean            =   1.5977694437232E-15
(PID.TID 0000.0001) %MON dynstat_vvel_sd              =   1.5612835037642E-03
(PID.TID 0000.0001) %MON dynstat_vvel_del2            =   7.2697730155884E-05
(PID.TID 0000.0001) %MON dynstat_wvel_max             =   1.2225864213877E-06
(PID.TID 0000.0001) %MON dynstat_wvel_min             =  -1.0298250337295E-06
(PID.TID 0000.0001) %MON dynstat_wvel_mean            =   1.0660728981420E-23
(PID.TID 0000.0001) %MON dynstat_wvel_sd              =   3.2922650083557E-07
(PID.TID 0000.0001) %MON dynstat_wvel_del2            =   3.6520984056342E-08
(PID.TID 0000.0001) %MON dynstat_theta_max            =   2.6666066150698E+01
(PID.TID 0000.0001) %MON dynstat_theta_min            =  -9.3076540634849E-01
(PID.TID 0000.0001) %MON dynstat_theta_mean           =   2.2241168217684E+00
(PID.TID 0000.0001) %MON dynstat_theta_sd             =   3.9272413199115E+00
(PID.TID 0000.0001) %MON dynstat_theta_del2           =   4.1702082245364E-02
(PID.TID 0000.0001) %MON dynstat_salt_max             =   3.4700000000000E+01
(PID.TID 0000.0001) %MON dynstat_salt_min             =   3.4700000000000E+01
(PID.TID 0000.0001) %MON dynstat_salt_mean            =   3.4700000000000E+01
(PID.TID 0000.0001) %MON dynstat_salt_sd              =   4.2632564145606E-14
(PID.TID 0000.0001) %MON dynstat_salt_del2            =   0.0000000000000E+00
(PID.TID 0000.0001) %MON advcfl_uvel_max              =   1.0010541969795E-01
(PID.TID 0000.0001) %MON advcfl_vvel_max              =   6.0206119304196E-03
(PID.TID 0000.0001) %MON advcfl_wvel_max              =   2.0748178605587E-03
(PID.TID 0000.0001) %MON advcfl_W_hf_max              =   2.1080851381508E-03
(PID.TID 0000.0001) %MON pe_b_mean                    =   2.5758289011853E-03
(PID.TID 0000.0001) %MON ke_max                       =   7.4646426090246E-02
(PID.TID 0000.0001) %MON ke_mean                      =   8.3185410345076E-04
(PID.TID 0000.0001) %MON ke_vol                       =   2.1823819113454E+16
(PID.TID 0000.0001) %MON vort_r_min                   =  -1.7700011877577E-07
(PID.TID 0000.0001) %MON vort_r_max                   =   1.7700011877559E-07
(PID.TID 0000.0001) %MON vort_a_mean                  =   2.8296586658566E-22
(PID.TID 0000.0001) %MON vort_a_sd                    =   8.3492795219480E-05
(PID.TID 0000.0001) %MON vort_p_mean                  =   2.8472990170813E-22
(PID.TID 0000.0001) %MON vort_p_sd                    =   8.6788017103421E-05
(PID.TID 0000.0001) %MON surfExpan_theta_mean         =  -3.2750975129497E-06
(PID.TID 0000.0001) %MON surfExpan_salt_mean          =   1.1788856015532E-21
(PID.TID 0000.0001) // =======================================================
(PID.TID 0000.0001) // End MONITOR dynamic field statistics
(PID.TID 0000.0001) // =======================================================
 Computing Diagnostic #     23  ETAN         Counter:       1   Parms: SM      M1      
 Computing Diagnostic #     24  ETANSQ       Counter:       1   Parms: SM P    M1      
 Computing Diagnostic #     25  DETADT2      Counter:       1   Parms: SM      M1      
 Computing Diagnostic #     69  PHIBOT       Counter:       1   Parms: SM      M1      
 Computing Diagnostic #     70  PHIBOTSQ     Counter:       1   Parms: SM P    M1      
 Computing Diagnostic #    171  GM_VisbK     Counter:       1   Parms: SM P    M1      
 cg2d: Sum(rhs),rhsMax =   1.28785870856518E-14  1.47971361677604E+00
(PID.TID 0000.0001)                    cg2d_init_res =    5.94174472248778E-03
(PID.TID 0000.0001)                       cg2d_iters =    27
(PID.TID 0000.0001)                         cg2d_res =    5.98774291900716E-18
(PID.TID 0000.0001) // =======================================================
(PID.TID 0000.0001) // Begin MONITOR dynamic field statistics
(PID.TID 0000.0001) // =======================================================
(PID.TID 0000.0001) %MON time_tsnumber                =                 36007
(PID.TID 0000.0001) %MON time_secondsf                =   3.1110048000000E+09
(PID.TID 0000.0001) %MON dynstat_eta_max              =   1.6164462562108E+00
(PID.TID 0000.0001) %MON dynstat_eta_min              =  -3.9323110202099E+00
(PID.TID 0000.0001) %MON dynstat_eta_mean             =  -2.5130225701967E-16
(PID.TID 0000.0001) %MON dynstat_eta_sd               =   1.6515691300409E+00
(PID.TID 0000.0001) %MON dynstat_eta_del2             =   1.3954821497268E-02
(PID.TID 0000.0001) %MON dynstat_uvel_max             =   1.4273452695341E-01
(PID.TID 0000.0001) %MON dynstat_uvel_min             =  -3.8630732283626E-01
(PID.TID 0000.0001) %MON dynstat_uvel_mean            =   1.2734452902417E-02
(PID.TID 0000.0001) %MON dynstat_uvel_sd              =   3.8723652104104E-02
(PID.TID 0000.0001) %MON dynstat_uvel_del2            =   6.1863449300100E-04
(PID.TID 0000.0001) %MON dynstat_vvel_max             =   2.3269587919641E-02
(PID.TID 0000.0001) %MON dynstat_vvel_min             =  -2.3269587919606E-02
(PID.TID 0000.0001) %MON dynstat_vvel_mean            =   1.6854209186002E-15
(PID.TID 0000.0001) %MON dynstat_vvel_sd              =   1.5622390827657E-03
(PID.TID 0000.0001) %MON dynstat_vvel_del2            =   7.2698272702942E-05
(PID.TID 0000.0001) %MON dynstat_wvel_max             =   1.2059831592463E-06
(PID.TID 0000.0001) %MON dynstat_wvel_min             =  -1.0383680277316E-06
(PID.TID 0000.0001) %MON dynstat_wvel_mean            =   7.2291638586453E-24
(PID.TID 0000.0001) %MON dynstat_wvel_sd              =   3.3424484969253E-07
(PID.TID 0000.0001) %MON dynstat_wvel_del2            =   3.6465208042258E-08
(PID.TID 0000.0001) %MON dynstat_theta_max            =   2.6668481079869E+01
(PID.TID 0000.0001) %MON dynstat_theta_min            =  -9.3076579883994E-01
(PID.TID 0000.0001) %MON dynstat_theta_mean           =   2.2241624832018E+00
(PID.TID 0000.0001) %MON dynstat_theta_sd             =   3.9274170998358E+00
(PID.TID 0000.0001) %MON dynstat_theta_del2           =   4.1695040297628E-02
(PID.TID 0000.0001) %MON dynstat_salt_max             =   3.4700000000000E+01
(PID.TID 0000.0001) %MON dynstat_salt_min             =   3.4700000000000E+01
(PID.TID 0000.0001) %MON dynstat_salt_mean            =   3.4700000000000E+01
(PID.TID 0000.0001) %MON dynstat_salt_sd              =   4.2632564145606E-14
(PID.TID 0000.0001) %MON dynstat_salt_del2            =   0.0000000000000E+00
(PID.TID 0000.0001) %MON advcfl_uvel_max              =   1.0010539322141E-01
(PID.TID 0000.0001) %MON advcfl_vvel_max              =   6.0278769779523E-03
(PID.TID 0000.0001) %MON advcfl_wvel_max              =   2.3876253435426E-03
(PID.TID 0000.0001) %MON advcfl_W_hf_max              =   2.0765914923499E-03
(PID.TID 0000.0001) %MON pe_b_mean                    =   2.5729371731437E-03
(PID.TID 0000.0001) %MON ke_max                       =   7.4646427146857E-02
(PID.TID 0000.0001) %MON ke_mean                      =   8.3215363436912E-04
(PID.TID 0000.0001) %MON ke_vol                       =   2.1823819113454E+16
(PID.TID 0000.0001) %MON vort_r_min                   =  -1.7700951388192E-07
(PID.TID 0000.0001) %MON vort_r_max                   =   1.7700951388175E-07
(PID.TID 0000.0001) %MON vort_a_mean                  =   4.5274538653705E-21
(PID.TID 0000.0001) %MON vort_a_sd                    =   8.3492798309993E-05
(PID.TID 0000.0001) %MON vort_p_mean                  =   4.5556784273301E-21
(PID.TID 0000.0001) %MON vort_p_sd                    =   8.6788020452674E-05
(PID.TID 0000.0001) %MON surfExpan_theta_mean         =  -3.2992154057858E-06
(PID.TID 0000.0001) %MON surfExpan_salt_mean          =   1.0956701473259E-21
(PID.TID 0000.0001) // =======================================================
(PID.TID 0000.0001) // End MONITOR dynamic field statistics
(PID.TID 0000.0001) // =======================================================
 cg2d: Sum(rhs),rhsMax =   5.77315972805081E-15  1.47955788514590E+00
(PID.TID 0000.0001)                    cg2d_init_res =    5.70683516398587E-03
(PID.TID 0000.0001)                       cg2d_iters =    27
(PID.TID 0000.0001)                         cg2d_res =    1.47063109402809E-17
(PID.TID 0000.0001) // =======================================================
(PID.TID 0000.0001) // Begin MONITOR dynamic field statistics
(PID.TID 0000.0001) // =======================================================
(PID.TID 0000.0001) %MON time_tsnumber                =                 36008
(PID.TID 0000.0001) %MON time_secondsf                =   3.1110912000000E+09
(PID.TID 0000.0001) %MON dynstat_eta_max              =   1.6162051621669E+00
(PID.TID 0000.0001) %MON dynstat_eta_min              =  -3.9300464411529E+00
(PID.TID 0000.0001) %MON dynstat_eta_mean             =  -4.0487585853169E-16
(PID.TID 0000.0001) %MON dynstat_eta_sd               =   1.6506627239795E+00
(PID.TID 0000.0001) %MON dynstat_eta_del2             =   1.3956426801548E-02
(PID.TID 0000.0001) %MON dynstat_uvel_max             =   1.4273021939987E-01
(PID.TID 0000.0001) %MON dynstat_uvel_min             =  -3.8630718300353E-01
(PID.TID 0000.0001) %MON dynstat_uvel_mean            =   1.2749943397184E-02
(PID.TID 0000.0001) %MON dynstat_uvel_sd              =   3.8726056957041E-02
(PID.TID 0000.0001) %MON dynstat_uvel_del2            =   6.1866950224519E-04
(PID.TID 0000.0001) %MON dynstat_vvel_max             =   2.3289819203309E-02
(PID.TID 0000.0001) %MON dynstat_vvel_min             =  -2.3289819203274E-02
(PID.TID 0000.0001) %MON dynstat_vvel_mean            =   1.6874348586893E-15
(PID.TID 0000.0001) %MON dynstat_vvel_sd              =   1.5623896212384E-03
(PID.TID 0000.0001) %MON dynstat_vvel_del2            =   7.2703571066708E-05
(PID.TID 0000.0001) %MON dynstat_wvel_max             =   1.1739659595715E-06
(PID.TID 0000.0001) %MON dynstat_wvel_min             =  -1.0253658678818E-06
(PID.TID 0000.0001) %MON dynstat_wvel_mean            =  -4.1178781473296E-25
(PID.TID 0000.0001) %MON dynstat_wvel_sd              =   3.3394599264546E-07
(PID.TID 0000.0001) %MON dynstat_wvel_del2            =   3.6460475458504E-08
(PID.TID 0000.0001) %MON dynstat_theta_max            =   2.6670756186538E+01
(PID.TID 0000.0001) %MON dynstat_theta_min            =  -9.3076622934926E-01
(PID.TID 0000.0001) %MON dynstat_theta_mean           =   2.2242059494136E+00
(PID.TID 0000.0001) %MON dynstat_theta_sd             =   3.9275837367743E+00
(PID.TID 0000.0001) %MON dynstat_theta_del2           =   4.1688290607862E-02
(PID.TID 0000.0001) %MON dynstat_salt_max             =   3.4700000000000E+01
(PID.TID 0000.0001) %MON dynstat_salt_min             =   3.4700000000000E+01
(PID.TID 0000.0001) %MON dynstat_salt_mean            =   3.4700000000000E+01
(PID.TID 0000.0001) %MON dynstat_salt_sd              =   4.2632564145606E-14
(PID.TID 0000.0001) %MON dynstat_salt_del2            =   0.0000000000000E+00
(PID.TID 0000.0001) %MON advcfl_uvel_max              =   1.0010535698598E-01
(PID.TID 0000.0001) %MON advcfl_vvel_max              =   6.0331177965469E-03
(PID.TID 0000.0001) %MON advcfl_wvel_max              =   2.7174948683591E-03
(PID.TID 0000.0001) %MON advcfl_W_hf_max              =   2.0166661218551E-03
(PID.TID 0000.0001) %MON pe_b_mean                    =   2.5701138146125E-03
(PID.TID 0000.0001) %MON ke_max                       =   7.4646401218355E-02
(PID.TID 0000.0001) %MON ke_mean                      =   8.3244441225063E-04
(PID.TID 0000.0001) %MON ke_vol                       =   2.1823819113454E+16
(PID.TID 0000.0001) %MON vort_r_min                   =  -1.7701896753961E-07
(PID.TID 0000.0001) %MON vort_r_max                   =   1.7701896753943E-07
(PID.TID 0000.0001) %MON vort_a_mean                  =  -3.2649907682961E-23
(PID.TID 0000.0001) %MON vort_a_sd                    =   8.3492801358494E-05
(PID.TID 0000.0001) %MON vort_p_mean                  =  -3.2853450197092E-23
(PID.TID 0000.0001) %MON vort_p_sd                    =   8.6788023856011E-05
(PID.TID 0000.0001) %MON surfExpan_theta_mean         =  -3.1803720229695E-06
(PID.TID 0000.0001) %MON surfExpan_salt_mean          =   5.2703121010614E-22
(PID.TID 0000.0001) // =======================================================
(PID.TID 0000.0001) // End MONITOR dynamic field statistics
(PID.TID 0000.0001) // =======================================================
 cg2d: Sum(rhs),rhsMax =   1.25455201782643E-14  1.47943518390956E+00
(PID.TID 0000.0001)                    cg2d_init_res =    5.21006588497100E-03
(PID.TID 0000.0001)                       cg2d_iters =    27
(PID.TID 0000.0001)                         cg2d_res =    1.90919108060703E-17
(PID.TID 0000.0001) // =======================================================
(PID.TID 0000.0001) // Begin MONITOR dynamic field statistics
(PID.TID 0000.0001) // =======================================================
(PID.TID 0000.0001) %MON time_tsnumber                =                 36009
(PID.TID 0000.0001) %MON time_secondsf                =   3.1111776000000E+09
(PID.TID 0000.0001) %MON dynstat_eta_max              =   1.6159980538776E+00
(PID.TID 0000.0001) %MON dynstat_eta_min              =  -3.9277003107908E+00
(PID.TID 0000.0001) %MON dynstat_eta_mean             =  -4.2581771328333E-16
(PID.TID 0000.0001) %MON dynstat_eta_sd               =   1.6498113315445E+00
(PID.TID 0000.0001) %MON dynstat_eta_del2             =   1.3958385100629E-02
(PID.TID 0000.0001) %MON dynstat_uvel_max             =   1.4272237492004E-01
(PID.TID 0000.0001) %MON dynstat_uvel_min             =  -3.8630696481744E-01
(PID.TID 0000.0001) %MON dynstat_uvel_mean            =   1.2764681021897E-02
(PID.TID 0000.0001) %MON dynstat_uvel_sd              =   3.8728094724732E-02
(PID.TID 0000.0001) %MON dynstat_uvel_del2            =   6.1869717794054E-04
(PID.TID 0000.0001) %MON dynstat_vvel_max             =   2.3302976048958E-02
(PID.TID 0000.0001) %MON dynstat_vvel_min             =  -2.3302976048924E-02
(PID.TID 0000.0001) %MON dynstat_vvel_mean            =   1.6668292403254E-15
(PID.TID 0000.0001) %MON dynstat_vvel_sd              =   1.5618219914716E-03
(PID.TID 0000.0001) %MON dynstat_vvel_del2            =   7.2697611452576E-05
(PID.TID 0000.0001) %MON dynstat_wvel_max             =   1.1317660470341E-06
(PID.TID 0000.0001) %MON dynstat_wvel_min             =  -9.9182337665897E-07
(PID.TID 0000.0001) %MON dynstat_wvel_mean            =   3.2027941145897E-24
(PID.TID 0000.0001) %MON dynstat_wvel_sd              =   3.2842894637954E-07
(PID.TID 0000.0001) %MON dynstat_wvel_del2            =   3.6448059623345E-08
(PID.TID 0000.0001) %MON dynstat_theta_max            =   2.6672719325641E+01
(PID.TID 0000.0001) %MON dynstat_theta_min            =  -9.3076664885516E-01
(PID.TID 0000.0001) %MON dynstat_theta_mean           =   2.2242450579592E+00
(PID.TID 0000.0001) %MON dynstat_theta_sd             =   3.9277341162136E+00
(PID.TID 0000.0001) %MON dynstat_theta_del2           =   4.1682514643279E-02
(PID.TID 0000.0001) %MON dynstat_salt_max             =   3.4700000000000E+01
(PID.TID 0000.0001) %MON dynstat_salt_min             =   3.4700000000000E+01
(PID.TID 0000.0001) %MON dynstat_salt_mean            =   3.4700000000000E+01
(PID.TID 0000.0001) %MON dynstat_salt_sd              =   4.2632564145606E-14
(PID.TID 0000.0001) %MON dynstat_salt_del2            =   0.0000000000000E+00
(PID.TID 0000.0001) %MON advcfl_uvel_max              =   1.0010530044653E-01
(PID.TID 0000.0001) %MON advcfl_vvel_max              =   6.0365260153457E-03
(PID.TID 0000.0001) %MON advcfl_wvel_max              =   2.8153564346334E-03
(PID.TID 0000.0001) %MON advcfl_W_hf_max              =   1.9390194250562E-03
(PID.TID 0000.0001) %MON pe_b_mean                    =   2.5674632293543E-03
(PID.TID 0000.0001) %MON ke_max                       =   7.4646333709808E-02
(PID.TID 0000.0001) %MON ke_mean                      =   8.3271048918993E-04
(PID.TID 0000.0001) %MON ke_vol                       =   2.1823819113454E+16
(PID.TID 0000.0001) %MON vort_r_min                   =  -1.7702813370622E-07
(PID.TID 0000.0001) %MON vort_r_max                   =   1.7702813370604E-07
(PID.TID 0000.0001) %MON vort_a_mean                  =   2.6772924300028E-21
(PID.TID 0000.0001) %MON vort_a_sd                    =   8.3492804232233E-05
(PID.TID 0000.0001) %MON vort_p_mean                  =   2.6939829161615E-21
(PID.TID 0000.0001) %MON vort_p_sd                    =   8.6788027149500E-05
(PID.TID 0000.0001) %MON surfExpan_theta_mean         =  -2.9305686208475E-06
(PID.TID 0000.0001) %MON surfExpan_salt_mean          =   2.9125408979550E-22
(PID.TID 0000.0001) // =======================================================
(PID.TID 0000.0001) // End MONITOR dynamic field statistics
(PID.TID 0000.0001) // =======================================================
 cg2d: Sum(rhs),rhsMax =   1.47659662275146E-14  1.47929992230946E+00
(PID.TID 0000.0001)                    cg2d_init_res =    4.47968358583841E-03
(PID.TID 0000.0001)                       cg2d_iters =    27
(PID.TID 0000.0001)                         cg2d_res =    1.47800881167815E-17
(PID.TID 0000.0001) // =======================================================
(PID.TID 0000.0001) // Begin MONITOR dynamic field statistics
(PID.TID 0000.0001) // =======================================================
(PID.TID 0000.0001) %MON time_tsnumber                =                 36010
(PID.TID 0000.0001) %MON time_secondsf                =   3.1112640000000E+09
(PID.TID 0000.0001) %MON dynstat_eta_max              =   1.6157879932107E+00
(PID.TID 0000.0001) %MON dynstat_eta_min              =  -3.9254845123355E+00
(PID.TID 0000.0001) %MON dynstat_eta_mean             =  -3.0947407577423E-16
(PID.TID 0000.0001) %MON dynstat_eta_sd               =   1.6490475601916E+00
(PID.TID 0000.0001) %MON dynstat_eta_del2             =   1.3960046546212E-02
(PID.TID 0000.0001) %MON dynstat_uvel_max             =   1.4271069476154E-01
(PID.TID 0000.0001) %MON dynstat_uvel_min             =  -3.8630663504143E-01
(PID.TID 0000.0001) %MON dynstat_uvel_mean            =   1.2777992761382E-02
(PID.TID 0000.0001) %MON dynstat_uvel_sd              =   3.8729590667011E-02
(PID.TID 0000.0001) %MON dynstat_uvel_del2            =   6.1871360927515E-04
(PID.TID 0000.0001) %MON dynstat_vvel_max             =   2.3310486309304E-02
(PID.TID 0000.0001) %MON dynstat_vvel_min             =  -2.3310486309271E-02
(PID.TID 0000.0001) %MON dynstat_vvel_mean            =   1.5840754192946E-15
(PID.TID 0000.0001) %MON dynstat_vvel_sd              =   1.5607416792459E-03
(PID.TID 0000.0001) %MON dynstat_vvel_del2            =   7.2672408164167E-05
(PID.TID 0000.0001) %MON dynstat_wvel_max             =   1.0833939699678E-06
(PID.TID 0000.0001) %MON dynstat_wvel_min             =  -9.4140656191477E-07
(PID.TID 0000.0001) %MON dynstat_wvel_mean            =   2.7910062998567E-24
(PID.TID 0000.0001) %MON dynstat_wvel_sd              =   3.1882484073736E-07
(PID.TID 0000.0001) %MON dynstat_wvel_del2            =   3.6423526799629E-08
(PID.TID 0000.0001) %MON dynstat_theta_max            =   2.6674241747786E+01
(PID.TID 0000.0001) %MON dynstat_theta_min            =  -9.3076710725903E-01
(PID.TID 0000.0001) %MON dynstat_theta_mean           =   2.2242779087742E+00
(PID.TID 0000.0001) %MON dynstat_theta_sd             =   3.9278622415430E+00
(PID.TID 0000.0001) %MON dynstat_theta_del2           =   4.1678222646398E-02
(PID.TID 0000.0001) %MON dynstat_salt_max             =   3.4700000000000E+01
(PID.TID 0000.0001) %MON dynstat_salt_min             =   3.4700000000000E+01
(PID.TID 0000.0001) %MON dynstat_salt_mean            =   3.4700000000000E+01
(PID.TID 0000.0001) %MON dynstat_salt_sd              =   4.2632564145606E-14
(PID.TID 0000.0001) %MON dynstat_salt_del2            =   0.0000000000000E+00
(PID.TID 0000.0001) %MON advcfl_uvel_max              =   1.0010521499032E-01
(PID.TID 0000.0001) %MON advcfl_vvel_max              =   6.0384715128593E-03
(PID.TID 0000.0001) %MON advcfl_wvel_max              =   2.6589581463671E-03
(PID.TID 0000.0001) %MON advcfl_W_hf_max              =   1.8508676993536E-03
(PID.TID 0000.0001) %MON pe_b_mean                    =   2.5650865928022E-03
(PID.TID 0000.0001) %MON ke_max                       =   7.4646214053936E-02
(PID.TID 0000.0001) %MON ke_mean                      =   8.3293678076056E-04
(PID.TID 0000.0001) %MON ke_vol                       =   2.1823819113454E+16
(PID.TID 0000.0001) %MON vort_r_min                   =  -1.7703668824351E-07
(PID.TID 0000.0001) %MON vort_r_max                   =   1.7703668824333E-07
(PID.TID 0000.0001) %MON vort_a_mean                  =   5.2566351369567E-21
(PID.TID 0000.0001) %MON vort_a_sd                    =   8.3492806809432E-05
(PID.TID 0000.0001) %MON vort_p_mean                  =   5.2894054817318E-21
(PID.TID 0000.0001) %MON vort_p_sd                    =   8.6788030170513E-05
(PID.TID 0000.0001) %MON surfExpan_theta_mean         =  -2.5644382681959E-06
(PID.TID 0000.0001) %MON surfExpan_salt_mean          =  -4.2994651350764E-22
(PID.TID 0000.0001) // =======================================================
(PID.TID 0000.0001) // End MONITOR dynamic field statistics
(PID.TID 0000.0001) // =======================================================
 Computing Diagnostic #     72  DRHODR       Counter:      10   Parms: SM      LR      
 Computing Diagnostic #     62  RHOAnoma     Counter:      10   Parms: SM      MR      
 Computing Diagnostic #    183  GM_PsiY      Counter:      10   Parms: VV   182LR      
           Vector  Mate for  GM_PsiY      Diagnostic #    182  GM_PsiX  not enabled
 Computing Diagnostic #    176  GM_Kvy       Counter:      10   Parms: VV P 175MR      
           Vector  Mate for  GM_Kvy       Diagnostic #    175  GM_Kux   not enabled
 Computing Diagnostic #    178  GM_Kvz       Counter:      10   Parms: VV   177MR      
           Vector  Mate for  GM_Kvz       Diagnostic #    177  GM_Kuz   not enabled
 Computing Diagnostic #    180  GM_Kwy       Counter:      10   Parms: VM   179LR      
           Vector  Mate for  GM_Kwy       Diagnostic #    179  GM_Kwx   not enabled
 Computing Diagnostic #    181  GM_Kwz       Counter:      10   Parms: WM P    LR      
 cg2d: Sum(rhs),rhsMax =   1.23234755733392E-14  1.47913382784039E+00
(PID.TID 0000.0001)                    cg2d_init_res =    3.57636095050763E-03
(PID.TID 0000.0001)                       cg2d_iters =    27
(PID.TID 0000.0001)                         cg2d_res =    9.78659315568776E-18
(PID.TID 0000.0001) // =======================================================
(PID.TID 0000.0001) // Begin MONITOR dynamic field statistics
(PID.TID 0000.0001) // =======================================================
(PID.TID 0000.0001) %MON time_tsnumber                =                 36011
(PID.TID 0000.0001) %MON time_secondsf                =   3.1113504000000E+09
(PID.TID 0000.0001) %MON dynstat_eta_max              =   1.6155616683691E+00
(PID.TID 0000.0001) %MON dynstat_eta_min              =  -3.9235937845281E+00
(PID.TID 0000.0001) %MON dynstat_eta_mean             =  -3.5368465802769E-16
(PID.TID 0000.0001) %MON dynstat_eta_sd               =   1.6484025957717E+00
(PID.TID 0000.0001) %MON dynstat_eta_del2             =   1.3960945360728E-02
(PID.TID 0000.0001) %MON dynstat_uvel_max             =   1.4269499736666E-01
(PID.TID 0000.0001) %MON dynstat_uvel_min             =  -3.8630617091001E-01
(PID.TID 0000.0001) %MON dynstat_uvel_mean            =   1.2789285294425E-02
(PID.TID 0000.0001) %MON dynstat_uvel_sd              =   3.8730384550978E-02
(PID.TID 0000.0001) %MON dynstat_uvel_del2            =   6.1871536655942E-04
(PID.TID 0000.0001) %MON dynstat_vvel_max             =   2.3314097843669E-02
(PID.TID 0000.0001) %MON dynstat_vvel_min             =  -2.3314097843638E-02
(PID.TID 0000.0001) %MON dynstat_vvel_mean            =   1.4719597739901E-15
(PID.TID 0000.0001) %MON dynstat_vvel_sd              =   1.5594287410223E-03
(PID.TID 0000.0001) %MON dynstat_vvel_del2            =   7.2631806936434E-05
(PID.TID 0000.0001) %MON dynstat_wvel_max             =   1.1070892250613E-06
(PID.TID 0000.0001) %MON dynstat_wvel_min             =  -8.7895912803211E-07
(PID.TID 0000.0001) %MON dynstat_wvel_mean            =   6.7258676406384E-24
(PID.TID 0000.0001) %MON dynstat_wvel_sd              =   3.0704415476277E-07
(PID.TID 0000.0001) %MON dynstat_wvel_del2            =   3.6396699188486E-08
(PID.TID 0000.0001) %MON dynstat_theta_max            =   2.6675244580733E+01
(PID.TID 0000.0001) %MON dynstat_theta_min            =  -9.3076755516670E-01
(PID.TID 0000.0001) %MON dynstat_theta_mean           =   2.2243029063426E+00
(PID.TID 0000.0001) %MON dynstat_theta_sd             =   3.9279633899197E+00
(PID.TID 0000.0001) %MON dynstat_theta_del2           =   4.1675700248997E-02
(PID.TID 0000.0001) %MON dynstat_salt_max             =   3.4700000000000E+01
(PID.TID 0000.0001) %MON dynstat_salt_min             =   3.4700000000000E+01
(PID.TID 0000.0001) %MON dynstat_salt_mean            =   3.4700000000000E+01
(PID.TID 0000.0001) %MON dynstat_salt_sd              =   4.2632564145606E-14
(PID.TID 0000.0001) %MON dynstat_salt_del2            =   0.0000000000000E+00
(PID.TID 0000.0001) %MON advcfl_uvel_max              =   1.0010509471805E-01
(PID.TID 0000.0001) %MON advcfl_vvel_max              =   6.0394070637993E-03
(PID.TID 0000.0001) %MON advcfl_wvel_max              =   2.2688733690251E-03
(PID.TID 0000.0001) %MON advcfl_W_hf_max              =   1.9130501809060E-03
(PID.TID 0000.0001) %MON pe_b_mean                    =   2.5630805062594E-03
(PID.TID 0000.0001) %MON ke_max                       =   7.4646036387330E-02
(PID.TID 0000.0001) %MON ke_mean                      =   8.3310986821294E-04
(PID.TID 0000.0001) %MON ke_vol                       =   2.1823819113454E+16
(PID.TID 0000.0001) %MON vort_r_min                   =  -1.7704436196141E-07
(PID.TID 0000.0001) %MON vort_r_max                   =   1.7704436196123E-07
(PID.TID 0000.0001) %MON vort_a_mean                  =   1.5454289636601E-21
(PID.TID 0000.0001) %MON vort_a_sd                    =   8.3492808984923E-05
(PID.TID 0000.0001) %MON vort_p_mean                  =   1.5550633093290E-21
(PID.TID 0000.0001) %MON vort_p_sd                    =   8.6788032771195E-05
(PID.TID 0000.0001) %MON surfExpan_theta_mean         =  -2.0994531081767E-06
(PID.TID 0000.0001) %MON surfExpan_salt_mean          =  -2.7738484742429E-23
(PID.TID 0000.0001) // =======================================================
(PID.TID 0000.0001) // End MONITOR dynamic field statistics
(PID.TID 0000.0001) // =======================================================
 Compute Stats, Diag. #     23  ETAN      vol(   0 ): 4.197E+12  Parms: SM      M1      
 Compute Stats, Diag. #     30  UVEL      vol(   0 ): 2.182E+16  Parms: UU      MR      
 Compute Stats, Diag. #     31  VVEL      vol(   0 ): 2.173E+16  Parms: VV      MR      
 Compute Stats, Diag. #     32  WVEL      vol(   0 ): 2.035E+16  Parms: WM      LR      
 Compute Stats, Diag. #     26  THETA     vol(   0 ): 2.182E+16  Parms: SM      MR      
 cg2d: Sum(rhs),rhsMax =   8.21565038222616E-15  1.47894583969868E+00
(PID.TID 0000.0001)                    cg2d_init_res =    2.57442287734113E-03
(PID.TID 0000.0001)                       cg2d_iters =    27
(PID.TID 0000.0001)                         cg2d_res =    8.56452797924129E-18
(PID.TID 0000.0001) // =======================================================
(PID.TID 0000.0001) // Begin MONITOR dynamic field statistics
(PID.TID 0000.0001) // =======================================================
(PID.TID 0000.0001) %MON time_tsnumber                =                 36012
(PID.TID 0000.0001) %MON time_secondsf                =   3.1114368000000E+09
(PID.TID 0000.0001) %MON dynstat_eta_max              =   1.6153296755559E+00
(PID.TID 0000.0001) %MON dynstat_eta_min              =  -3.9221773610292E+00
(PID.TID 0000.0001) %MON dynstat_eta_mean             =  -1.7916920176403E-16
(PID.TID 0000.0001) %MON dynstat_eta_sd               =   1.6479048662092E+00
(PID.TID 0000.0001) %MON dynstat_eta_del2             =   1.3960880059177E-02
(PID.TID 0000.0001) %MON dynstat_uvel_max             =   1.4267518663835E-01
(PID.TID 0000.0001) %MON dynstat_uvel_min             =  -3.8630556095987E-01
(PID.TID 0000.0001) %MON dynstat_uvel_mean            =   1.2798079294490E-02
(PID.TID 0000.0001) %MON dynstat_uvel_sd              =   3.8730340201701E-02
(PID.TID 0000.0001) %MON dynstat_uvel_del2            =   6.1869993915448E-04
(PID.TID 0000.0001) %MON dynstat_vvel_max             =   2.3315562932723E-02
(PID.TID 0000.0001) %MON dynstat_vvel_min             =  -2.3315562932694E-02
(PID.TID 0000.0001) %MON dynstat_vvel_mean            =   1.3132614486098E-15
(PID.TID 0000.0001) %MON dynstat_vvel_sd              =   1.5581778632317E-03
(PID.TID 0000.0001) %MON dynstat_vvel_del2            =   7.2596923232320E-05
(PID.TID 0000.0001) %MON dynstat_wvel_max             =   1.2015228202586E-06
(PID.TID 0000.0001) %MON dynstat_wvel_min             =  -8.6266905637192E-07
(PID.TID 0000.0001) %MON dynstat_wvel_mean            =  -2.5622352916718E-24
(PID.TID 0000.0001) %MON dynstat_wvel_sd              =   2.9524108002657E-07
(PID.TID 0000.0001) %MON dynstat_wvel_del2            =   3.6381683603279E-08
(PID.TID 0000.0001) %MON dynstat_theta_max            =   2.6675697600936E+01
(PID.TID 0000.0001) %MON dynstat_theta_min            =  -9.3076803233823E-01
(PID.TID 0000.0001) %MON dynstat_theta_mean           =   2.2243188058633E+00
(PID.TID 0000.0001) %MON dynstat_theta_sd             =   3.9280342233323E+00
(PID.TID 0000.0001) %MON dynstat_theta_del2           =   4.1675022762615E-02
(PID.TID 0000.0001) %MON dynstat_salt_max             =   3.4700000000000E+01
(PID.TID 0000.0001) %MON dynstat_salt_min             =   3.4700000000000E+01
(PID.TID 0000.0001) %MON dynstat_salt_mean            =   3.4700000000000E+01
(PID.TID 0000.0001) %MON dynstat_salt_sd              =   4.2632564145606E-14
(PID.TID 0000.0001) %MON dynstat_salt_del2            =   0.0000000000000E+00
(PID.TID 0000.0001) %MON advcfl_uvel_max              =   1.0010493665918E-01
(PID.TID 0000.0001) %MON advcfl_vvel_max              =   6.0397865882075E-03
(PID.TID 0000.0001) %MON advcfl_wvel_max              =   1.7301928611723E-03
(PID.TID 0000.0001) %MON advcfl_W_hf_max              =   2.0762314334068E-03
(PID.TID 0000.0001) %MON pe_b_mean                    =   2.5615329130410E-03
(PID.TID 0000.0001) %MON ke_max                       =   7.4645799338187E-02
(PID.TID 0000.0001) %MON ke_mean                      =   8.3321872950722E-04
(PID.TID 0000.0001) %MON ke_vol                       =   2.1823819113454E+16
(PID.TID 0000.0001) %MON vort_r_min                   =  -1.7705095522705E-07
(PID.TID 0000.0001) %MON vort_r_max                   =   1.7705095522688E-07
(PID.TID 0000.0001) %MON vort_a_mean                  =  -7.1829796902513E-22
(PID.TID 0000.0001) %MON vort_a_sd                    =   8.3492810674822E-05
(PID.TID 0000.0001) %MON vort_p_mean                  =  -7.2277590433602E-22
(PID.TID 0000.0001) %MON vort_p_sd                    =   8.6788034830297E-05
(PID.TID 0000.0001) %MON surfExpan_theta_mean         =  -1.5562064388967E-06
(PID.TID 0000.0001) %MON surfExpan_salt_mean          =   6.1024666433343E-22
(PID.TID 0000.0001) // =======================================================
(PID.TID 0000.0001) // End MONITOR dynamic field statistics
(PID.TID 0000.0001) // =======================================================
 cg2d: Sum(rhs),rhsMax =   1.22124532708767E-14  1.47876389344602E+00
(PID.TID 0000.0001)                    cg2d_init_res =    1.55179840106573E-03
(PID.TID 0000.0001)                       cg2d_iters =    27
(PID.TID 0000.0001)                         cg2d_res =    6.66184844102757E-18
(PID.TID 0000.0001) // =======================================================
(PID.TID 0000.0001) // Begin MONITOR dynamic field statistics
(PID.TID 0000.0001) // =======================================================
(PID.TID 0000.0001) %MON time_tsnumber                =                 36013
(PID.TID 0000.0001) %MON time_secondsf                =   3.1115232000000E+09
(PID.TID 0000.0001) %MON dynstat_eta_max              =   1.6151198903337E+00
(PID.TID 0000.0001) %MON dynstat_eta_min              =  -3.9213228365389E+00
(PID.TID 0000.0001) %MON dynstat_eta_mean             =  -5.0260451403934E-16
(PID.TID 0000.0001) %MON dynstat_eta_sd               =   1.6475780273955E+00
(PID.TID 0000.0001) %MON dynstat_eta_del2             =   1.3959934585598E-02
(PID.TID 0000.0001) %MON dynstat_uvel_max             =   1.4265124768814E-01
(PID.TID 0000.0001) %MON dynstat_uvel_min             =  -3.8630480389697E-01
(PID.TID 0000.0001) %MON dynstat_uvel_mean            =   1.2804034362141E-02
(PID.TID 0000.0001) %MON dynstat_uvel_sd              =   3.8729355314185E-02
(PID.TID 0000.0001) %MON dynstat_uvel_del2            =   6.1866598832964E-04
(PID.TID 0000.0001) %MON dynstat_vvel_max             =   2.3316401053512E-02
(PID.TID 0000.0001) %MON dynstat_vvel_min             =  -2.3316401053484E-02
(PID.TID 0000.0001) %MON dynstat_vvel_mean            =   1.1301815866778E-15
(PID.TID 0000.0001) %MON dynstat_vvel_sd              =   1.5572396185091E-03
(PID.TID 0000.0001) %MON dynstat_vvel_del2            =   7.2580082345670E-05
(PID.TID 0000.0001) %MON dynstat_wvel_max             =   1.2952241275750E-06
(PID.TID 0000.0001) %MON dynstat_wvel_min             =  -8.6792755442604E-07
(PID.TID 0000.0001) %MON dynstat_wvel_mean            =   3.9348613407816E-24
(PID.TID 0000.0001) %MON dynstat_wvel_sd              =   2.8526363157085E-07
(PID.TID 0000.0001) %MON dynstat_wvel_del2            =   3.6395102610614E-08
(PID.TID 0000.0001) %MON dynstat_theta_max            =   2.6675612493614E+01
(PID.TID 0000.0001) %MON dynstat_theta_min            =  -9.3076850184553E-01
(PID.TID 0000.0001) %MON dynstat_theta_mean           =   2.2243247601241E+00
(PID.TID 0000.0001) %MON dynstat_theta_sd             =   3.9280728031949E+00
(PID.TID 0000.0001) %MON dynstat_theta_del2           =   4.1676082172284E-02
(PID.TID 0000.0001) %MON dynstat_salt_max             =   3.4700000000000E+01
(PID.TID 0000.0001) %MON dynstat_salt_min             =   3.4700000000000E+01
(PID.TID 0000.0001) %MON dynstat_salt_mean            =   3.4700000000000E+01
(PID.TID 0000.0001) %MON dynstat_salt_sd              =   4.2632564145606E-14
(PID.TID 0000.0001) %MON dynstat_salt_del2            =   0.0000000000000E+00
(PID.TID 0000.0001) %MON advcfl_uvel_max              =   1.0010474047838E-01
(PID.TID 0000.0001) %MON advcfl_vvel_max              =   6.0400036994439E-03
(PID.TID 0000.0001) %MON advcfl_wvel_max              =   1.8651227437080E-03
(PID.TID 0000.0001) %MON advcfl_W_hf_max              =   2.2381472924496E-03
(PID.TID 0000.0001) %MON pe_b_mean                    =   2.5605169255632E-03
(PID.TID 0000.0001) %MON ke_max                       =   7.4645505150916E-02
(PID.TID 0000.0001) %MON ke_mean                      =   8.3325536535619E-04
(PID.TID 0000.0001) %MON ke_vol                       =   2.1823819113454E+16
(PID.TID 0000.0001) %MON vort_r_min                   =  -1.7705633929936E-07
(PID.TID 0000.0001) %MON vort_r_max                   =   1.7705633929918E-07
(PID.TID 0000.0001) %MON vort_a_mean                  =   1.0556803484157E-21
(PID.TID 0000.0001) %MON vort_a_sd                    =   8.3492811819996E-05
(PID.TID 0000.0001) %MON vort_p_mean                  =   1.0622615563726E-21
(PID.TID 0000.0001) %MON vort_p_sd                    =   8.6788036261645E-05
(PID.TID 0000.0001) %MON surfExpan_theta_mean         =  -9.5845175090675E-07
(PID.TID 0000.0001) %MON surfExpan_salt_mean          =  -6.3798514907586E-22
(PID.TID 0000.0001) // =======================================================
(PID.TID 0000.0001) // End MONITOR dynamic field statistics
(PID.TID 0000.0001) // =======================================================
 cg2d: Sum(rhs),rhsMax =   1.05471187339390E-14  1.47862412024137E+00
(PID.TID 0000.0001)                    cg2d_init_res =    6.59715636081688E-04
(PID.TID 0000.0001)                       cg2d_iters =    27
(PID.TID 0000.0001)                         cg2d_res =    1.01836239360956E-17
(PID.TID 0000.0001) // =======================================================
(PID.TID 0000.0001) // Begin MONITOR dynamic field statistics
(PID.TID 0000.0001) // =======================================================
(PID.TID 0000.0001) %MON time_tsnumber                =                 36014
(PID.TID 0000.0001) %MON time_secondsf                =   3.1116096000000E+09
(PID.TID 0000.0001) %MON dynstat_eta_max              =   1.6149679203562E+00
(PID.TID 0000.0001) %MON dynstat_eta_min              =  -3.9210534306543E+00
(PID.TID 0000.0001) %MON dynstat_eta_mean             =  -3.2576218502550E-16
(PID.TID 0000.0001) %MON dynstat_eta_sd               =   1.6474386759922E+00
(PID.TID 0000.0001) %MON dynstat_eta_del2             =   1.3958430360155E-02
(PID.TID 0000.0001) %MON dynstat_uvel_max             =   1.4262327262603E-01
(PID.TID 0000.0001) %MON dynstat_uvel_min             =  -3.8630390618448E-01
(PID.TID 0000.0001) %MON dynstat_uvel_mean            =   1.2806963096611E-02
(PID.TID 0000.0001) %MON dynstat_uvel_sd              =   3.8727370606708E-02
(PID.TID 0000.0001) %MON dynstat_uvel_del2            =   6.1861341824531E-04
(PID.TID 0000.0001) %MON dynstat_vvel_max             =   2.3317765396940E-02
(PID.TID 0000.0001) %MON dynstat_vvel_min             =  -2.3317765396914E-02
(PID.TID 0000.0001) %MON dynstat_vvel_mean            =   9.0254567065007E-16
(PID.TID 0000.0001) %MON dynstat_vvel_sd              =   1.5567766735170E-03
(PID.TID 0000.0001) %MON dynstat_vvel_del2            =   7.2579737087044E-05
(PID.TID 0000.0001) %MON dynstat_wvel_max             =   1.3820108836320E-06
(PID.TID 0000.0001) %MON dynstat_wvel_min             =  -8.6355087368207E-07
(PID.TID 0000.0001) %MON dynstat_wvel_mean            =  -1.3726260491099E-24
(PID.TID 0000.0001) %MON dynstat_wvel_sd              =   2.7830895481661E-07
(PID.TID 0000.0001) %MON dynstat_wvel_del2            =   3.6442288666609E-08
(PID.TID 0000.0001) %MON dynstat_theta_max            =   2.6675032823639E+01
(PID.TID 0000.0001) %MON dynstat_theta_min            =  -9.3076899265332E-01
(PID.TID 0000.0001) %MON dynstat_theta_mean           =   2.2243203614950E+00
(PID.TID 0000.0001) %MON dynstat_theta_sd             =   3.9280787553757E+00
(PID.TID 0000.0001) %MON dynstat_theta_del2           =   4.1678551418408E-02
(PID.TID 0000.0001) %MON dynstat_salt_max             =   3.4700000000000E+01
(PID.TID 0000.0001) %MON dynstat_salt_min             =   3.4700000000000E+01
(PID.TID 0000.0001) %MON dynstat_salt_mean            =   3.4700000000000E+01
(PID.TID 0000.0001) %MON dynstat_salt_sd              =   4.2632564145606E-14
(PID.TID 0000.0001) %MON dynstat_salt_del2            =   0.0000000000000E+00
(PID.TID 0000.0001) %MON advcfl_uvel_max              =   1.0010450785048E-01
(PID.TID 0000.0001) %MON advcfl_vvel_max              =   6.0403571261727E-03
(PID.TID 0000.0001) %MON advcfl_wvel_max              =   1.9900956724301E-03
(PID.TID 0000.0001) %MON advcfl_W_hf_max              =   2.3881148069162E-03
(PID.TID 0000.0001) %MON pe_b_mean                    =   2.5600838091568E-03
(PID.TID 0000.0001) %MON ke_max                       =   7.4645158483624E-02
(PID.TID 0000.0001) %MON ke_mean                      =   8.3321528263799E-04
(PID.TID 0000.0001) %MON ke_vol                       =   2.1823819113454E+16
(PID.TID 0000.0001) %MON vort_r_min                   =  -1.7706044945675E-07
(PID.TID 0000.0001) %MON vort_r_max                   =   1.7706044945657E-07
(PID.TID 0000.0001) %MON vort_a_mean                  =   9.5773062536685E-22
(PID.TID 0000.0001) %MON vort_a_sd                    =   8.3492812388144E-05
(PID.TID 0000.0001) %MON vort_p_mean                  =   9.6370120578136E-22
(PID.TID 0000.0001) %MON vort_p_sd                    =   8.6788037018388E-05
(PID.TID 0000.0001) %MON surfExpan_theta_mean         =  -3.3269590219443E-07
(PID.TID 0000.0001) %MON surfExpan_salt_mean          =   1.5602897667616E-23
(PID.TID 0000.0001) // =======================================================
(PID.TID 0000.0001) // End MONITOR dynamic field statistics
(PID.TID 0000.0001) // =======================================================
 cg2d: Sum(rhs),rhsMax =   1.08801856413265E-14  1.47856096102644E+00
(PID.TID 0000.0001)                    cg2d_init_res =    7.93103836768295E-04
(PID.TID 0000.0001)                       cg2d_iters =    26
(PID.TID 0000.0001)                         cg2d_res =    3.98421065129153E-13
(PID.TID 0000.0001) // =======================================================
(PID.TID 0000.0001) // Begin MONITOR dynamic field statistics
(PID.TID 0000.0001) // =======================================================
(PID.TID 0000.0001) %MON time_tsnumber                =                 36015
(PID.TID 0000.0001) %MON time_secondsf                =   3.1116960000000E+09
(PID.TID 0000.0001) %MON dynstat_eta_max              =   1.6149076478069E+00
(PID.TID 0000.0001) %MON dynstat_eta_min              =  -3.9213364942190E+00
(PID.TID 0000.0001) %MON dynstat_eta_mean             =  -4.0487585853169E-16
(PID.TID 0000.0001) %MON dynstat_eta_sd               =   1.6474942724937E+00
(PID.TID 0000.0001) %MON dynstat_eta_del2             =   1.3956819547254E-02
(PID.TID 0000.0001) %MON dynstat_uvel_max             =   1.4259150628941E-01
(PID.TID 0000.0001) %MON dynstat_uvel_min             =  -3.8630287913600E-01
(PID.TID 0000.0001) %MON dynstat_uvel_mean            =   1.2806834306195E-02
(PID.TID 0000.0001) %MON dynstat_uvel_sd              =   3.8724377126279E-02
(PID.TID 0000.0001) %MON dynstat_uvel_del2            =   6.1854331423831E-04
(PID.TID 0000.0001) %MON dynstat_vvel_max             =   2.3320392870999E-02
(PID.TID 0000.0001) %MON dynstat_vvel_min             =  -2.3320392870975E-02
(PID.TID 0000.0001) %MON dynstat_vvel_mean            =   6.6753624500366E-16
(PID.TID 0000.0001) %MON dynstat_vvel_sd              =   1.5568414223253E-03
(PID.TID 0000.0001) %MON dynstat_vvel_del2            =   7.2582035426246E-05
(PID.TID 0000.0001) %MON dynstat_wvel_max             =   1.4580724094150E-06
(PID.TID 0000.0001) %MON dynstat_wvel_min             =  -8.4910316643003E-07
(PID.TID 0000.0001) %MON dynstat_wvel_mean            =   1.4641344523839E-24
(PID.TID 0000.0001) %MON dynstat_wvel_sd              =   2.7485195408849E-07
(PID.TID 0000.0001) %MON dynstat_wvel_del2            =   3.6495168348121E-08
(PID.TID 0000.0001) %MON dynstat_theta_max            =   2.6674022980597E+01
(PID.TID 0000.0001) %MON dynstat_theta_min            =  -9.3076948086114E-01
(PID.TID 0000.0001) %MON dynstat_theta_mean           =   2.2243056680232E+00
(PID.TID 0000.0001) %MON dynstat_theta_sd             =   3.9280530377167E+00
(PID.TID 0000.0001) %MON dynstat_theta_del2           =   4.1682131146492E-02
(PID.TID 0000.0001) %MON dynstat_salt_max             =   3.4700000000000E+01
(PID.TID 0000.0001) %MON dynstat_salt_min             =   3.4700000000000E+01
(PID.TID 0000.0001) %MON dynstat_salt_mean            =   3.4700000000000E+01
(PID.TID 0000.0001) %MON dynstat_salt_sd              =   4.2632564145606E-14
(PID.TID 0000.0001) %MON dynstat_salt_del2            =   0.0000000000000E+00
(PID.TID 0000.0001) %MON advcfl_uvel_max              =   1.0010424170722E-01
(PID.TID 0000.0001) %MON advcfl_vvel_max              =   6.0410377609330E-03
(PID.TID 0000.0001) %MON advcfl_wvel_max              =   2.0996242695577E-03
(PID.TID 0000.0001) %MON advcfl_W_hf_max              =   2.5195491234692E-03
(PID.TID 0000.0001) %MON pe_b_mean                    =   2.5602566035763E-03
(PID.TID 0000.0001) %MON ke_max                       =   7.4644765193196E-02
(PID.TID 0000.0001) %MON ke_mean                      =   8.3309779501540E-04
(PID.TID 0000.0001) %MON ke_vol                       =   2.1823819113454E+16
(PID.TID 0000.0001) %MON vort_r_min                   =  -1.7706327471232E-07
(PID.TID 0000.0001) %MON vort_r_max                   =   1.7706327471214E-07
(PID.TID 0000.0001) %MON vort_a_mean                  =  -1.9372278558557E-21
(PID.TID 0000.0001) %MON vort_a_sd                    =   8.3492812374472E-05
(PID.TID 0000.0001) %MON vort_p_mean                  =  -1.9493047116941E-21
(PID.TID 0000.0001) %MON vort_p_sd                    =   8.6788037093157E-05
(PID.TID 0000.0001) %MON surfExpan_theta_mean         =   2.9272198484683E-07
(PID.TID 0000.0001) %MON surfExpan_salt_mean          =  -6.4318611496507E-22
(PID.TID 0000.0001) // =======================================================
(PID.TID 0000.0001) // End MONITOR dynamic field statistics
(PID.TID 0000.0001) // =======================================================
 cg2d: Sum(rhs),rhsMax =   1.06581410364015E-14  1.47859974740519E+00
(PID.TID 0000.0001)                    cg2d_init_res =    1.63433855458126E-03
(PID.TID 0000.0001)                       cg2d_iters =    27
(PID.TID 0000.0001)                         cg2d_res =    1.11097881789484E-17
(PID.TID 0000.0001) // =======================================================
(PID.TID 0000.0001) // Begin MONITOR dynamic field statistics
(PID.TID 0000.0001) // =======================================================
(PID.TID 0000.0001) %MON time_tsnumber                =                 36016
(PID.TID 0000.0001) %MON time_secondsf                =   3.1117824000000E+09
(PID.TID 0000.0001) %MON dynstat_eta_max              =   1.6149636994748E+00
(PID.TID 0000.0001) %MON dynstat_eta_min              =  -3.9220991386597E+00
(PID.TID 0000.0001) %MON dynstat_eta_mean             =  -3.6531902177860E-16
(PID.TID 0000.0001) %MON dynstat_eta_sd               =   1.6477417164769E+00
(PID.TID 0000.0001) %MON dynstat_eta_del2             =   1.3955560626874E-02
(PID.TID 0000.0001) %MON dynstat_uvel_max             =   1.4255639447645E-01
(PID.TID 0000.0001) %MON dynstat_uvel_min             =  -3.8630173618050E-01
(PID.TID 0000.0001) %MON dynstat_uvel_mean            =   1.2803766521034E-02
(PID.TID 0000.0001) %MON dynstat_uvel_sd              =   3.8720420508264E-02
(PID.TID 0000.0001) %MON dynstat_uvel_del2            =   6.1845778879122E-04
(PID.TID 0000.0001) %MON dynstat_vvel_max             =   2.3324639542657E-02
(PID.TID 0000.0001) %MON dynstat_vvel_min             =  -2.3324639542633E-02
(PID.TID 0000.0001) %MON dynstat_vvel_mean            =   4.0736766840545E-16
(PID.TID 0000.0001) %MON dynstat_vvel_sd              =   1.5573753972855E-03
(PID.TID 0000.0001) %MON dynstat_vvel_del2            =   7.2588365348707E-05
(PID.TID 0000.0001) %MON dynstat_wvel_max             =   1.5217328634527E-06
(PID.TID 0000.0001) %MON dynstat_wvel_min             =  -8.3824853371114E-07
(PID.TID 0000.0001) %MON dynstat_wvel_mean            =  -1.5098886540209E-24
(PID.TID 0000.0001) %MON dynstat_wvel_sd              =   2.7474570579871E-07
(PID.TID 0000.0001) %MON dynstat_wvel_del2            =   3.6523583793126E-08
(PID.TID 0000.0001) %MON dynstat_theta_max            =   2.6672658018747E+01
(PID.TID 0000.0001) %MON dynstat_theta_min            =  -9.3076998403342E-01
(PID.TID 0000.0001) %MON dynstat_theta_mean           =   2.2242812086687E+00
(PID.TID 0000.0001) %MON dynstat_theta_sd             =   3.9279979533305E+00
(PID.TID 0000.0001) %MON dynstat_theta_del2           =   4.1686503267897E-02
(PID.TID 0000.0001) %MON dynstat_salt_max             =   3.4700000000000E+01
(PID.TID 0000.0001) %MON dynstat_salt_min             =   3.4700000000000E+01
(PID.TID 0000.0001) %MON dynstat_salt_mean            =   3.4700000000000E+01
(PID.TID 0000.0001) %MON dynstat_salt_sd              =   4.2632564145606E-14
(PID.TID 0000.0001) %MON dynstat_salt_del2            =   0.0000000000000E+00
(PID.TID 0000.0001) %MON advcfl_uvel_max              =   1.0010394552850E-01
(PID.TID 0000.0001) %MON advcfl_vvel_max              =   6.0421378411924E-03
(PID.TID 0000.0001) %MON advcfl_wvel_max              =   2.1912953233719E-03
(PID.TID 0000.0001) %MON advcfl_W_hf_max              =   2.6295543880463E-03
(PID.TID 0000.0001) %MON pe_b_mean                    =   2.5610257324021E-03
(PID.TID 0000.0001) %MON ke_max                       =   7.4644331330023E-02
(PID.TID 0000.0001) %MON ke_mean                      =   8.3290610719277E-04
(PID.TID 0000.0001) %MON ke_vol                       =   2.1823819113454E+16
(PID.TID 0000.0001) %MON vort_r_min                   =  -1.7706484586115E-07
(PID.TID 0000.0001) %MON vort_r_max                   =   1.7706484586097E-07
(PID.TID 0000.0001) %MON vort_a_mean                  =   3.3302905836620E-21
(PID.TID 0000.0001) %MON vort_a_sd                    =   8.3492811800968E-05
(PID.TID 0000.0001) %MON vort_p_mean                  =   3.3510519201034E-21
(PID.TID 0000.0001) %MON vort_p_sd                    =   8.6788036514842E-05
(PID.TID 0000.0001) %MON surfExpan_theta_mean         =   8.8899396091697E-07
(PID.TID 0000.0001) %MON surfExpan_salt_mean          =  -9.2923923887136E-22
(PID.TID 0000.0001) // =======================================================
(PID.TID 0000.0001) // End MONITOR dynamic field statistics
(PID.TID 0000.0001) // =======================================================
 Computing Diagnostic #     23  ETAN         Counter:       1   Parms: SM      M1      
 Computing Diagnostic #     24  ETANSQ       Counter:       1   Parms: SM P    M1      
 Computing Diagnostic #     25  DETADT2      Counter:       1   Parms: SM      M1      
 Computing Diagnostic #     69  PHIBOT       Counter:       1   Parms: SM      M1      
 Computing Diagnostic #     70  PHIBOTSQ     Counter:       1   Parms: SM P    M1      
 Computing Diagnostic #    171  GM_VisbK     Counter:       1   Parms: SM P    M1      
 cg2d: Sum(rhs),rhsMax =   1.50990331349021E-14  1.47875227728231E+00
(PID.TID 0000.0001)                    cg2d_init_res =    2.46328318491266E-03
(PID.TID 0000.0001)                       cg2d_iters =    27
(PID.TID 0000.0001)                         cg2d_res =    1.82221817027878E-17
(PID.TID 0000.0001) // =======================================================
(PID.TID 0000.0001) // Begin MONITOR dynamic field statistics
(PID.TID 0000.0001) // =======================================================
(PID.TID 0000.0001) %MON time_tsnumber                =                 36017
(PID.TID 0000.0001) %MON time_secondsf                =   3.1118688000000E+09
(PID.TID 0000.0001) %MON dynstat_eta_max              =   1.6151467372397E+00
(PID.TID 0000.0001) %MON dynstat_eta_min              =  -3.9232460851161E+00
(PID.TID 0000.0001) %MON dynstat_eta_mean             =  -3.3739654877641E-16
(PID.TID 0000.0001) %MON dynstat_eta_sd               =   1.6481668815277E+00
(PID.TID 0000.0001) %MON dynstat_eta_del2             =   1.3955007789481E-02
(PID.TID 0000.0001) %MON dynstat_uvel_max             =   1.4251861729532E-01
(PID.TID 0000.0001) %MON dynstat_uvel_min             =  -3.8630049074393E-01
(PID.TID 0000.0001) %MON dynstat_uvel_mean            =   1.2798013679437E-02
(PID.TID 0000.0001) %MON dynstat_uvel_sd              =   3.8715601272786E-02
(PID.TID 0000.0001) %MON dynstat_uvel_del2            =   6.1835977559522E-04
(PID.TID 0000.0001) %MON dynstat_vvel_max             =   2.3330572392684E-02
(PID.TID 0000.0001) %MON dynstat_vvel_min             =  -2.3330572392661E-02
(PID.TID 0000.0001) %MON dynstat_vvel_mean            =   1.4179312439890E-16
(PID.TID 0000.0001) %MON dynstat_vvel_sd              =   1.5582275425006E-03
(PID.TID 0000.0001) %MON dynstat_vvel_del2            =   7.2593043734447E-05
(PID.TID 0000.0001) %MON dynstat_wvel_max             =   1.5729014653976E-06
(PID.TID 0000.0001) %MON dynstat_wvel_min             =  -8.2901481831437E-07
(PID.TID 0000.0001) %MON dynstat_wvel_mean            =   7.3206722619193E-25
(PID.TID 0000.0001) %MON dynstat_wvel_sd              =   2.7734893953849E-07
(PID.TID 0000.0001) %MON dynstat_wvel_del2            =   3.6532228943247E-08
(PID.TID 0000.0001) %MON dynstat_theta_max            =   2.6671015810379E+01
(PID.TID 0000.0001) %MON dynstat_theta_min            =  -9.3077048767834E-01
(PID.TID 0000.0001) %MON dynstat_theta_mean           =   2.2242479628354E+00
(PID.TID 0000.0001) %MON dynstat_theta_sd             =   3.9279169377129E+00
(PID.TID 0000.0001) %MON dynstat_theta_del2           =   4.1691403578020E-02
(PID.TID 0000.0001) %MON dynstat_salt_max             =   3.4700000000000E+01
(PID.TID 0000.0001) %MON dynstat_salt_min             =   3.4700000000000E+01
(PID.TID 0000.0001) %MON dynstat_salt_mean            =   3.4700000000000E+01
(PID.TID 0000.0001) %MON dynstat_salt_sd              =   4.2632564145606E-14
(PID.TID 0000.0001) %MON dynstat_salt_del2            =   0.0000000000000E+00
(PID.TID 0000.0001) %MON advcfl_uvel_max              =   1.0010362279343E-01
(PID.TID 0000.0001) %MON advcfl_vvel_max              =   6.0436747180042E-03
(PID.TID 0000.0001) %MON advcfl_wvel_max              =   2.2649781101726E-03
(PID.TID 0000.0001) %MON advcfl_W_hf_max              =   2.7179737322071E-03
(PID.TID 0000.0001) %MON pe_b_mean                    =   2.5623475404296E-03
(PID.TID 0000.0001) %MON ke_max                       =   7.4643862463280E-02
(PID.TID 0000.0001) %MON ke_mean                      =   8.3264716642427E-04
(PID.TID 0000.0001) %MON ke_vol                       =   2.1823819113454E+16
(PID.TID 0000.0001) %MON vort_r_min                   =  -1.7706522381955E-07
(PID.TID 0000.0001) %MON vort_r_max                   =   1.7706522381937E-07
(PID.TID 0000.0001) %MON vort_a_mean                  =  -3.7656226861015E-21
(PID.TID 0000.0001) %MON vort_a_sd                    =   8.3492810714419E-05
(PID.TID 0000.0001) %MON vort_p_mean                  =  -3.7890979227313E-21
(PID.TID 0000.0001) %MON vort_p_sd                    =   8.6788035343131E-05
(PID.TID 0000.0001) %MON surfExpan_theta_mean         =   1.4284880198298E-06
(PID.TID 0000.0001) %MON surfExpan_salt_mean          =   0.0000000000000E+00
(PID.TID 0000.0001) // =======================================================
(PID.TID 0000.0001) // End MONITOR dynamic field statistics
(PID.TID 0000.0001) // =======================================================
 cg2d: Sum(rhs),rhsMax =   7.43849426498855E-15  1.47901542595963E+00
(PID.TID 0000.0001)                    cg2d_init_res =    3.18795398340504E-03
(PID.TID 0000.0001)                       cg2d_iters =    27
(PID.TID 0000.0001)                         cg2d_res =    1.87019524743190E-17
(PID.TID 0000.0001) // =======================================================
(PID.TID 0000.0001) // Begin MONITOR dynamic field statistics
(PID.TID 0000.0001) // =======================================================
(PID.TID 0000.0001) %MON time_tsnumber                =                 36018
(PID.TID 0000.0001) %MON time_secondsf                =   3.1119552000000E+09
(PID.TID 0000.0001) %MON dynstat_eta_max              =   1.6154518369588E+00
(PID.TID 0000.0001) %MON dynstat_eta_min              =  -3.9246754844938E+00
(PID.TID 0000.0001) %MON dynstat_eta_mean             =  -3.1412782127459E-16
(PID.TID 0000.0001) %MON dynstat_eta_sd               =   1.6487452314776E+00
(PID.TID 0000.0001) %MON dynstat_eta_del2             =   1.3955340777488E-02
(PID.TID 0000.0001) %MON dynstat_uvel_max             =   1.4247909512174E-01
(PID.TID 0000.0001) %MON dynstat_uvel_min             =  -3.8629915494690E-01
(PID.TID 0000.0001) %MON dynstat_uvel_mean            =   1.2789945087441E-02
(PID.TID 0000.0001) %MON dynstat_uvel_sd              =   3.8710070739803E-02
(PID.TID 0000.0001) %MON dynstat_uvel_del2            =   6.1825279853552E-04
(PID.TID 0000.0001) %MON dynstat_vvel_max             =   2.3338083057297E-02
(PID.TID 0000.0001) %MON dynstat_vvel_min             =  -2.3338083057273E-02
(PID.TID 0000.0001) %MON dynstat_vvel_mean            =  -1.4322494010932E-16
(PID.TID 0000.0001) %MON dynstat_vvel_sd              =   1.5591870452646E-03
(PID.TID 0000.0001) %MON dynstat_vvel_del2            =   7.2596839115199E-05
(PID.TID 0000.0001) %MON dynstat_wvel_max             =   1.6124034917393E-06
(PID.TID 0000.0001) %MON dynstat_wvel_min             =  -8.1740054988952E-07
(PID.TID 0000.0001) %MON dynstat_wvel_mean            =  -4.5754201636996E-26
(PID.TID 0000.0001) %MON dynstat_wvel_sd              =   2.8163862295159E-07
(PID.TID 0000.0001) %MON dynstat_wvel_del2            =   3.6532336397125E-08
(PID.TID 0000.0001) %MON dynstat_theta_max            =   2.6669172105468E+01
(PID.TID 0000.0001) %MON dynstat_theta_min            =  -9.3077100132303E-01
(PID.TID 0000.0001) %MON dynstat_theta_mean           =   2.2242073122884E+00
(PID.TID 0000.0001) %MON dynstat_theta_sd             =   3.9278144231896E+00
(PID.TID 0000.0001) %MON dynstat_theta_del2           =   4.1696601182574E-02
(PID.TID 0000.0001) %MON dynstat_salt_max             =   3.4700000000000E+01
(PID.TID 0000.0001) %MON dynstat_salt_min             =   3.4700000000000E+01
(PID.TID 0000.0001) %MON dynstat_salt_mean            =   3.4700000000000E+01
(PID.TID 0000.0001) %MON dynstat_salt_sd              =   4.2632564145606E-14
(PID.TID 0000.0001) %MON dynstat_salt_del2            =   0.0000000000000E+00
(PID.TID 0000.0001) %MON advcfl_uvel_max              =   1.0010327664290E-01
(PID.TID 0000.0001) %MON advcfl_vvel_max              =   6.0456203202410E-03
(PID.TID 0000.0001) %MON advcfl_wvel_max              =   2.3218610281045E-03
(PID.TID 0000.0001) %MON advcfl_W_hf_max              =   2.7862332337255E-03
(PID.TID 0000.0001) %MON pe_b_mean                    =   2.5641461369155E-03
(PID.TID 0000.0001) %MON ke_max                       =   7.4643363358349E-02
(PID.TID 0000.0001) %MON ke_mean                      =   8.3233128719684E-04
(PID.TID 0000.0001) %MON ke_vol                       =   2.1823819113454E+16
(PID.TID 0000.0001) %MON vort_r_min                   =  -1.7706448970460E-07
(PID.TID 0000.0001) %MON vort_r_max                   =   1.7706448970442E-07
(PID.TID 0000.0001) %MON vort_a_mean                  =  -3.3302905836620E-21
(PID.TID 0000.0001) %MON vort_a_sd                    =   8.3492809183323E-05
(PID.TID 0000.0001) %MON vort_p_mean                  =  -3.3510519201034E-21
(PID.TID 0000.0001) %MON vort_p_sd                    =   8.6788033661979E-05
(PID.TID 0000.0001) %MON surfExpan_theta_mean         =   1.8864583166285E-06
(PID.TID 0000.0001) %MON surfExpan_salt_mean          =  -5.2703121010614E-22
(PID.TID 0000.0001) // =======================================================
(PID.TID 0000.0001) // End MONITOR dynamic field statistics
(PID.TID 0000.0001) // =======================================================
 cg2d: Sum(rhs),rhsMax =   1.15463194561016E-14  1.47937236346042E+00
(PID.TID 0000.0001)                    cg2d_init_res =    3.76593900313040E-03
(PID.TID 0000.0001)                       cg2d_iters =    27
(PID.TID 0000.0001)                         cg2d_res =    1.90006198982221E-17
(PID.TID 0000.0001) // =======================================================
(PID.TID 0000.0001) // Begin MONITOR dynamic field statistics
(PID.TID 0000.0001) // =======================================================
(PID.TID 0000.0001) %MON time_tsnumber                =                 36019
(PID.TID 0000.0001) %MON time_secondsf                =   3.1120416000000E+09
(PID.TID 0000.0001) %MON dynstat_eta_max              =   1.6158596934884E+00
(PID.TID 0000.0001) %MON dynstat_eta_min              =  -3.9262899096286E+00
(PID.TID 0000.0001) %MON dynstat_eta_mean             =  -3.2576218502550E-16
(PID.TID 0000.0001) %MON dynstat_eta_sd               =   1.6494434512492E+00
(PID.TID 0000.0001) %MON dynstat_eta_del2             =   1.3956545675246E-02
(PID.TID 0000.0001) %MON dynstat_uvel_max             =   1.4243896257288E-01
(PID.TID 0000.0001) %MON dynstat_uvel_min             =  -3.8629773910566E-01
(PID.TID 0000.0001) %MON dynstat_uvel_mean            =   1.2780021612273E-02
(PID.TID 0000.0001) %MON dynstat_uvel_sd              =   3.8704022745494E-02
(PID.TID 0000.0001) %MON dynstat_uvel_del2            =   6.1814074003224E-04
(PID.TID 0000.0001) %MON dynstat_vvel_max             =   2.3346996302209E-02
(PID.TID 0000.0001) %MON dynstat_vvel_min             =  -2.3346996302186E-02
(PID.TID 0000.0001) %MON dynstat_vvel_mean            =  -4.1418150635598E-16
(PID.TID 0000.0001) %MON dynstat_vvel_sd              =   1.5600250169737E-03
(PID.TID 0000.0001) %MON dynstat_vvel_del2            =   7.2602298861181E-05
(PID.TID 0000.0001) %MON dynstat_wvel_max             =   1.6413538403339E-06
(PID.TID 0000.0001) %MON dynstat_wvel_min             =  -8.0678457700710E-07
(PID.TID 0000.0001) %MON dynstat_wvel_mean            =  -3.3400567195007E-24
(PID.TID 0000.0001) %MON dynstat_wvel_sd              =   2.8635995129227E-07
(PID.TID 0000.0001) %MON dynstat_wvel_del2            =   3.6540016964005E-08
(PID.TID 0000.0001) %MON dynstat_theta_max            =   2.6667198363258E+01
(PID.TID 0000.0001) %MON dynstat_theta_min            =  -9.3077152197748E-01
(PID.TID 0000.0001) %MON dynstat_theta_mean           =   2.2241609677827E+00
(PID.TID 0000.0001) %MON dynstat_theta_sd             =   3.9276956077446E+00
(PID.TID 0000.0001) %MON dynstat_theta_del2           =   4.1701926889332E-02
(PID.TID 0000.0001) %MON dynstat_salt_max             =   3.4700000000000E+01
(PID.TID 0000.0001) %MON dynstat_salt_min             =   3.4700000000000E+01
(PID.TID 0000.0001) %MON dynstat_salt_mean            =   3.4700000000000E+01
(PID.TID 0000.0001) %MON dynstat_salt_sd              =   4.2632564145606E-14
(PID.TID 0000.0001) %MON dynstat_salt_del2            =   0.0000000000000E+00
(PID.TID 0000.0001) %MON advcfl_uvel_max              =   1.0010290975018E-01
(PID.TID 0000.0001) %MON advcfl_vvel_max              =   6.0479292542881E-03
(PID.TID 0000.0001) %MON advcfl_wvel_max              =   2.3635495300808E-03
(PID.TID 0000.0001) %MON advcfl_W_hf_max              =   2.8362594360970E-03
(PID.TID 0000.0001) %MON pe_b_mean                    =   2.5663183544139E-03
(PID.TID 0000.0001) %MON ke_max                       =   7.4642837953627E-02
(PID.TID 0000.0001) %MON ke_mean                      =   8.3197157568405E-04
(PID.TID 0000.0001) %MON ke_vol                       =   2.1823819113454E+16
(PID.TID 0000.0001) %MON vort_r_min                   =  -1.7706724750999E-07
(PID.TID 0000.0001) %MON vort_r_max                   =   1.7706724750957E-07
(PID.TID 0000.0001) %MON vort_a_mean                  =   3.2214575580521E-21
(PID.TID 0000.0001) %MON vort_a_sd                    =   8.3492807293924E-05
(PID.TID 0000.0001) %MON vort_p_mean                  =   3.2415404194464E-21
(PID.TID 0000.0001) %MON vort_p_sd                    =   8.6788031572996E-05
(PID.TID 0000.0001) %MON surfExpan_theta_mean         =   2.2426035943781E-06
(PID.TID 0000.0001) %MON surfExpan_salt_mean          =  -4.5768499825007E-22
(PID.TID 0000.0001) // =======================================================
(PID.TID 0000.0001) // End MONITOR dynamic field statistics
(PID.TID 0000.0001) // =======================================================
 cg2d: Sum(rhs),rhsMax =   7.32747196252603E-15  1.47979581485321E+00
(PID.TID 0000.0001)                    cg2d_init_res =    4.16548564561644E-03
(PID.TID 0000.0001)                       cg2d_iters =    27
(PID.TID 0000.0001)                         cg2d_res =    9.40550451063403E-18
(PID.TID 0000.0001) // =======================================================
(PID.TID 0000.0001) // Begin MONITOR dynamic field statistics
(PID.TID 0000.0001) // =======================================================
(PID.TID 0000.0001) %MON time_tsnumber                =                 36020
(PID.TID 0000.0001) %MON time_secondsf                =   3.1121280000000E+09
(PID.TID 0000.0001) %MON dynstat_eta_max              =   1.6163400122201E+00
(PID.TID 0000.0001) %MON dynstat_eta_min              =  -3.9280016897832E+00
(PID.TID 0000.0001) %MON dynstat_eta_mean             =  -3.7229964002914E-16
(PID.TID 0000.0001) %MON dynstat_eta_sd               =   1.6502218719681E+00
(PID.TID 0000.0001) %MON dynstat_eta_del2             =   1.3958442169242E-02
(PID.TID 0000.0001) %MON dynstat_uvel_max             =   1.4239951357633E-01
(PID.TID 0000.0001) %MON dynstat_uvel_min             =  -3.8629625187539E-01
(PID.TID 0000.0001) %MON dynstat_uvel_mean            =   1.2768769713379E-02
(PID.TID 0000.0001) %MON dynstat_uvel_sd              =   3.8697681919407E-02
(PID.TID 0000.0001) %MON dynstat_uvel_del2            =   6.1802762322984E-04
(PID.TID 0000.0001) %MON dynstat_vvel_max             =   2.3357152965665E-02
(PID.TID 0000.0001) %MON dynstat_vvel_min             =  -2.3357152965642E-02
(PID.TID 0000.0001) %MON dynstat_vvel_mean            =  -6.8960515237880E-16
(PID.TID 0000.0001) %MON dynstat_vvel_sd              =   1.5605378663461E-03
(PID.TID 0000.0001) %MON dynstat_vvel_del2            =   7.2603813034773E-05
(PID.TID 0000.0001) %MON dynstat_wvel_max             =   1.6606877137571E-06
(PID.TID 0000.0001) %MON dynstat_wvel_min             =  -8.0258583822373E-07
(PID.TID 0000.0001) %MON dynstat_wvel_mean            =  -2.9740231064047E-24
(PID.TID 0000.0001) %MON dynstat_wvel_sd              =   2.9024353166463E-07
(PID.TID 0000.0001) %MON dynstat_wvel_del2            =   3.6552498505196E-08
(PID.TID 0000.0001) %MON dynstat_theta_max            =   2.6665161707989E+01
(PID.TID 0000.0001) %MON dynstat_theta_min            =  -9.3077204528453E-01
(PID.TID 0000.0001) %MON dynstat_theta_mean           =   2.2241108755678E+00
(PID.TID 0000.0001) %MON dynstat_theta_sd             =   3.9275662428316E+00
(PID.TID 0000.0001) %MON dynstat_theta_del2           =   4.1707272149604E-02
(PID.TID 0000.0001) %MON dynstat_salt_max             =   3.4700000000000E+01
(PID.TID 0000.0001) %MON dynstat_salt_min             =   3.4700000000000E+01
(PID.TID 0000.0001) %MON dynstat_salt_mean            =   3.4700000000000E+01
(PID.TID 0000.0001) %MON dynstat_salt_sd              =   4.2632564145606E-14
(PID.TID 0000.0001) %MON dynstat_salt_del2            =   0.0000000000000E+00
(PID.TID 0000.0001) %MON advcfl_uvel_max              =   1.0010252435813E-01
(PID.TID 0000.0001) %MON advcfl_vvel_max              =   6.0505602900430E-03
(PID.TID 0000.0001) %MON advcfl_wvel_max              =   2.3913903078103E-03
(PID.TID 0000.0001) %MON advcfl_W_hf_max              =   2.8696683693724E-03
(PID.TID 0000.0001) %MON pe_b_mean                    =   2.5687411677060E-03
(PID.TID 0000.0001) %MON ke_max                       =   7.4642289543480E-02
(PID.TID 0000.0001) %MON ke_mean                      =   8.3158319633545E-04
(PID.TID 0000.0001) %MON ke_vol                       =   2.1823819113454E+16
(PID.TID 0000.0001) %MON vort_r_min                   =  -1.7707552058535E-07
(PID.TID 0000.0001) %MON vort_r_max                   =   1.7707552058493E-07
(PID.TID 0000.0001) %MON vort_a_mean                  =   2.1875438147584E-21
(PID.TID 0000.0001) %MON vort_a_sd                    =   8.3492805145580E-05
(PID.TID 0000.0001) %MON vort_p_mean                  =   2.2011811632052E-21
(PID.TID 0000.0001) %MON vort_p_sd                    =   8.6788029189378E-05
(PID.TID 0000.0001) %MON surfExpan_theta_mean         =   2.4822913008564E-06
(PID.TID 0000.0001) %MON surfExpan_salt_mean          =  -1.6227013574321E-21
(PID.TID 0000.0001) // =======================================================
(PID.TID 0000.0001) // End MONITOR dynamic field statistics
(PID.TID 0000.0001) // =======================================================
 Computing Diagnostic #     30  UVEL         Counter:      20   Parms: UU      MR      
           Vector  Mate for  UVEL         Diagnostic #     31  VVEL     exists 
 Computing Diagnostic #     31  VVEL         Counter:      20   Parms: VV      MR      
           Vector  Mate for  VVEL         Diagnostic #     30  UVEL     exists 
 Computing Diagnostic #     32  WVEL         Counter:      20   Parms: WM      LR      
 Computing Diagnostic #     67  PHIHYD       Counter:      20   Parms: SM      MR      
 Computing Diagnostic #     46  VVELMASS     Counter:      20   Parms: VV      MR      
           Vector  Mate for  VVELMASS     Diagnostic #     45  UVELMASS not enabled
 Computing Diagnostic #     26  THETA        Counter:      20   Parms: SM      MR      
 Computing Diagnostic #     49  VTHMASS      Counter:      20   Parms: VV      MR      
           Vector  Mate for  VTHMASS      Diagnostic #     48  UTHMASS  not enabled
 Computing Diagnostic #     50  WTHMASS      Counter:      20   Parms: WM      LR      
 Computing Diagnostic #     33  THETASQ      Counter:      20   Parms: SM P    MR      
 Computing Diagnostic #     36  UVELSQ       Counter:      20   Parms: UU P    MR      
           Vector  Mate for  UVELSQ       Diagnostic #     37  VVELSQ   not enabled
 Computing Diagnostic #     42  UV_VEL_Z     Counter:      20   Parms: UZ      MR      
           Vector  Mate for  UV_VEL_Z     Diagnostic #     42  UV_VEL_Z exists 
 Computing Diagnostic #     43  WU_VEL       Counter:      20   Parms: WU      LR      
 Computing Diagnostic #     72  DRHODR       Counter:      10   Parms: SM      LR      
 Computing Diagnostic #     62  RHOAnoma     Counter:      10   Parms: SM      MR      
 Computing Diagnostic #    183  GM_PsiY      Counter:      10   Parms: VV   182LR      
           Vector  Mate for  GM_PsiY      Diagnostic #    182  GM_PsiX  not enabled
 Computing Diagnostic #    176  GM_Kvy       Counter:      10   Parms: VV P 175MR      
           Vector  Mate for  GM_Kvy       Diagnostic #    175  GM_Kux   not enabled
 Computing Diagnostic #    178  GM_Kvz       Counter:      10   Parms: VV   177MR      
           Vector  Mate for  GM_Kvz       Diagnostic #    177  GM_Kuz   not enabled
 Computing Diagnostic #    180  GM_Kwy       Counter:      10   Parms: VM   179LR      
           Vector  Mate for  GM_Kwy       Diagnostic #    179  GM_Kwx   not enabled
 Computing Diagnostic #    181  GM_Kwz       Counter:      10   Parms: WM P    LR      
 Computing Diagnostic #     97  ADVy_TH      Counter:      20   Parms: VV      MR      
           Vector  Mate for  ADVy_TH      Diagnostic #     96  ADVx_TH  not enabled
 Computing Diagnostic #     95  ADVr_TH      Counter:      20   Parms: WM      LR      
 Computing Diagnostic #    100  DFyE_TH      Counter:      20   Parms: VV      MR      
           Vector  Mate for  DFyE_TH      Diagnostic #     99  DFxE_TH  not enabled
 Computing Diagnostic #     98  DFrE_TH      Counter:      20   Parms: WM      LR      
 Computing Diagnostic #    101  DFrI_TH      Counter:      20   Parms: WM      LR      
(PID.TID 0000.0001) %CHECKPOINT     36020 ckptA
(PID.TID 0000.0001)   Seconds in section "ALL                    [THE_MODEL_MAIN]":
(PID.TID 0000.0001)           User time:  4.72928078
(PID.TID 0000.0001)         System time:  0.166974999
(PID.TID 0000.0001)     Wall clock time:  4.98073697
(PID.TID 0000.0001)          No. starts: 1
(PID.TID 0000.0001)           No. stops: 1
(PID.TID 0000.0001)   Seconds in section "INITIALISE_FIXED       [THE_MODEL_MAIN]":
(PID.TID 0000.0001)           User time:  1.59375805
(PID.TID 0000.0001)         System time:  0.0359949993
(PID.TID 0000.0001)     Wall clock time:  1.67919397
(PID.TID 0000.0001)          No. starts: 1
(PID.TID 0000.0001)           No. stops: 1
(PID.TID 0000.0001)   Seconds in section "THE_MAIN_LOOP          [THE_MODEL_MAIN]":
(PID.TID 0000.0001)           User time:  3.13352287
(PID.TID 0000.0001)         System time:  0.129979998
(PID.TID 0000.0001)     Wall clock time:  3.29890609
(PID.TID 0000.0001)          No. starts: 1
(PID.TID 0000.0001)           No. stops: 1
(PID.TID 0000.0001)   Seconds in section "INITIALISE_VARIA    [THE_MAIN_LOOP]":
(PID.TID 0000.0001)           User time:  0.124980927
(PID.TID 0000.0001)         System time:  0.0219959989
(PID.TID 0000.0001)     Wall clock time:  0.177003145
(PID.TID 0000.0001)          No. starts: 1
(PID.TID 0000.0001)           No. stops: 1
(PID.TID 0000.0001)   Seconds in section "MAIN LOOP           [THE_MAIN_LOOP]":
(PID.TID 0000.0001)           User time:  3.00854194
(PID.TID 0000.0001)         System time:  0.107983999
(PID.TID 0000.0001)     Wall clock time:  3.12177801
(PID.TID 0000.0001)          No. starts: 1
(PID.TID 0000.0001)           No. stops: 1
(PID.TID 0000.0001)   Seconds in section "FORWARD_STEP        [THE_MAIN_LOOP]":
(PID.TID 0000.0001)           User time:  3.00754201
(PID.TID 0000.0001)         System time:  0.107983999
(PID.TID 0000.0001)     Wall clock time:  3.1209383
(PID.TID 0000.0001)          No. starts: 20
(PID.TID 0000.0001)           No. stops: 20
(PID.TID 0000.0001)   Seconds in section "DO_STATEVARS_DIAGS  [FORWARD_STEP]":
(PID.TID 0000.0001)           User time:  0.029995203
(PID.TID 0000.0001)         System time:  0.
(PID.TID 0000.0001)     Wall clock time:  0.0316214561
(PID.TID 0000.0001)          No. starts: 60
(PID.TID 0000.0001)           No. stops: 60
(PID.TID 0000.0001)   Seconds in section "LOAD_FIELDS_DRIVER  [FORWARD_STEP]":
(PID.TID 0000.0001)           User time:  0.00299978256
(PID.TID 0000.0001)         System time:  0.
(PID.TID 0000.0001)     Wall clock time:  0.00256586075
(PID.TID 0000.0001)          No. starts: 20
(PID.TID 0000.0001)           No. stops: 20
(PID.TID 0000.0001)   Seconds in section "EXTERNAL_FLDS_LOAD [LOAD_FLDS_DRIVER]":
(PID.TID 0000.0001)           User time:  0.000999927521
(PID.TID 0000.0001)         System time:  0.
(PID.TID 0000.0001)     Wall clock time:  0.000827789307
(PID.TID 0000.0001)          No. starts: 20
(PID.TID 0000.0001)           No. stops: 20
(PID.TID 0000.0001)   Seconds in section "DO_ATMOSPHERIC_PHYS [FORWARD_STEP]":
(PID.TID 0000.0001)           User time:  0.
(PID.TID 0000.0001)         System time:  0.00100000203
(PID.TID 0000.0001)     Wall clock time:  0.000793457031
(PID.TID 0000.0001)          No. starts: 20
(PID.TID 0000.0001)           No. stops: 20
(PID.TID 0000.0001)   Seconds in section "DO_OCEANIC_PHYS     [FORWARD_STEP]":
(PID.TID 0000.0001)           User time:  0.279958725
(PID.TID 0000.0001)         System time:  0.
(PID.TID 0000.0001)     Wall clock time:  0.280469179
(PID.TID 0000.0001)          No. starts: 20
(PID.TID 0000.0001)           No. stops: 20
(PID.TID 0000.0001)   Seconds in section "DYNAMICS            [FORWARD_STEP]":
(PID.TID 0000.0001)           User time:  0.456931591
(PID.TID 0000.0001)         System time:  0.00100000203
(PID.TID 0000.0001)     Wall clock time:  0.457656145
(PID.TID 0000.0001)          No. starts: 20
(PID.TID 0000.0001)           No. stops: 20
(PID.TID 0000.0001)   Seconds in section "SOLVE_FOR_PRESSURE  [FORWARD_STEP]":
(PID.TID 0000.0001)           User time:  0.0729887486
(PID.TID 0000.0001)         System time:  0.00100000203
(PID.TID 0000.0001)     Wall clock time:  0.0717787743
(PID.TID 0000.0001)          No. starts: 20
(PID.TID 0000.0001)           No. stops: 20
(PID.TID 0000.0001)   Seconds in section "MOM_CORRECTION_STEP [FORWARD_STEP]":
(PID.TID 0000.0001)           User time:  0.0239937305
(PID.TID 0000.0001)         System time:  0.
(PID.TID 0000.0001)     Wall clock time:  0.0240051746
(PID.TID 0000.0001)          No. starts: 20
(PID.TID 0000.0001)           No. stops: 20
(PID.TID 0000.0001)   Seconds in section "UPDATE_ETAH         [FORWARD_STEP]":
(PID.TID 0000.0001)           User time:  0.00200009346
(PID.TID 0000.0001)         System time:  0.
(PID.TID 0000.0001)     Wall clock time:  0.00123524666
(PID.TID 0000.0001)          No. starts: 20
(PID.TID 0000.0001)           No. stops: 20
(PID.TID 0000.0001)   Seconds in section "BLOCKING_EXCHANGES  [FORWARD_STEP]":
(PID.TID 0000.0001)           User time:  0.0859898329
(PID.TID 0000.0001)         System time:  0.
(PID.TID 0000.0001)     Wall clock time:  0.0834941864
(PID.TID 0000.0001)          No. starts: 40
(PID.TID 0000.0001)           No. stops: 40
(PID.TID 0000.0001)   Seconds in section "THERMODYNAMICS      [FORWARD_STEP]":
(PID.TID 0000.0001)           User time:  0.406937718
(PID.TID 0000.0001)         System time:  0.
(PID.TID 0000.0001)     Wall clock time:  0.40825367
(PID.TID 0000.0001)          No. starts: 20
(PID.TID 0000.0001)           No. stops: 20
(PID.TID 0000.0001)   Seconds in section "TRC_CORRECTION_STEP [FORWARD_STEP]":
(PID.TID 0000.0001)           User time:  0.00499868393
(PID.TID 0000.0001)         System time:  0.
(PID.TID 0000.0001)     Wall clock time:  0.00460720062
(PID.TID 0000.0001)          No. starts: 20
(PID.TID 0000.0001)           No. stops: 20
(PID.TID 0000.0001)   Seconds in section "DO_STATEVARS_TAVE   [FORWARD_STEP]":
(PID.TID 0000.0001)           User time:  0.0369962454
(PID.TID 0000.0001)         System time:  0.
(PID.TID 0000.0001)     Wall clock time:  0.0363724232
(PID.TID 0000.0001)          No. starts: 20
(PID.TID 0000.0001)           No. stops: 20
(PID.TID 0000.0001)   Seconds in section "MONITOR             [FORWARD_STEP]":
(PID.TID 0000.0001)           User time:  0.0829868317
(PID.TID 0000.0001)         System time:  0.00199998915
(PID.TID 0000.0001)     Wall clock time:  0.0858380795
(PID.TID 0000.0001)          No. starts: 20
(PID.TID 0000.0001)           No. stops: 20
(PID.TID 0000.0001)   Seconds in section "DO_THE_MODEL_IO     [FORWARD_STEP]":
(PID.TID 0000.0001)           User time:  1.4847734
(PID.TID 0000.0001)         System time:  0.0219960064
(PID.TID 0000.0001)     Wall clock time:  1.51097417
(PID.TID 0000.0001)          No. starts: 20
(PID.TID 0000.0001)           No. stops: 20
(PID.TID 0000.0001)   Seconds in section "DO_WRITE_PICKUP     [FORWARD_STEP]":
(PID.TID 0000.0001)           User time:  0.0249958038
(PID.TID 0000.0001)         System time:  0.0799879953
(PID.TID 0000.0001)     Wall clock time:  0.105665684
(PID.TID 0000.0001)          No. starts: 20
(PID.TID 0000.0001)           No. stops: 20
(PID.TID 0000.0001) // ======================================================
(PID.TID 0000.0001) // Tile <-> Tile communication statistics
(PID.TID 0000.0001) // ======================================================
(PID.TID 0000.0001) // o Tile number: 000001
(PID.TID 0000.0001) //         No. X exchanges =              0
(PID.TID 0000.0001) //            Max. X spins =              0
(PID.TID 0000.0001) //            Min. X spins =     1000000000
(PID.TID 0000.0001) //          Total. X spins =              0
(PID.TID 0000.0001) //            Avg. X spins =       0.00E+00
(PID.TID 0000.0001) //         No. Y exchanges =              0
(PID.TID 0000.0001) //            Max. Y spins =              0
(PID.TID 0000.0001) //            Min. Y spins =     1000000000
(PID.TID 0000.0001) //          Total. Y spins =              0
(PID.TID 0000.0001) //            Avg. Y spins =       0.00E+00
(PID.TID 0000.0001) // o Thread number: 000001
(PID.TID 0000.0001) //            No. barriers =          15674
(PID.TID 0000.0001) //      Max. barrier spins =              1
(PID.TID 0000.0001) //      Min. barrier spins =              1
(PID.TID 0000.0001) //     Total barrier spins =          15674
(PID.TID 0000.0001) //      Avg. barrier spins =       1.00E+00
