(PID.TID 0000.0001) 
(PID.TID 0000.0001) // ======================================================
(PID.TID 0000.0001) //                      MITgcm UV
(PID.TID 0000.0001) //                      =========
(PID.TID 0000.0001) // ======================================================
(PID.TID 0000.0001) // execution environment starting up...
(PID.TID 0000.0001) 
(PID.TID 0000.0001) // MITgcmUV version:  checkpoint58r_post
(PID.TID 0000.0001) // Build user:        molod
(PID.TID 0000.0001) // Build host:        faulks
(PID.TID 0000.0001) // Build date:        Mon Nov 27 12:31:24 EST 2006
(PID.TID 0000.0001) 
(PID.TID 0000.0001) // =======================================================
(PID.TID 0000.0001) // Execution Environment parameter file "eedata"
(PID.TID 0000.0001) // =======================================================
(PID.TID 0000.0001) ># Example "eedata" file
(PID.TID 0000.0001) ># Lines beginning "#" are comments
(PID.TID 0000.0001) ># nTx - No. threads per process in X
(PID.TID 0000.0001) ># nTy - No. threads per process in Y
(PID.TID 0000.0001) > &EEPARMS
(PID.TID 0000.0001) > useCubedSphereExchange=.TRUE.,
(PID.TID 0000.0001) ># unlimit the stack size for the FIZHI rad code
(PID.TID 0000.0001) ># useSETRLSTK=.TRUE.,
(PID.TID 0000.0001) ># Activate one line below to support 2, 3 or 6 way multi-threading
(PID.TID 0000.0001) >#nTx=2,
(PID.TID 0000.0001) >#nTx=3,
(PID.TID 0000.0001) >#nTx=6,
(PID.TID 0000.0001) > &
(PID.TID 0000.0001) ># Note: Some systems use & as the
(PID.TID 0000.0001) ># namelist terminator. Other systems
(PID.TID 0000.0001) ># use a / character (as shown here).
(PID.TID 0000.0001) 
(PID.TID 0000.0001) // =======================================================
(PID.TID 0000.0001) // Computational Grid Specification ( see files "SIZE.h" )
(PID.TID 0000.0001) //                                  ( and "eedata"       )
(PID.TID 0000.0001) // =======================================================
(PID.TID 0000.0001)      nPx =    1 ; /* No. processes in X */
(PID.TID 0000.0001)      nPy =    1 ; /* No. processes in Y */
(PID.TID 0000.0001)      nSx =    6 ; /* No. tiles in X per process */
(PID.TID 0000.0001)      nSy =    1 ; /* No. tiles in Y per process */
(PID.TID 0000.0001)      sNx =   32 ; /* Tile size in X */
(PID.TID 0000.0001)      sNy =   32 ; /* Tile size in Y */
(PID.TID 0000.0001)      OLx =    2 ; /* Tile overlap distance in X */
(PID.TID 0000.0001)      OLy =    2 ; /* Tile overlap distance in Y */
(PID.TID 0000.0001)      nTx =    1 ; /* No. threads in X per process */
(PID.TID 0000.0001)      nTy =    1 ; /* No. threads in Y per process */
(PID.TID 0000.0001)       Nr =   10 ; /* No. levels in the vertical   */
(PID.TID 0000.0001)       nX =  192 ; /* Total domain size in X ( = nPx*nSx*sNx ) */
(PID.TID 0000.0001)       nY =   32 ; /* Total domain size in Y ( = nPy*nSy*sNy ) */
(PID.TID 0000.0001)   nTiles =    6 ; /* Total no. tiles per process ( = nSx*nSy ) */
(PID.TID 0000.0001)   nProcs =    1 ; /* Total no. processes ( = nPx*nPy ) */
(PID.TID 0000.0001) nThreads =    1 ; /* Total no. threads per process ( = nTx*nTy ) */
(PID.TID 0000.0001) usingMPI =    F ; /* Flag used to control whether MPI is in use */
(PID.TID 0000.0001)                   /*  note: To execute a program with MPI calls */
(PID.TID 0000.0001)                   /*  it must be launched appropriately e.g     */
(PID.TID 0000.0001)                   /*  "mpirun -np 64 ......"                    */
(PID.TID 0000.0001) useCoupler=   F ; /* Flag used to control communications with */
(PID.TID 0000.0001)                   /*  other model components, through a coupler */
(PID.TID 0000.0001) 
(PID.TID 0000.0001) // ======================================================
(PID.TID 0000.0001) // Mapping of tiles to threads
(PID.TID 0000.0001) // ======================================================
(PID.TID 0000.0001) // -o- Thread   1, tiles (   1:   6,   1:   1)
(PID.TID 0000.0001) 
(PID.TID 0000.0001) // ======================================================
(PID.TID 0000.0001) // Tile <-> Tile connectvity table
(PID.TID 0000.0001) // ======================================================
(PID.TID 0000.0001) // Tile number: 000001 (process no. = 000001)
(PID.TID 0000.0001) //        WEST: Tile = 000006, Process = 000001, Comm = put
(PID.TID 0000.0001) //                bi = 000006, bj = 000001
(PID.TID 0000.0001) //        EAST: Tile = 000002, Process = 000001, Comm = put
(PID.TID 0000.0001) //                bi = 000002, bj = 000001
(PID.TID 0000.0001) //       SOUTH: Tile = 000001, Process = 000001, Comm = put
(PID.TID 0000.0001) //                bi = 000001, bj = 000001
(PID.TID 0000.0001) //       NORTH: Tile = 000001, Process = 000001, Comm = put
(PID.TID 0000.0001) //                bi = 000001, bj = 000001
(PID.TID 0000.0001) // Tile number: 000002 (process no. = 000001)
(PID.TID 0000.0001) //        WEST: Tile = 000001, Process = 000001, Comm = put
(PID.TID 0000.0001) //                bi = 000001, bj = 000001
(PID.TID 0000.0001) //        EAST: Tile = 000003, Process = 000001, Comm = put
(PID.TID 0000.0001) //                bi = 000003, bj = 000001
(PID.TID 0000.0001) //       SOUTH: Tile = 000002, Process = 000001, Comm = put
(PID.TID 0000.0001) //                bi = 000002, bj = 000001
(PID.TID 0000.0001) //       NORTH: Tile = 000002, Process = 000001, Comm = put
(PID.TID 0000.0001) //                bi = 000002, bj = 000001
(PID.TID 0000.0001) // Tile number: 000003 (process no. = 000001)
(PID.TID 0000.0001) //        WEST: Tile = 000002, Process = 000001, Comm = put
(PID.TID 0000.0001) //                bi = 000002, bj = 000001
(PID.TID 0000.0001) //        EAST: Tile = 000004, Process = 000001, Comm = put
(PID.TID 0000.0001) //                bi = 000004, bj = 000001
(PID.TID 0000.0001) //       SOUTH: Tile = 000003, Process = 000001, Comm = put
(PID.TID 0000.0001) //                bi = 000003, bj = 000001
(PID.TID 0000.0001) //       NORTH: Tile = 000003, Process = 000001, Comm = put
(PID.TID 0000.0001) //                bi = 000003, bj = 000001
(PID.TID 0000.0001) // Tile number: 000004 (process no. = 000001)
(PID.TID 0000.0001) //        WEST: Tile = 000003, Process = 000001, Comm = put
(PID.TID 0000.0001) //                bi = 000003, bj = 000001
(PID.TID 0000.0001) //        EAST: Tile = 000005, Process = 000001, Comm = put
(PID.TID 0000.0001) //                bi = 000005, bj = 000001
(PID.TID 0000.0001) //       SOUTH: Tile = 000004, Process = 000001, Comm = put
(PID.TID 0000.0001) //                bi = 000004, bj = 000001
(PID.TID 0000.0001) //       NORTH: Tile = 000004, Process = 000001, Comm = put
(PID.TID 0000.0001) //                bi = 000004, bj = 000001
(PID.TID 0000.0001) // Tile number: 000005 (process no. = 000001)
(PID.TID 0000.0001) //        WEST: Tile = 000004, Process = 000001, Comm = put
(PID.TID 0000.0001) //                bi = 000004, bj = 000001
(PID.TID 0000.0001) //        EAST: Tile = 000006, Process = 000001, Comm = put
(PID.TID 0000.0001) //                bi = 000006, bj = 000001
(PID.TID 0000.0001) //       SOUTH: Tile = 000005, Process = 000001, Comm = put
(PID.TID 0000.0001) //                bi = 000005, bj = 000001
(PID.TID 0000.0001) //       NORTH: Tile = 000005, Process = 000001, Comm = put
(PID.TID 0000.0001) //                bi = 000005, bj = 000001
(PID.TID 0000.0001) // Tile number: 000006 (process no. = 000001)
(PID.TID 0000.0001) //        WEST: Tile = 000005, Process = 000001, Comm = put
(PID.TID 0000.0001) //                bi = 000005, bj = 000001
(PID.TID 0000.0001) //        EAST: Tile = 000001, Process = 000001, Comm = put
(PID.TID 0000.0001) //                bi = 000001, bj = 000001
(PID.TID 0000.0001) //       SOUTH: Tile = 000006, Process = 000001, Comm = put
(PID.TID 0000.0001) //                bi = 000006, bj = 000001
(PID.TID 0000.0001) //       NORTH: Tile = 000006, Process = 000001, Comm = put
(PID.TID 0000.0001) //                bi = 000006, bj = 000001
(PID.TID 0000.0001) 
(PID.TID 0000.0001) ===== W2 TILE TOPLOGY =====
(PID.TID 0000.0001)  TILE:    1
(PID.TID 0000.0001)       NEIGHBOUR    1 = TILE    3 Comm = PUT ( PROC =    1)
(PID.TID 0000.0001)       NEIGHBOUR    2 = TILE    6 Comm = PUT ( PROC =    1)
(PID.TID 0000.0001)       NEIGHBOUR    3 = TILE    2 Comm = PUT ( PROC =    1)
(PID.TID 0000.0001)       NEIGHBOUR    4 = TILE    5 Comm = PUT ( PROC =    1)
(PID.TID 0000.0001)  TILE:    2
(PID.TID 0000.0001)       NEIGHBOUR    1 = TILE    3 Comm = PUT ( PROC =    1)
(PID.TID 0000.0001)       NEIGHBOUR    2 = TILE    6 Comm = PUT ( PROC =    1)
(PID.TID 0000.0001)       NEIGHBOUR    3 = TILE    4 Comm = PUT ( PROC =    1)
(PID.TID 0000.0001)       NEIGHBOUR    4 = TILE    1 Comm = PUT ( PROC =    1)
(PID.TID 0000.0001)  TILE:    3
(PID.TID 0000.0001)       NEIGHBOUR    1 = TILE    5 Comm = PUT ( PROC =    1)
(PID.TID 0000.0001)       NEIGHBOUR    2 = TILE    2 Comm = PUT ( PROC =    1)
(PID.TID 0000.0001)       NEIGHBOUR    3 = TILE    4 Comm = PUT ( PROC =    1)
(PID.TID 0000.0001)       NEIGHBOUR    4 = TILE    1 Comm = PUT ( PROC =    1)
(PID.TID 0000.0001)  TILE:    4
(PID.TID 0000.0001)       NEIGHBOUR    1 = TILE    5 Comm = PUT ( PROC =    1)
(PID.TID 0000.0001)       NEIGHBOUR    2 = TILE    2 Comm = PUT ( PROC =    1)
(PID.TID 0000.0001)       NEIGHBOUR    3 = TILE    6 Comm = PUT ( PROC =    1)
(PID.TID 0000.0001)       NEIGHBOUR    4 = TILE    3 Comm = PUT ( PROC =    1)
(PID.TID 0000.0001)  TILE:    5
(PID.TID 0000.0001)       NEIGHBOUR    1 = TILE    1 Comm = PUT ( PROC =    1)
(PID.TID 0000.0001)       NEIGHBOUR    2 = TILE    4 Comm = PUT ( PROC =    1)
(PID.TID 0000.0001)       NEIGHBOUR    3 = TILE    6 Comm = PUT ( PROC =    1)
(PID.TID 0000.0001)       NEIGHBOUR    4 = TILE    3 Comm = PUT ( PROC =    1)
(PID.TID 0000.0001)  TILE:    6
(PID.TID 0000.0001)       NEIGHBOUR    1 = TILE    1 Comm = PUT ( PROC =    1)
(PID.TID 0000.0001)       NEIGHBOUR    2 = TILE    4 Comm = PUT ( PROC =    1)
(PID.TID 0000.0001)       NEIGHBOUR    3 = TILE    2 Comm = PUT ( PROC =    1)
(PID.TID 0000.0001)       NEIGHBOUR    4 = TILE    5 Comm = PUT ( PROC =    1)
(PID.TID 0000.0001) Tile    1(proc =   1) sends points i=  34:  -1, j=  31:  32
(PID.TID 0000.0001)                          to points i=  -1:   0, j=  -1:  34 in tile    3(proc =   1)
(PID.TID 0000.0001) Tile    1(proc =   1) sends points i=  -1:  34, j=   1:   2
(PID.TID 0000.0001)                          to points i=  -1:  34, j=  33:  34 in tile    6(proc =   1)
(PID.TID 0000.0001) Tile    1(proc =   1) sends points i=  31:  32, j=  -1:  34
(PID.TID 0000.0001)                          to points i=  -1:   0, j=  -1:  34 in tile    2(proc =   1)
(PID.TID 0000.0001) Tile    1(proc =   1) sends points i=   1:   2, j=  34:  -1
(PID.TID 0000.0001)                          to points i=  -1:  34, j=  33:  34 in tile    5(proc =   1)
(PID.TID 0000.0001) Tile    2(proc =   1) sends points i=  -1:  34, j=  31:  32
(PID.TID 0000.0001)                          to points i=  -1:  34, j=  -1:   0 in tile    3(proc =   1)
(PID.TID 0000.0001) Tile    2(proc =   1) sends points i=  34:  -1, j=   1:   2
(PID.TID 0000.0001)                          to points i=  33:  34, j=  -1:  34 in tile    6(proc =   1)
(PID.TID 0000.0001) Tile    2(proc =   1) sends points i=  31:  32, j=  34:  -1
(PID.TID 0000.0001)                          to points i=  -1:  34, j=  -1:   0 in tile    4(proc =   1)
(PID.TID 0000.0001) Tile    2(proc =   1) sends points i=   1:   2, j=  -1:  34
(PID.TID 0000.0001)                          to points i=  33:  34, j=  -1:  34 in tile    1(proc =   1)
(PID.TID 0000.0001) Tile    3(proc =   1) sends points i=  34:  -1, j=  31:  32
(PID.TID 0000.0001)                          to points i=  -1:   0, j=  -1:  34 in tile    5(proc =   1)
(PID.TID 0000.0001) Tile    3(proc =   1) sends points i=  -1:  34, j=   1:   2
(PID.TID 0000.0001)                          to points i=  -1:  34, j=  33:  34 in tile    2(proc =   1)
(PID.TID 0000.0001) Tile    3(proc =   1) sends points i=  31:  32, j=  -1:  34
(PID.TID 0000.0001)                          to points i=  -1:   0, j=  -1:  34 in tile    4(proc =   1)
(PID.TID 0000.0001) Tile    3(proc =   1) sends points i=   1:   2, j=  34:  -1
(PID.TID 0000.0001)                          to points i=  -1:  34, j=  33:  34 in tile    1(proc =   1)
(PID.TID 0000.0001) Tile    4(proc =   1) sends points i=  -1:  34, j=  31:  32
(PID.TID 0000.0001)                          to points i=  -1:  34, j=  -1:   0 in tile    5(proc =   1)
(PID.TID 0000.0001) Tile    4(proc =   1) sends points i=  34:  -1, j=   1:   2
(PID.TID 0000.0001)                          to points i=  33:  34, j=  -1:  34 in tile    2(proc =   1)
(PID.TID 0000.0001) Tile    4(proc =   1) sends points i=  31:  32, j=  34:  -1
(PID.TID 0000.0001)                          to points i=  -1:  34, j=  -1:   0 in tile    6(proc =   1)
(PID.TID 0000.0001) Tile    4(proc =   1) sends points i=   1:   2, j=  -1:  34
(PID.TID 0000.0001)                          to points i=  33:  34, j=  -1:  34 in tile    3(proc =   1)
(PID.TID 0000.0001) Tile    5(proc =   1) sends points i=  34:  -1, j=  31:  32
(PID.TID 0000.0001)                          to points i=  -1:   0, j=  -1:  34 in tile    1(proc =   1)
(PID.TID 0000.0001) Tile    5(proc =   1) sends points i=  -1:  34, j=   1:   2
(PID.TID 0000.0001)                          to points i=  -1:  34, j=  33:  34 in tile    4(proc =   1)
(PID.TID 0000.0001) Tile    5(proc =   1) sends points i=  31:  32, j=  -1:  34
(PID.TID 0000.0001)                          to points i=  -1:   0, j=  -1:  34 in tile    6(proc =   1)
(PID.TID 0000.0001) Tile    5(proc =   1) sends points i=   1:   2, j=  34:  -1
(PID.TID 0000.0001)                          to points i=  -1:  34, j=  33:  34 in tile    3(proc =   1)
(PID.TID 0000.0001) Tile    6(proc =   1) sends points i=  -1:  34, j=  31:  32
(PID.TID 0000.0001)                          to points i=  -1:  34, j=  -1:   0 in tile    1(proc =   1)
(PID.TID 0000.0001) Tile    6(proc =   1) sends points i=  34:  -1, j=   1:   2
(PID.TID 0000.0001)                          to points i=  33:  34, j=  -1:  34 in tile    4(proc =   1)
(PID.TID 0000.0001) Tile    6(proc =   1) sends points i=  31:  32, j=  34:  -1
(PID.TID 0000.0001)                          to points i=  -1:  34, j=  -1:   0 in tile    2(proc =   1)
(PID.TID 0000.0001) Tile    6(proc =   1) sends points i=   1:   2, j=  -1:  34
(PID.TID 0000.0001)                          to points i=  33:  34, j=  -1:  34 in tile    5(proc =   1)
(PID.TID 0000.0001) Tile    1(proc =   1)recv to points i=  -1:  34, j=  33:  34from tile   3(proc =   1)
(PID.TID 0000.0001) Tile    1(proc =   1)recv to points i=  -1:  34, j=  -1:   0from tile   6(proc =   1)
(PID.TID 0000.0001) Tile    1(proc =   1)recv to points i=  33:  34, j=  -1:  34from tile   2(proc =   1)
(PID.TID 0000.0001) Tile    1(proc =   1)recv to points i=  -1:   0, j=  -1:  34from tile   5(proc =   1)
(PID.TID 0000.0001) Tile    2(proc =   1)recv to points i=  -1:  34, j=  33:  34from tile   3(proc =   1)
(PID.TID 0000.0001) Tile    2(proc =   1)recv to points i=  -1:  34, j=  -1:   0from tile   6(proc =   1)
(PID.TID 0000.0001) Tile    2(proc =   1)recv to points i=  33:  34, j=  -1:  34from tile   4(proc =   1)
(PID.TID 0000.0001) Tile    2(proc =   1)recv to points i=  -1:   0, j=  -1:  34from tile   1(proc =   1)
(PID.TID 0000.0001) Tile    3(proc =   1)recv to points i=  -1:  34, j=  33:  34from tile   5(proc =   1)
(PID.TID 0000.0001) Tile    3(proc =   1)recv to points i=  -1:  34, j=  -1:   0from tile   2(proc =   1)
(PID.TID 0000.0001) Tile    3(proc =   1)recv to points i=  33:  34, j=  -1:  34from tile   4(proc =   1)
(PID.TID 0000.0001) Tile    3(proc =   1)recv to points i=  -1:   0, j=  -1:  34from tile   1(proc =   1)
(PID.TID 0000.0001) Tile    4(proc =   1)recv to points i=  -1:  34, j=  33:  34from tile   5(proc =   1)
(PID.TID 0000.0001) Tile    4(proc =   1)recv to points i=  -1:  34, j=  -1:   0from tile   2(proc =   1)
(PID.TID 0000.0001) Tile    4(proc =   1)recv to points i=  33:  34, j=  -1:  34from tile   6(proc =   1)
(PID.TID 0000.0001) Tile    4(proc =   1)recv to points i=  -1:   0, j=  -1:  34from tile   3(proc =   1)
(PID.TID 0000.0001) Tile    5(proc =   1)recv to points i=  -1:  34, j=  33:  34from tile   1(proc =   1)
(PID.TID 0000.0001) Tile    5(proc =   1)recv to points i=  -1:  34, j=  -1:   0from tile   4(proc =   1)
(PID.TID 0000.0001) Tile    5(proc =   1)recv to points i=  33:  34, j=  -1:  34from tile   6(proc =   1)
(PID.TID 0000.0001) Tile    5(proc =   1)recv to points i=  -1:   0, j=  -1:  34from tile   3(proc =   1)
(PID.TID 0000.0001) Tile    6(proc =   1)recv to points i=  -1:  34, j=  33:  34from tile   1(proc =   1)
(PID.TID 0000.0001) Tile    6(proc =   1)recv to points i=  -1:  34, j=  -1:   0from tile   4(proc =   1)
(PID.TID 0000.0001) Tile    6(proc =   1)recv to points i=  33:  34, j=  -1:  34from tile   2(proc =   1)
(PID.TID 0000.0001) Tile    6(proc =   1)recv to points i=  -1:   0, j=  -1:  34from tile   5(proc =   1)
(PID.TID 0000.0001) // =======================================================
(PID.TID 0000.0001) // Model parameter file "data"
(PID.TID 0000.0001) // =======================================================
(PID.TID 0000.0001) ># ====================
(PID.TID 0000.0001) ># | Model parameters |
(PID.TID 0000.0001) ># ====================
(PID.TID 0000.0001) >#
(PID.TID 0000.0001) ># Continuous equation parameters
(PID.TID 0000.0001) > &PARM01
(PID.TID 0000.0001) >#tRef=284.,286.,288.,290.,292.,294.,296.,298.,300.,302.,
(PID.TID 0000.0001) >#     304.,306.,308.,310.,312.,314.,316.,318.,320.,322.,
(PID.TID 0000.0001) >#     324.,326.,328.,330.,335.,340.,345.,350.,355.,360.,
(PID.TID 0000.0001) >#     365.,370.,380.,390.,400.,410.,420.,430.,440.,450.,
(PID.TID 0000.0001) > tRef=288.8,292.7,298.1,303.8,309.8,316.2,323.2,332.5,356.1,437.4,
(PID.TID 0000.0001) >#tRef=280.,290.,300.,310.,320.,330.,360.,390.,420.,450.,
(PID.TID 0000.0001) >  sRef=1.0E-3,5.0E-4,1.E-4,5*1.E-6,1.E-8,1.E-9,
(PID.TID 0000.0001) >#sRef=40*0.0,
(PID.TID 0000.0001) > viscAr=0.E1,
(PID.TID 0000.0001) > viscAh=0.E6,
(PID.TID 0000.0001) > viscA4=0.E17,
(PID.TID 0000.0001) > no_slip_sides=.FALSE.,
(PID.TID 0000.0001) > no_slip_bottom=.FALSE.,
(PID.TID 0000.0001) > diffKhT=0.E3,
(PID.TID 0000.0001) > diffKrT=0.,
(PID.TID 0000.0001) > diffK4T=0.E17,
(PID.TID 0000.0001) > diffKrS=0.E2,
(PID.TID 0000.0001) > diffKhS=0.E3,
(PID.TID 0000.0001) > diffK4S=0.E17,
(PID.TID 0000.0001) > buoyancyRelation='ATMOSPHERIC',
(PID.TID 0000.0001) > eosType='IDEALGAS',
(PID.TID 0000.0001) > atm_Rq=0.6078,
(PID.TID 0000.0001) >#Integr_GeoPot=2,
(PID.TID 0000.0001) > rotationPeriod=86400.,
(PID.TID 0000.0001) > gravity=9.81,
(PID.TID 0000.0001) > rhonil=1.0,
(PID.TID 0000.0001) > rhoConst=1.0,
(PID.TID 0000.0001) > rigidLid=.FALSE.,
(PID.TID 0000.0001) > implicitFreeSurface=.TRUE.,
(PID.TID 0000.0001) > exactConserv=.TRUE.,
(PID.TID 0000.0001) > uniformLin_PhiSurf=.FALSE.,
(PID.TID 0000.0001) > staggerTimeStep=.TRUE.,
(PID.TID 0000.0001) > nonHydrostatic=.FALSE.,
(PID.TID 0000.0001) > readBinaryPrec=64,
(PID.TID 0000.0001) > writeBinaryPrec=64,
(PID.TID 0000.0001) > hFacMin=0.2,
(PID.TID 0000.0001) > nonlinFreeSurf=4,
(PID.TID 0000.0001) > select_rStar=2,
(PID.TID 0000.0001) > saltAdvScheme=3,
(PID.TID 0000.0001) > vectorInvariantMomentum=.TRUE.,
(PID.TID 0000.0001) > &
(PID.TID 0000.0001) >
(PID.TID 0000.0001) ># Elliptic solver parameters
(PID.TID 0000.0001) > &PARM02
(PID.TID 0000.0001) > cg2dMaxIters=200,
(PID.TID 0000.0001) >#cg2dTargetResidual=1.E-12,
(PID.TID 0000.0001) > cg2dTargetResWunit=1.E-17,
(PID.TID 0000.0001) > &
(PID.TID 0000.0001) >
(PID.TID 0000.0001) ># Time stepping parameters
(PID.TID 0000.0001) > &PARM03
(PID.TID 0000.0001) > nIter0=0,
(PID.TID 0000.0001) > nTimeSteps=6,
(PID.TID 0000.0001) >#endTime=864000.0,
(PID.TID 0000.0001) > deltaT=300.0,
(PID.TID 0000.0001) >#forcing_In_AB=.FALSE.,
(PID.TID 0000.0001) > tracForcingOutAB=1,
(PID.TID 0000.0001) > abEps=0.1,
(PID.TID 0000.0001) > cAdjFreq=0.,
(PID.TID 0000.0001) > pChkptFreq=2678400.0,
(PID.TID 0000.0001) > ChkptFreq=2678400.0,
(PID.TID 0000.0001) > dumpFreq=0.0,
(PID.TID 0000.0001) > monitorFreq=2678400.,
(PID.TID 0000.0001) > taveFreq=0.0,
(PID.TID 0000.0001) > tave_lastiter=1.,
(PID.TID 0000.0001) > monitorFreq=1.,
(PID.TID 0000.0001) > &
(PID.TID 0000.0001) >
(PID.TID 0000.0001) ># Gridding parameters
(PID.TID 0000.0001) > &PARM04
(PID.TID 0000.0001) > usingCartesianGrid=.FALSE.,
(PID.TID 0000.0001) > usingSphericalPolarGrid=.FALSE.,
(PID.TID 0000.0001) > usingCurvilinearGrid=.TRUE.,
(PID.TID 0000.0001) >#delR=40*0.25E4,
(PID.TID 0000.0001) > delR=10*1.0E4,
(PID.TID 0000.0001) > Ro_SeaLevel=1.E5,
(PID.TID 0000.0001) > rSphere=6370.E3,
(PID.TID 0000.0001) > &
(PID.TID 0000.0001) >
(PID.TID 0000.0001) ># Input datasets
(PID.TID 0000.0001) > &PARM05
(PID.TID 0000.0001) > topoFile='top19232.data',
(PID.TID 0000.0001) > uVelInitFile='uVel_cs32x10.d19930110z06.bin',
(PID.TID 0000.0001) > vVelInitFile='vVel_cs32x10.d19930110z06.bin',
(PID.TID 0000.0001) > hydrogThetaFile='TH_cs32x10.d19930110z06.bin',
(PID.TID 0000.0001) > hydrogSaltFile='SH_cs32x10.d19930110z06.bin',
(PID.TID 0000.0001) > &
(PID.TID 0000.0001) 
(PID.TID 0000.0001) S/R INI_PARMS ; starts to read PARM01
(PID.TID 0000.0001) S/R INI_PARMS ; read PARM01 : OK
(PID.TID 0000.0001) S/R INI_PARMS ; starts to read PARM02
(PID.TID 0000.0001) S/R INI_PARMS ; read PARM02 : OK
(PID.TID 0000.0001) S/R INI_PARMS ; starts to read PARM03
(PID.TID 0000.0001) S/R INI_PARMS ; read PARM03 : OK
(PID.TID 0000.0001) S/R INI_PARMS ; starts to read PARM04
(PID.TID 0000.0001) S/R INI_PARMS ; read PARM04 : OK
(PID.TID 0000.0001) S/R INI_PARMS ; starts to read PARM05
(PID.TID 0000.0001) S/R INI_PARMS ; read PARM05 : OK
(PID.TID 0000.0001)  PACKAGES_BOOT: opening data.pkg
(PID.TID 0000.0001)  OPEN_COPY_DATA_FILE: opening file data.pkg
(PID.TID 0000.0001) // =======================================================
(PID.TID 0000.0001) // Parameter file "data.pkg"
(PID.TID 0000.0001) // =======================================================
(PID.TID 0000.0001) ># Packages
(PID.TID 0000.0001) > &PACKAGES
(PID.TID 0000.0001) > useFIZHI=.TRUE.,
(PID.TID 0000.0001) > useGRIDALT=.TRUE.,
(PID.TID 0000.0001) > useSHAP_FILT=.TRUE.,
(PID.TID 0000.0001) > useDIAGNOSTICS=.TRUE.,
(PID.TID 0000.0001) > &
(PID.TID 0000.0001) 
(PID.TID 0000.0001)  PACKAGES_BOOT: finished reading data.pkg
(PID.TID 0000.0001)  SHAP_FILT_READPARMS: opening data.shap
(PID.TID 0000.0001)  OPEN_COPY_DATA_FILE: opening file data.shap
(PID.TID 0000.0001) // =======================================================
(PID.TID 0000.0001) // Parameter file "data.shap"
(PID.TID 0000.0001) // =======================================================
(PID.TID 0000.0001) ># Shapiro Filter parameters
(PID.TID 0000.0001) > &SHAP_PARM01
(PID.TID 0000.0001) > shap_filt_uvStar=.FALSE.,
(PID.TID 0000.0001) > shap_filt_TrStagg=.TRUE.,
(PID.TID 0000.0001) > Shap_funct=2,
(PID.TID 0000.0001) > nShapT=4,
(PID.TID 0000.0001) > nShapUV=4,
(PID.TID 0000.0001) > nShapTrPhys=0,
(PID.TID 0000.0001) > nShapUVPhys=0,
(PID.TID 0000.0001) >#Shap_TrLength=115000.,
(PID.TID 0000.0001) >#Shap_uvLength=110000.,
(PID.TID 0000.0001) > Shap_Trtau=5400.,
(PID.TID 0000.0001) > Shap_uvtau=1800.,
(PID.TID 0000.0001) > &
(PID.TID 0000.0001) 
(PID.TID 0000.0001)  SHAP_FILT_READPARMS: finished reading data.shap
(PID.TID 0000.0001) Shap_funct =   /* select Shapiro filter function */
(PID.TID 0000.0001)                       2
(PID.TID 0000.0001)     ;
(PID.TID 0000.0001) nShapT =   /* power of Shapiro filter for Temperat */
(PID.TID 0000.0001)                       4
(PID.TID 0000.0001)     ;
(PID.TID 0000.0001) nShapS =   /* power of Shapiro filter for Salinity */
(PID.TID 0000.0001)                       4
(PID.TID 0000.0001)     ;
(PID.TID 0000.0001) nShapUV =   /* power of Shapiro filter for momentum */
(PID.TID 0000.0001)                       4
(PID.TID 0000.0001)     ;
(PID.TID 0000.0001) shap_filt_uvStar = /* apply filter before Press. Solver */
(PID.TID 0000.0001)                   F
(PID.TID 0000.0001)     ;
(PID.TID 0000.0001) shap_filt_TrStagg = /* filter T,S before calc PhiHyd (staggerTimeStep) */
(PID.TID 0000.0001)                   T
(PID.TID 0000.0001)     ;
(PID.TID 0000.0001) Shap_alwaysExchUV = /* always exch(U,V)    nShapUV times*/
(PID.TID 0000.0001)                   T
(PID.TID 0000.0001)     ;
(PID.TID 0000.0001) Shap_alwaysExchTr = /* always exch(Tracer) nShapTr times*/
(PID.TID 0000.0001)                   F
(PID.TID 0000.0001)     ;
(PID.TID 0000.0001) nShapTrPhys =   /* power of physical-space filter (Tracer) */
(PID.TID 0000.0001)                       0
(PID.TID 0000.0001)     ;
(PID.TID 0000.0001) nShapUVPhys =   /* power of physical-space filter (Momentum) */
(PID.TID 0000.0001)                       0
(PID.TID 0000.0001)     ;
(PID.TID 0000.0001) Shap_Trtau =   /* time scale of Shapiro filter (Tracer) */
(PID.TID 0000.0001)                 5.400000000000000E+03
(PID.TID 0000.0001)     ;
(PID.TID 0000.0001) Shap_TrLength =   /* Length scale of Shapiro filter (Tracer) */
(PID.TID 0000.0001)                 0.000000000000000E+00
(PID.TID 0000.0001)     ;
(PID.TID 0000.0001) Shap_uvtau =   /* time scale of Shapiro filter (Momentum) */
(PID.TID 0000.0001)                 1.800000000000000E+03
(PID.TID 0000.0001)     ;
(PID.TID 0000.0001) Shap_uvLength =   /* Length scale of Shapiro filter (Momentum) */
(PID.TID 0000.0001)                 0.000000000000000E+00
(PID.TID 0000.0001)     ;
(PID.TID 0000.0001) Shap_noSlip =  /* No-slip parameter (0=Free-slip ; 1=No-slip)*/
(PID.TID 0000.0001)                 0.000000000000000E+00
(PID.TID 0000.0001)     ;
(PID.TID 0000.0001) Shap_diagFreq =   /* Frequency^-1 for diagnostic output (s)*/
(PID.TID 0000.0001)                 0.000000000000000E+00
(PID.TID 0000.0001)     ;
(PID.TID 0000.0001)  FIZHI_READPARMS: opening data.fizhi
(PID.TID 0000.0001)  OPEN_COPY_DATA_FILE: opening file data.fizhi
(PID.TID 0000.0001) // =======================================================
(PID.TID 0000.0001) // Parameter file "data.fizhi"
(PID.TID 0000.0001) // =======================================================
(PID.TID 0000.0001) ># Fizhi Parameters
(PID.TID 0000.0001) > &fizhi_list
(PID.TID 0000.0001) > nhmsbegin=060000,
(PID.TID 0000.0001) > nymdbegin=19930110,
(PID.TID 0000.0001) > runlength=0.003,
(PID.TID 0000.0001) > &
(PID.TID 0000.0001) 
(PID.TID 0000.0001)  CHANGING NUMBER OF MODEL TIMESTEPS TO         6
(PID.TID 0000.0001)  CHANGING END TIME TO     1800.00
   Begin Date     19930110   Begin Time        60000
 Current Date     19930110 Current Time        60000
(PID.TID 0000.0001)  DIAGNOSTICS_READPARMS: opening data.diagnostics
(PID.TID 0000.0001)  OPEN_COPY_DATA_FILE: opening file data.diagnostics
(PID.TID 0000.0001) // =======================================================
(PID.TID 0000.0001) // Parameter file "data.diagnostics"
(PID.TID 0000.0001) // =======================================================
(PID.TID 0000.0001) ># Diagnostic Package Choices
(PID.TID 0000.0001) > &diagnostics_list
(PID.TID 0000.0001) >  frequency(1) = 0.003,
(PID.TID 0000.0001) >   levels(1,1) = 1.,
(PID.TID 0000.0001) >   fields(1,1) = 'TCANOPY ','OLR     ','RSURF   ',
(PID.TID 0000.0001) >   filename(1) = 'surface',
(PID.TID 0000.0001) >  frequency(2) = 0.003,
(PID.TID 0000.0001) >   levels(1,2) = 1.,2.,3.,4.,5.,6.,7.,8.,9.,10.,11.,12.,13.,14.,15.,16.,17.,18.,19.,20.,
(PID.TID 0000.0001) >   fields(1,2) = 'DPPHYS  ', 'FIZPRES ',
(PID.TID 0000.0001) >   filename(2) = 'upperfiz',
(PID.TID 0000.0001) >  frequency(3) = 0.003,
(PID.TID 0000.0001) >   levels(1,3) = 1.,2.,3.,4.,5.,6.,7.,8.,9.,10.,
(PID.TID 0000.0001) >   fields(1,3) = 'UVEL    ','RCENTER ',
(PID.TID 0000.0001) >   filename(3) = 'uVeltave',
(PID.TID 0000.0001) >  frequency(4) = 0.003,
(PID.TID 0000.0001) >  fileflags(4) = ' P1     ',
(PID.TID 0000.0001) >   levels(1,4) = 1.,2.,3.,4.,5.,6.,7.,8.,9.,10.,
(PID.TID 0000.0001) >   fields(1,4) = 'UVEL    ',
(PID.TID 0000.0001) >   filename(4) = 'uVelpres',
(PID.TID 0000.0001) > &
(PID.TID 0000.0001) >
(PID.TID 0000.0001) ># Parameter for Diagnostics of per level statistics:
(PID.TID 0000.0001) >#-----------------
(PID.TID 0000.0001) ># for each output-stream:
(PID.TID 0000.0001) >#  stat_fname(n) : prefix of the output file name (only 8.c long) for outp.stream n
(PID.TID 0000.0001) >#  stat_freq(n):< 0 : write snap-shot output every |stat_freq| seconds
(PID.TID 0000.0001) >#               > 0 : write time-average output every stat_freq seconds
(PID.TID 0000.0001) >#  stat_phase(n)    : write at time = stat_phase + multiple of |stat_freq|
(PID.TID 0000.0001) >#  stat_region(:,n) : list of "regions" (default: 1 region only=global)
(PID.TID 0000.0001) >#  stat_fields(:,n) : list of diagnostics fields (8.c) (see "available_diagnostics.log"
(PID.TID 0000.0001) >#                 file for the list of all available diag. in this particular config)
(PID.TID 0000.0001) >#-----------------
(PID.TID 0000.0001) > &DIAG_STATIS_PARMS
(PID.TID 0000.0001) >#- an example just to check the agreement with MONITOR output:
(PID.TID 0000.0001) >#stat_fields(1,1)= 'ETAN    ','UVEL    ','VVEL    ','WVEL    ', 'THETA   ',
(PID.TID 0000.0001) >#   stat_fname(1)= 'dynStDiag',
(PID.TID 0000.0001) >#    stat_freq(1)= -864000.,
(PID.TID 0000.0001) >#   stat_phase(1)= 0.,
(PID.TID 0000.0001) > &
(PID.TID 0000.0001) 
(PID.TID 0000.0001) S/R DIAGNOSTICS_READPARMS, read namelist "diagnostics_list": start
(PID.TID 0000.0001) S/R DIAGNOSTICS_READPARMS, read namelist "diagnostics_list": OK
(PID.TID 0000.0001) S/R DIAGNOSTICS_READPARMS, read namelist "DIAG_STATIS_PARMS": start
(PID.TID 0000.0001) S/R DIAGNOSTICS_READPARMS, read namelist "DIAG_STATIS_PARMS": OK
(PID.TID 0000.0001) -----------------------------------------------------
(PID.TID 0000.0001)  DIAGNOSTICS_READPARMS: active diagnostics summary:
(PID.TID 0000.0001) -----------------------------------------------------
(PID.TID 0000.0001) Creating Output Stream: surface
(PID.TID 0000.0001) Output Frequency:         0.003000 ; Phase:          0.000000
(PID.TID 0000.0001)  Averaging Freq.:         0.003000 , Phase:          0.000000 , Cycle:  1
(PID.TID 0000.0001)  Levels:       1.
(PID.TID 0000.0001) Fields:    TCANOPY  OLR      RSURF
(PID.TID 0000.0001) Creating Output Stream: upperfiz
(PID.TID 0000.0001) Output Frequency:         0.003000 ; Phase:          0.000000
(PID.TID 0000.0001)  Averaging Freq.:         0.003000 , Phase:          0.000000 , Cycle:  1
(PID.TID 0000.0001)  Levels:       1.   2.   3.   4.   5.   6.   7.   8.   9.  10.  11.  12.  13.  14.  15.  16.  17.  18.  19.  20.
(PID.TID 0000.0001) Fields:    DPPHYS   FIZPRES
(PID.TID 0000.0001) Creating Output Stream: uVeltave
(PID.TID 0000.0001) Output Frequency:         0.003000 ; Phase:          0.000000
(PID.TID 0000.0001)  Averaging Freq.:         0.003000 , Phase:          0.000000 , Cycle:  1
(PID.TID 0000.0001)  Levels:       1.   2.   3.   4.   5.   6.   7.   8.   9.  10.
(PID.TID 0000.0001) Fields:    UVEL     RCENTER
(PID.TID 0000.0001) Creating Output Stream: uVelpres
(PID.TID 0000.0001) Output Frequency:         0.003000 ; Phase:          0.000000
(PID.TID 0000.0001)  Averaging Freq.:         0.003000 , Phase:          0.000000 , Cycle:  1
(PID.TID 0000.0001)  Levels:       1.   2.   3.   4.   5.   6.   7.   8.   9.  10.
(PID.TID 0000.0001) Fields:    UVEL
(PID.TID 0000.0001) -----------------------------------------------------
(PID.TID 0000.0001)  DIAGNOSTICS_READPARMS: statistics diags. summary:
(PID.TID 0000.0001) -----------------------------------------------------
(PID.TID 0000.0001) -----------------------------------------------------
(PID.TID 0000.0001) SET_PARMS: done
(PID.TID 0000.0001) tile:   1 ; Read from file tile001.mitgrid
(PID.TID 0000.0001)   => xC yC dxF dyF rA xG yG dxV dyU rAz dxC dyC rAw rAs dxG dyG
(PID.TID 0000.0001) tile:   2 ; Read from file tile002.mitgrid
(PID.TID 0000.0001)   => xC yC dxF dyF rA xG yG dxV dyU rAz dxC dyC rAw rAs dxG dyG
(PID.TID 0000.0001) tile:   3 ; Read from file tile003.mitgrid
(PID.TID 0000.0001)   => xC yC dxF dyF rA xG yG dxV dyU rAz dxC dyC rAw rAs dxG dyG
(PID.TID 0000.0001) tile:   4 ; Read from file tile004.mitgrid
(PID.TID 0000.0001)   => xC yC dxF dyF rA xG yG dxV dyU rAz dxC dyC rAw rAs dxG dyG
(PID.TID 0000.0001) tile:   5 ; Read from file tile005.mitgrid
(PID.TID 0000.0001)   => xC yC dxF dyF rA xG yG dxV dyU rAz dxC dyC rAw rAs dxG dyG
(PID.TID 0000.0001) tile:   6 ; Read from file tile006.mitgrid
(PID.TID 0000.0001)   => xC yC dxF dyF rA xG yG dxV dyU rAz dxC dyC rAw rAs dxG dyG
(PID.TID 0000.0001) %MON XC_max                       =   1.7854351589505E+02
(PID.TID 0000.0001) %MON XC_min                       =  -1.7854351589505E+02
(PID.TID 0000.0001) %MON XC_mean                      =  -4.6999441375798E-15
(PID.TID 0000.0001) %MON XC_sd                        =   1.0355545336287E+02
(PID.TID 0000.0001) %MON XG_max                       =   1.8000000000000E+02
(PID.TID 0000.0001) %MON XG_min                       =  -1.7708797161002E+02
(PID.TID 0000.0001) %MON XG_mean                      =   1.8796250616675E+00
(PID.TID 0000.0001) %MON XG_sd                        =   1.0410625309932E+02
(PID.TID 0000.0001) %MON DXC_max                      =   3.2375185836900E+05
(PID.TID 0000.0001) %MON DXC_min                      =   1.1353730006923E+05
(PID.TID 0000.0001) %MON DXC_mean                     =   2.8606102525036E+05
(PID.TID 0000.0001) %MON DXC_sd                       =   3.4020997630307E+04
(PID.TID 0000.0001) %MON DXF_max                      =   3.2369947500827E+05
(PID.TID 0000.0001) %MON DXF_min                      =   1.2020820513318E+05
(PID.TID 0000.0001) %MON DXF_mean                     =   2.8605437324820E+05
(PID.TID 0000.0001) %MON DXF_sd                       =   3.4050524252539E+04
(PID.TID 0000.0001) %MON DXG_max                      =   3.2375195872773E+05
(PID.TID 0000.0001) %MON DXG_min                      =   1.0098378008791E+05
(PID.TID 0000.0001) %MON DXG_mean                     =   2.8603818508931E+05
(PID.TID 0000.0001) %MON DXG_sd                       =   3.4140406908005E+04
(PID.TID 0000.0001) %MON DXV_max                      =   3.2380418162750E+05
(PID.TID 0000.0001) %MON DXV_min                      =   8.0152299824136E+04
(PID.TID 0000.0001) %MON DXV_mean                     =   2.8603970633619E+05
(PID.TID 0000.0001) %MON DXV_sd                       =   3.4145142117723E+04
(PID.TID 0000.0001) %MON YC_max                       =   8.7940663871962E+01
(PID.TID 0000.0001) %MON YC_min                       =  -8.7940663871962E+01
(PID.TID 0000.0001) %MON YC_mean                      =   0.0000000000000E+00
(PID.TID 0000.0001) %MON YC_sd                        =   3.8676242969072E+01
(PID.TID 0000.0001) %MON YG_max                       =   9.0000000000000E+01
(PID.TID 0000.0001) %MON YG_min                       =  -9.0000000000000E+01
(PID.TID 0000.0001) %MON YG_mean                      =  -1.2094344438470E-15
(PID.TID 0000.0001) %MON YG_sd                        =   3.9086186579984E+01
(PID.TID 0000.0001) %MON DYC_max                      =   3.2375185836900E+05
(PID.TID 0000.0001) %MON DYC_min                      =   1.1353730006923E+05
(PID.TID 0000.0001) %MON DYC_mean                     =   2.8606102525036E+05
(PID.TID 0000.0001) %MON DYC_sd                       =   3.4020997630307E+04
(PID.TID 0000.0001) %MON DYF_max                      =   3.2369947500827E+05
(PID.TID 0000.0001) %MON DYF_min                      =   1.2020820513318E+05
(PID.TID 0000.0001) %MON DYF_mean                     =   2.8605437324820E+05
(PID.TID 0000.0001) %MON DYF_sd                       =   3.4050524252539E+04
(PID.TID 0000.0001) %MON DYG_max                      =   3.2375195872773E+05
(PID.TID 0000.0001) %MON DYG_min                      =   1.0098378008791E+05
(PID.TID 0000.0001) %MON DYG_mean                     =   2.8603818508931E+05
(PID.TID 0000.0001) %MON DYG_sd                       =   3.4140406908005E+04
(PID.TID 0000.0001) %MON DYU_max                      =   3.2380418162750E+05
(PID.TID 0000.0001) %MON DYU_min                      =   8.0152299824136E+04
(PID.TID 0000.0001) %MON DYU_mean                     =   2.8603970633619E+05
(PID.TID 0000.0001) %MON DYU_sd                       =   3.4145142117723E+04
(PID.TID 0000.0001) %MON RA_max                       =   1.0474757731659E+11
(PID.TID 0000.0001) %MON RA_min                       =   1.5497867056722E+10
(PID.TID 0000.0001) %MON RA_mean                      =   8.2985711332657E+10
(PID.TID 0000.0001) %MON RA_sd                        =   1.7448591913787E+10
(PID.TID 0000.0001) %MON RAW_max                      =   1.0481529828871E+11
(PID.TID 0000.0001) %MON RAW_min                      =   1.1465425741966E+10
(PID.TID 0000.0001) %MON RAW_mean                     =   8.2985711332657E+10
(PID.TID 0000.0001) %MON RAW_sd                       =   1.7503889570793E+10
(PID.TID 0000.0001) %MON RAS_max                      =   1.0481529828871E+11
(PID.TID 0000.0001) %MON RAS_min                      =   1.1465425741966E+10
(PID.TID 0000.0001) %MON RAS_mean                     =   8.2985711332657E+10
(PID.TID 0000.0001) %MON RAS_sd                       =   1.7503889570793E+10
(PID.TID 0000.0001) %MON RAZ_max                      =   1.0484349334619E+11
(PID.TID 0000.0001) %MON RAZ_min                      =   8.8317900612505E+09
(PID.TID 0000.0001) %MON RAZ_mean                     =   8.2992246709235E+10
(PID.TID 0000.0001) %MON RAZ_sd                       =   1.7482297311044E+10
(PID.TID 0000.0001) %MON AngleCS_max                  =   1.0000000000000E+00
(PID.TID 0000.0001) %MON AngleCS_min                  =   1.0000000000000E+00
(PID.TID 0000.0001) %MON AngleCS_mean                 =   1.0000000000000E+00
(PID.TID 0000.0001) %MON AngleCS_sd                   =   0.0000000000000E+00
(PID.TID 0000.0001) %MON AngleSN_max                  =   0.0000000000000E+00
(PID.TID 0000.0001) %MON AngleSN_min                  =   0.0000000000000E+00
(PID.TID 0000.0001) %MON AngleSN_mean                 =   0.0000000000000E+00
(PID.TID 0000.0001) %MON AngleSN_sd                   =   0.0000000000000E+00
(PID.TID 0000.0001) 
(PID.TID 0000.0001) INI_PHIREF: PhiRef/g [m] at level Center (integer)
(PID.TID 0000.0001)                      and at level Interface (half-int.) :
(PID.TID 0000.0001)  K=  0.5  ;  r=  100000.0  ;  phiRef/g=       0.000
(PID.TID 0000.0001)  K=  1.0  ;  r=   95000.0  ;  phiRef/g=     430.007
(PID.TID 0000.0001)  K=  1.5  ;  r=   90000.0  ;  phiRef/g=     885.542
(PID.TID 0000.0001)  K=  2.0  ;  r=   85000.0  ;  phiRef/g=    1347.229
(PID.TID 0000.0001)  K=  2.5  ;  r=   80000.0  ;  phiRef/g=    1849.522
(PID.TID 0000.0001)  K=  3.0  ;  r=   75000.0  ;  phiRef/g=    2361.083
(PID.TID 0000.0001)  K=  3.5  ;  r=   70000.0  ;  phiRef/g=    2923.976
(PID.TID 0000.0001)  K=  4.0  ;  r=   65000.0  ;  phiRef/g=    3497.632
(PID.TID 0000.0001)  K=  4.5  ;  r=   60000.0  ;  phiRef/g=    4138.303
(PID.TID 0000.0001)  K=  5.0  ;  r=   55000.0  ;  phiRef/g=    4791.627
(PID.TID 0000.0001)  K=  5.5  ;  r=   50000.0  ;  phiRef/g=    5536.290
(PID.TID 0000.0001)  K=  6.0  ;  r=   45000.0  ;  phiRef/g=    6296.336
(PID.TID 0000.0001)  K=  6.5  ;  r=   40000.0  ;  phiRef/g=    7188.747
(PID.TID 0000.0001)  K=  7.0  ;  r=   35000.0  ;  phiRef/g=    8100.914
(PID.TID 0000.0001)  K=  7.5  ;  r=   30000.0  ;  phiRef/g=    9224.000
(PID.TID 0000.0001)  K=  8.0  ;  r=   25000.0  ;  phiRef/g=   10379.402
(PID.TID 0000.0001)  K=  8.5  ;  r=   20000.0  ;  phiRef/g=   11934.316
(PID.TID 0000.0001)  K=  9.0  ;  r=   15000.0  ;  phiRef/g=   13599.595
(PID.TID 0000.0001)  K=  9.5  ;  r=   10000.0  ;  phiRef/g=   16454.567
(PID.TID 0000.0001)  K= 10.0  ;  r=    5000.0  ;  phiRef/g=   19961.348
(PID.TID 0000.0001)  K= 10.5  ;  r=       0.0  ;  phiRef/g=   38981.791
(PID.TID 0000.0001)  MDSREADFIELD: opening global file: top19232.data
(PID.TID 0000.0001) // =======================================================
(PID.TID 0000.0001) // Field Model R_low (ini_masks_etc) at iteration          1
(PID.TID 0000.0001) // CMIN =          1.000000000000000E+32
(PID.TID 0000.0001) // CMAX =         -1.000000000000000E+32
(PID.TID 0000.0001) // CINT =          0.000000000000000E+00
(PID.TID 0000.0001) // SYMBOLS (CMIN->CMAX): -abcdefghijklmnopqrstuvwxyz+
(PID.TID 0000.0001) //                  0.0: .
(PID.TID 0000.0001) // RANGE I (Lo:Hi:Step):(  -1: 194:   1)
(PID.TID 0000.0001) // RANGE J (Lo:Hi:Step):(  34:  -1:  -1)
(PID.TID 0000.0001) // RANGE K (Lo:Hi:Step):(   1:   1:   1)
(PID.TID 0000.0001) // =======================================================
(PID.TID 0000.0001) // =======================================================
(PID.TID 0000.0001) // END OF FIELD                                          =
(PID.TID 0000.0001) // =======================================================
(PID.TID 0000.0001) 
(PID.TID 0000.0001) // =======================================================
(PID.TID 0000.0001) // Field Model Ro_surf (ini_masks_etc) at iteration          1
(PID.TID 0000.0001) // CMIN =          5.000000000000000E+04
(PID.TID 0000.0001) // CMAX =          1.000000000000000E+05
(PID.TID 0000.0001) // CINT =          1.851851851851852E+03
(PID.TID 0000.0001) // SYMBOLS (CMIN->CMAX): -abcdefghijklmnopqrstuvwxyz+
(PID.TID 0000.0001) //                  0.0: .
(PID.TID 0000.0001) // RANGE I (Lo:Hi:Step):(  -1: 194:   1)
(PID.TID 0000.0001) // RANGE J (Lo:Hi:Step):(  34:  -1:  -1)
(PID.TID 0000.0001) // RANGE K (Lo:Hi:Step):(   1:   1:   1)
(PID.TID 0000.0001) // =======================================================
(PID.TID 0000.0001) K =   1
(PID.TID 0000.0001) //                I=8       I=18      I=28      I=34      I=44      I=54      I=64      I=70      I=80      I=90      I=96      I=106     I=116     I=126     I=132     I=142     I=152     I=162     I=168     I=178     I=188
(PID.TID 0000.0001) // |--J--|101234567|901234567|901234567|901234123|567890123|567890123|567890123|563456789|123456789|123456789|123456785|789012345|789012345|789012345|789078901|345678901|345678901|345678901|901234567|901234567|901234567|901234
(PID.TID 0000.0001) //     34 ++++++++++++++++++yxrzzuz+++yoporowrrowrp+++zz+zyxwwvnqposrtuuxzxt+++++++++++++++++++xyzyyyxwtpnqppx+++++++++++++++++++++++++++++++++++++++++++++++++++++++++++++++zxxwwxyz+++++++++++++++++++++++++++++++++++++++++++++
(PID.TID 0000.0001) //     33 +++++++++++++++++zuy+yuvx+utrtvwwuuowuuop++zzzzzxxxsuwponrsutswzxw++++++++++++++++++yyyyzyyyxusnprqu++++++++++++++++++++++++++++++++++++++++++++++++++++++++++++++++zxwwwvw+++++++++++++++++++++++++++++++++++++++++++++
(PID.TID 0000.0001) //     32 +++++++++++++++zxyxxyxzwvyxtttwxyytpyytppsywyzyxsonnostrrrssstx++zy+zyzw++++++++++++zxzyyyyywusopsrw++++++++++++++++++++++++++++++++++++++++++++++++++++++++++++++++zyxwwwvuy+++++++++++++++++++++++++++++++++++++++++++
(PID.TID 0000.0001) //     31 +++++++++++++++zwuz+z+y+xzxuvzxyy+wpy+wpottutyyrjhotvuuqqssssx+z++y+yzyy+++++++++++zyyyyyyxyxwurtww+++++++++++++++++++++++++++++++++++++++++++++++++++++++++++++++++zzyywwwwxzz+++++++++++++++++++++++++++++++++++++++++
(PID.TID 0000.0001) //     30 +++++++++++++++zxw++++z+zz+++yvwyz+xyz+xnqttttppgemspijielprtxz++++zy+z+++++++++++++zxyzzyyyxwvssvz++++++++++++++++++++++++++++++++++++++++++++++++++++++++++++++zz+zyyyywyywvw+++++++++++++++++++++++++++++++++++++++++
(PID.TID 0000.0001) //     29 ++++++++++++++++yywww++++++++zwwxyz+xyz+soqutrmmsgabaabdeinsvz+++++++++++++++++++zzzxwxz+zzzyxwsrtz++++++++++++++++++++++++++++++++++++++++++++++++++++++++++++++zyzzyyyxxxyxxyz++++++++++++++++++++++++++++++++++++++++
(PID.TID 0000.0001) //     28 +++++++++++++++xstvyzyz+zzzzzwuvwxy+wxy+yrptuvrtzteababbcfpuvzzyz++++++++++++++++++yxxxz+++yxxwvssy++++++++++++++++++++++++++++++++++++++++++++++++++++++++++++++zz++zyyyzzyzzzz++++++++++++++++++++++++++++++++++++++++
(PID.TID 0000.0001) //     27 ++++++++++++z+zuwwxyyxxyzzzzyywvuwxzuwxz+yxvsuuyzyte-abeeguwwzywz+++++++++++++++++++zxzz+++yxyxwtuz+++++++++++++++++++++++++++++++++++++++++++++++++++++++++++++zxzz+zyyyzzzz++z++++++++++++++++++++++++++++++++++++++++
(PID.TID 0000.0001) //     26 ++++++++++++++yxxyywwwxxyyxyyy+wuvwyuvwy++zzzyyzyyzysmnunlotwxxxz++++++++++++++++++++z+y+++yxyyxrtz++++++++++++++++++++++++++++++++++++++++++++++++++++++++++++zxwy+++zyyyyzzz++++++++++++++++++++++++++++++++++++++++++
(PID.TID 0000.0001) //     25 +++++++++++++zyyyyyusuwxwxwxyyyztvwytvwyzzyz++++yxxyy+ywuqqwyyz+y+++++++++++++++++++++yz+zzyyyyutuz++++++++++++++++++++z+++++++++++++++++++++++++++++++++++++++zxwy+++zzynmqwzyzzz++zz++++++++++++++++++++++++++++++++++
(PID.TID 0000.0001) //     24 +++++++++++++zyyyyxwvwwuuxwxyyw+wtwxwtwxzzz+++++yxxxy+zxutuz+++++++++++++++++++++++xz+yz+zzzzyytts+++++++++++++++++++++++++++++++++++++++++++++++++++++++++++++yzzzz+zzynfefgswxyz++yz++++++++++++++++++++++++++++++++++
(PID.TID 0000.0001) //     23 +++++++++++++zyyyyxxwwxxxwwxxxxx+rvw+rvwwy++++++xxxx+++zwwwzz+++yz+++++++++++++++++spy+yyzz+zzyytuw+++++++++++++++++++++++++++++++++++++++++++++z+++++++++++y++xwzyzzzyqftwuplnrvywzvywz+++++++++++++yutyz++++++++++++++
(PID.TID 0000.0001) //     22 +++++++++++++zzyyyyyxxyyyvuwwxwszttxzttxz+++++++yxz+++++zyzxz+++z+++++++++++++++++++nsy+zyz+zz+yxwvzy+++++++++++++++++++++++++++++++++++++++++++yzy+++++++++z++xusxzzzxko+++++ywtuvwtuvww+++++++++++yojilpqtw+++++++++++
(PID.TID 0000.0001) //     21 +++++++++++++zyyyyyyxxyxxwuwwxunwz+zwz+z+++++++++wz++++++zzzy+++zz++++++++++++++++++llnyzyz+++++uxyzz+++++++++++++++++++++++++++++++++++++++++++yxyxz+++++++++++xwswyqlt+++++++++z+x+z+xvxz+++z+++++sliiikllq+++++++++++
(PID.TID 0000.0001) //     20 +++++++++++++yxxyyyyxxxyxxwxxxrnstvwstvw+++++++++y+++++++++++++++zz+++++++++++++++z+qkkntwz+++++zxyz++++++++++++++++++++++++++++++++++++++++++++yzyyyz++++++++++++zuuw+++++++++++++++++++++++++xz+++tljhhkmoqz++++++++++
(PID.TID 0000.0001) //     19 ++++++++++++++yyzzzzzxvwxwwwxxsoswxzswxz++++++++++z++++++z+++++z+zy+++++zz+++z++++y++wnnuw+++++++zz+++++++++++++++++++++++++++++++++++++++++++++yyyzyxx++++++++y++++++++++++++++++++++++++++++++xs+yymjhhkoqv+++++++++++
(PID.TID 0000.0001) //     18 +++++++++++++++++++++xwwxxwwvuwtwyz+wyz+++++++++++++++++yzz+++yy++++++++wx++++z++++++++ww+++++++++z+++++++++++++++++++++++++++++++++++++++++++++yyzyyyyz+++++yxz+++++++++++++++++++++++++++++++++wz+xnkhfgjjkp++++++++++
(PID.TID 0000.0001) //     17 +++++++++++++++++++++yxxyyxwttrwzz++zz+++++++++++++++++++y+++zwyzz+z++++uyz+++++++++++++++++++++++y+++++++++++++++++++++++++++++++++++++++++++++yyyyzzzz+++++xy++++++++++++++++++++++++++++++++++uqqpmjjhgghimx+++++++++
(PID.TID 0000.0001) //     16 +++++++++++++++++++++zxxyyxurtqv+++++++++++++++++++++++++zz++zz+xz+++y++zxuyz+++x+++++x++++++++++xyy++++++++++++++++++++++++++++++++++++++++z+++xyyyzyz++++++u+++++++++++++++++++++++++++++++++++xrpvnkkjihiimu+++++++++
(PID.TID 0000.0001) //     15 +++z++++++++++++++++++yxxxwvstsw++++++++++++++++++++++++++z+++++yz+++z+++xyxz+++xwvz+++++++++++++yxzy+++++++++++++++++++++++++++++++++++++++zz++yyyxyyyz+++++y+++++++++++++++++++++++++++++++++++yptxwmlljjjkns+++++++++
(PID.TID 0000.0001) //     14 zzzxyz++++++++++++++++zwvwvwtsty+++++++++++++++++++++++++++zzzz+++++++wvzy+rx++z++zy+++++++++++++zwwz+++++++++++++++++++++++++++++++++++++++++z+xwxwwxyyz+zyrx+++++++++++++++++++++++++++++++++++zpvz+xpnkjjlp++++++++++
(PID.TID 0000.0001) //     13 zyxxyz++++++++++++++++zttuuttsuy++++++++++++++++++++++++++++++++zzz++++++xyzxz++++zy++++++z+++++zzyu+wy+++++++++++++++++++++++++++++++++++++++y+wuutttuwwwqpr+++++++++++++++++++++++++++++++++++++zzz++umlljnw++++++++++
(PID.TID 0000.0001) //     12 yxwwz+++++++++++++++++xrstssttwx+++++++++++++++++++++++++++++++++++++z++yzuzwzzz++z+++z++++z+++zyuuu+zw+++++++++++++++++++++++++++++++++++++++++usspmnrttspqx++++++++++++++++++++++++++++++++++++++++++wnmlmq+++++++++++
(PID.TID 0000.0001) //     11 ywww++++++++++++++++++vstuttvvwx+++x+++x++++++++++++++++++++++++++zzzz+++wvuuzzzzzzz++++++zz+zyxvtsx++++++++++++++++++++++++++++++++++++++++++++ronnooospqw++++++++++++++++++++++++++++++++++++++++++++woooow+++++++++++
(PID.TID 0000.0001) //     10 wwwx++++++++++++++++++vttuuutwz+++xw++xw++++++++++++++++++++++++++yyzz++xvxzzzzzzzzzzzz+++zzyzzuuwux++++++++++++++++++++++++++++++z+++++++++++++tppqpqstwz+++++++++++++++++++++++++++++++++++++++++++++wvvyz++++++++++++
(PID.TID 0000.0001) //      9 wwvy++++++++++++++++++yssuutux++++ux++ux+++++++++++++++++++++++zzzyyyyz+zy+++zzzzzzzzyz++zwxyxzzzywz++++++++++++++++++++++++++++++++++++++++++++wsrpptxzzz++++++++++++++++++++++++++++++++++++++++++++++++++++++++++++++
(PID.TID 0000.0001) //      8 wvwz+++++++++++++++++++stuuuxz+++zv++zv+++++++++++++++++++++++zxyyyxxxyzxxu+zzzzzzzzyzzz+zxxxxyyxwvyyz++++++++++++++++++++++++++++++++++++z+++++wrqpptxy++++++++++++++++++++++++++++++++++++++++++++++++++++++++++++++++
(PID.TID 0000.0001) //      7 wu+++++++++++++++++++++uuussw++++zx++zx+++++++++++++++++++++++ywxxxxwxyzutt+++zzzzzzz+zzzzxxxxxxwuuvyw++z+++z+++++++++++++++++++z+++++++yxwxwwyz+wuxyy++++++++++++++++++++++++++++++++++++++++++++++++++++++++++++++++++
(PID.TID 0000.0001) //      6 xy+++++++++++++++++++++xvtsqw+++++++++++++++++++++++++++++++++yxxxxwwyzzvtryyyz++zyxz+zzzzyyxxwtuwyxwyy+y+++y+++++++++++++++++++++z++++zxyzzzzz+++++++++++++++++++++++++++++++++++++++++++++++++++++++++++++++++++++++++
(PID.TID 0000.0001) //      5 z++++++++++++++++++++++zusrs++++++++++++++++++++++++++++++++++yxxyyyyzz+zttovu+++zyyzzzzzzyyxwstvwxyyzx++x+++x+++++++++++++++++++wy+++yyxyzzz+++++++++++++++++++++++++++++++++++++++++++++++++++++++++++++++++++++++++++
(PID.TID 0000.0001) //      4 z++++++++++++++++++++++zyxy+++++++++++++++++++++++++++++++++++yyyzzzzzz+xwvppp+++zyzzyzzzxxtwwuuvvxyxyx+++x+++x+++++++++++++++++yu++zyxyzzzzz+++++++++++++++++++++++++++++++++++++++++++++++++++++++++++++++++++++++++++
(PID.TID 0000.0001) //      3 +++++++++++++++++++++++++++++++++++++++++++++++++++++++++++++++++++++zzzyxwoqv++zzzzxxxywssrptttwvxzxw++++ww++ww++++++++++++++++wy++++zzzz+zyz++++++++++++++++++++++++++++++++++++++++++++++++++++++++++++++++++++++++++
(PID.TID 0000.0001) //      2 ++++++++++++++++++++++++++++++++++++++++++++++++++++++++++++++++++++++zyyywrp+++zz+zyxwwvnqposrtuuxzxt++++wy++wy++++++++++++++++v+++++zzz++zy++++++++++++++++++++++++++++++++++++++++++++++++++++++++++++++++++z++++++++
(PID.TID 0000.0001) //      1 ++++++++++++++++++++++++++++++++++++++++++++++++++++++++++++++++++++++z++yuop++zzzzzxxxsuwponrsutswzxw++++zy++zyz+++++++++++++++w++++zyyzzzzzz++++++++++++++++++++++++++++++++++++++++++++++++++++++++++zy+++++yz+++++++
(PID.TID 0000.0001) //      0 ++++++++++++++++++++++++++++++++++++++++++++++++++++++++++++++++++++++++wttppsywyzyxsonnostrrrssstx++zy+zyyzzyyz++++++++++++++yz++zzzyxxyzzz+++++++++++++++++++++++++++++++++++++++++++++++++++++++++++z+++++++wz++z+zzz
(PID.TID 0000.0001) //     -1 ++++++++++++++++++++++++++++++++++++++++++++++++++++++++++++++++++++++++ppwpottutyyrjhotvuuqqssssx+z++y+yzzyyzzyy++++++++++++++++++zzyxwwyz+++++++++++++++++++++++++++++++++++++++++++++++++++++++++++zz+++++++wzzzyyz+y
(PID.TID 0000.0001) // =======================================================
(PID.TID 0000.0001) // END OF FIELD                                          =
(PID.TID 0000.0001) // =======================================================
(PID.TID 0000.0001) 
(PID.TID 0000.0001) // =======================================================
(PID.TID 0000.0001) // Field hFacC at iteration          1
(PID.TID 0000.0001) // CMIN =          2.000000000000000E-01
(PID.TID 0000.0001) // CMAX =          1.000000000000000E+00
(PID.TID 0000.0001) // CINT =          2.962962962962963E-02
(PID.TID 0000.0001) // SYMBOLS (CMIN->CMAX): -abcdefghijklmnopqrstuvwxyz+
(PID.TID 0000.0001) //                  0.0: .
(PID.TID 0000.0001) // RANGE I (Lo:Hi:Step):(  -1: 194:   1)
(PID.TID 0000.0001) // RANGE J (Lo:Hi:Step):(  34:  -1:  -1)
(PID.TID 0000.0001) // RANGE K (Lo:Hi:Step):(   1:   1:   1)
(PID.TID 0000.0001) // =======================================================
(PID.TID 0000.0001) K =   1
(PID.TID 0000.0001) //                I=8       I=18      I=28      I=34      I=44      I=54      I=64      I=70      I=80      I=90      I=96      I=106     I=116     I=126     I=132     I=142     I=152     I=162     I=168     I=178     I=188
(PID.TID 0000.0001) // |--J--|101234567|901234567|901234567|901234123|567890123|567890123|567890123|563456789|123456789|123456789|123456785|789012345|789012345|789012345|789078901|345678901|345678901|345678901|901234567|901234567|901234567|901234
(PID.TID 0000.0001) //     34 +++++++++++++++++xnh.sw.v+++l.....b...b..x+zuxxuoeca..........hsg.++++++++++++++++++ykprqqnkd......hz++++++++++++++++++++++++++++++++++++++++++++++++++++++++++++++skhcdikv+++++++++++++++++++++++++++++++++++++++++++++
(PID.TID 0000.0001) //     33 +++++++++++++++++x.qzl..g+.....db...b....++uwwsrkjh..-........atjd+++++++++++++++++yomqqromlf.......z++++++++++++++++++++++++++++++++++++++++++++++++++++++++++++++xsjed-.-z++++++++++++++++++++++++++++++++++++++++++++
(PID.TID 0000.0001) //     32 +++++++++++++++uhlfgqkt-.pj...ckpl..pl....n-qtqk..............kyzrl+wqwc+++++++++++zwjrrrpmle......d+++++++++++++++++++++++++++++++++++++++++++++++++++++++++++++++zvpib-a..q+++++++++++++++++++++++++++++++++++++++++++
(PID.TID 0000.0001) //     31 +++++++++++++++r-.r+vzpxhxh..sglqy-.qy-......nn..............h+x+ylzprol++++++++++zwplloopjog-...--y++++++++++++++++++++++++++++++++++++++++++++++++++++++++++++++++wrqna-deerx+++++++++++++++++++++++++++++++++++++++++
(PID.TID 0000.0001) //     30 +++++++++++++++whd+zyyu+uwz+yq.-kwyjkwyj.....................kuy++zvp+u+++++++++++y+rinvvqoqhd....u++++++++++++++++++++++++++++++++++++++++++++++++++++++++++++++xvyuonplcml-.b+++++++++++++++++++++++++++++++++++++++++
(PID.TID 0000.0001) //     29 ++++++++++++++++pl--ay+++++++s--gnvzgnvz.....................txx+++yy++++++++++++wrwichwyutrmea...r++++++++++++++++++++++++++++++++++++++++++++++++++++++++++++++spvwqlngikmjjou++++++++++++++++++++++++++++++++++++++++
(PID.TID 0000.0001) //     28 +++++++++++++++i...luqu+wvvxvd..-fnx-fnxq.......t............vrov++z++++++++++++++xniekv+zxpjgc...q+++++++++++++++++++++++++++++++++++++++++++++++++++++++++++++zrrxxsomovuosvutx+++x+++++++++++++++++++++++++++++++++++
(PID.TID 0000.0001) //     27 ++++++++++++xzw.-egmnffouuvsood..bfs.bfs+mj....ntq.........b-rqeu++z+++++++++++++++yskru++zpjmgb..u++++++++++++++++++++++++++++++++++z+++++++++++++++++++++++++zrjtwzxqllruvxyxwy+++y+++++++++z+++++++++++++++++++z+++++
(PID.TID 0000.0001) //     26 +++++++++++++ylikomdbdfgrqkmpnxd..-m..-mxzswslpuomtq........cjiht++++++++++++++++++++tyqy+yqkpog..v++++++++++++++++++++++++++++++++++++++++++++++++++++++++++z+uhbqzzyrppmlsvxyzzx++zx++++++++++++++++++++++++++++++++++
(PID.TID 0000.0001) //     25 ++++++++++++zrpopqm...-edh-kplnw..ao..aovvlr+++yoijkoyn-...-onsyp+++++++++++++++++++++qvzurqlln...w++++++++++++++++++++vz+++++++++++++++++++++++++++++++++++z++tfclyzxuso...dsnuwu++wu++++++++++++++++++++++++++++++++++
(PID.TID 0000.0001) //     24 ++++++++++++yrmlmpia.bc..f-inmb+-.ak-.akrtv++++ypjjkn+wf...rxy+++++++++++++++++++++iv+qt+twwsnr...z+++++++++++++++++++++++++++++++++++++++++++++z+++++++++++z++owrvwxwtn......bfqv++qv++++++++++++++++++++++++++++++++++
(PID.TID 0000.0001) //     23 +++++++++z++zunmmmhjbdijkdahkkfgx..-x..-epz+++++kgkix++udc-tw+++ow+++++++++++++++++..o+qlrxytupo..-+++++++++++++++++++++++++++++++++++++++++++++wzy+++++++++o+zh-rqwxuq...d......m-t.m-t++++++++++++zm..osz+++++++++++++
(PID.TID 0000.0001) //     22 +++++++++z++zxrpoommiimpn..-dje.t..ft..fv+++++++qgs+++++tosks+++ty++++++++++++++++++..q+vowzvvymj-.sr+++++++++++++++++++++++++++++++++++++++++++pwoy+++++++zx++k..ivwrf..++++zpc...e...eb+++++++++++l.......a+++++++++++
(PID.TID 0000.0001) //     21 ++++++++++++ztmlooqphjoii-.-bi..-syt-sytyz++++++y-s+++++yvuvm+++xwy+++++++++++++++++...lwnxyz++z.jnrwy++++++++++++++++++++++++++++++++++++++++++ljmkw++++++yy++zg-.bk...z+++++++yw+eyw+e.ir+++w+++++.........+++++++++++
(PID.TID 0000.0001) //     20 +++++++++++++ogjnqooffikjf-gii.....-...-y++++++++py+++++yyzzz++zzvt+++++++++++++++r+.....as+++++wiqu++++++++++++++++++++++++++++++++++++++++++++lrqplrx++++z+++yx+u..-z++++++++++++++++++++++++jr+++.........v++++++++++
(PID.TID 0000.0001) //     19 +++++++++++++zpnsstsre.-hb-cjj...-gt.-gt+++++++++zv++++++w+++++v+xl+++++ru+++v++++q++-...b+++++++tv++++y++++++++++++++++++++++++++++++++++++++++orqrohjxz++z++zoy+++++++++++++++++++++++++++++++g.+nl........+++++++++++
(PID.TID 0000.0001) //     18 +++++++++++++++xzz++yh-bgfc-..-.amu+amu++++++++++++++++zmus+++nmz+z+++++-h+++yxz+++++++ed+++++++++r+++++++++++++++++++++++++++++++++++++++++++++orrqqrmuz++++qgv+++++++++++++++++++++++++++++++++atzf.........++++++++++
(PID.TID 0000.0001) //     17 +++++++++++++++++++++neilkj-...-tx++tx++++++++++++++++++xpy+yr-ovuxw++++.lxx+y++++++++++++++++++++o+++++++++++++++++++++++++++++++++++++++++++++ppoqsvuwz++zxin+++++++++++++++++++++++++++++++++y.............h+++++++++
(PID.TID 0000.0001) //     16 +++++++++++++++++++++viknkh.....y+++y++++++++++++++++++++sw++uuzhtzyxp++rf.nw++yi+++++g++++++++++kmq++++++++++++++++++++++++++++++++zy++++++w+++jmmnrqvy++++y.y++++z++++++++++++++++++++++++++++yi.............+++++++++
(PID.TID 0000.0001) //     15 +zxsx++++++++++++++++zpgjhd....-++++++++++++++++++++++++++sz++z+quyxzvyy+gqhry++fb.t+++++++++++++pesm++++++++++++++++++++++++++++++++++++++zur++ollkmpqwz+++yo+++++++++++++++++++++++++++++++++++p..k-.........+++++++++
(PID.TID 0000.0001) //     14 wvskmr++++++++++++++++s-.-.-...m+++++++++++++++++++++++++++wuvxzz+z+++c.vqz.gxzwzyvmy+++z+++++++zwebt+z++++++++++++++++++++++++++++++++++++++xs+gefdchlosywp.e+++++++++++++++++++++++++++++++++++u..v+g.......++++++++++
(PID.TID 0000.0001) //     13 rpjhmu++++++++++++++++v........k++++++++++++++++++++++++++++++zxvxu+++++zklskv+z+ywp+++x++w+++zyuwl.+bq+++++++++++++++++++++++++++++zz++++++++p+-......-c-...z++++++++++++++++++++++++++++++++++++xuw++......-++++++++++
(PID.TID 0000.0001) //     12 qiecu+++++++++++++++++h.......-jyz+zyz+z++++++++++++++++++++++++++++zx++pt.wdtvvyzvyz+vz++zt+++uo...yw-++++++++++++++++++++++++++++zy+x+++++++++............h++++++++++++++++++++++++++++++++++++++++++-.....z++++++++++
(PID.TID 0000.0001) //     11 nbddz+++++++++++++++++........-gy++fy++f++++++++++++++++++++++++++uxutz+x-...ruuvvwxxzzz+xtwywnj...j+++y++++++++++++++++++++++++++++++z+++++++++..........dy+++++++++++++++++++++++++++++++++++++++++++-....-+++++++++++
(PID.TID 0000.0001) //     10 a--iz+++++++++++++++++.......aty+zkd+zkd+++++++++++++++++++++++++xmmrrz+h.gvrrvstvuuvwryyxsrmtt..a.h++++z+++z+++++++++++++++++++++x+++++++++++++........avx++++++++++++++++++++++++++++++++++++++++++++d..mr++++++++++++
(PID.TID 0000.0001) //      9 -a.k++++++++++++++++++q......j+++z.k+z.k++z+++++++++++++++++++zxvrqlmovzxp+++uusvwuvvovyyu-flkrttpcu++++x+++x++++++++++++++++++++zz+++++++++++++-.....jrru++++++++++++++++++++++++++++++++++++++++++++++++++++++++++++++
(PID.TID 0000.0001) //      8 d.-v++++++++++++++++++x.....gvz++s.y+s.y++z+++++++++++++++++++rimnmkggqrhj.+uvuutuvtovwxyvhfgiqnje.okwx+z+++z++++++++++++++++++++x+++++++yty++++-.....jpz+++++++++++++++++++++++++++++++++++++++++++++++++++++++++++++++
(PID.TID 0000.0001) //      7 e.z+++++++++++++++++++z.....-z+++wi++wi+++++++++++++++++++++++pegiifdgor...++yvvvwtssxxwwvkiikhia...mezyv+++v+++++++++++++++++++v++++++zqkegc-qwyd.hoq++++++++++++++++++++++++++++++++++++++++++++++++++++++++++++++++++
(PID.TID 0000.0001) //      6 eq+++++++++++++++++++++k....e+++++++++++++++++++++++++++++++++nggggdcnrw...lpkwzzwphuxxxwvmlkh-..amh-pn+m+++m+++++++++++++++++++zxu+++xskourrsx+++zz++++++++++++++++++++++++++++++++++++++++++++++++++++++++++++++++++++
(PID.TID 0000.0001) //      5 r++++++++++++++++++++++u....y+++++++++++++++++++++++++++++++++pjjmmnnrwzs.....+++wpptvwwwuqojb...-iqrtg+yix+yix++++++++++++++++++cm++xpokqvuwx++++++++++++++++++++++++++++++++++++++++++++++++++++++++++++++++++++++++++
(PID.TID 0000.0001) //      4 x++++++++++++++++++++++xmklz+++++++++++++++++++++++++++++++++zonouvwtswzgc....+++uptrpuvsge.--....iphqg+++iy++iy++++++++++++++++q.++wlhpstvuxx++++++++++++++++++++++++++++++++++++++++++++++++++++++++++++++++++++++++++
(PID.TID 0000.0001) //      3 ++++++++++++++++++++++++++++++++++++++++++++++++++++++++++++++z+z++++uuslkd...+xvvvuiigq-.......-.htkc++++ee++eez+++++++++++++++bp+zzzwrvwxxpt++++++++++++++++++++++++++++++++++++++++++++++++++++++++++++++++++++++++++
(PID.TID 0000.0001) //      2 ++++++++++++++++++++++++++++++++++++++++++++++++++++++++++++++++++++++spqpb..x+zuxxuoeca..........hsg.++++cl++cl+++++++++++++++y.++++zrrwzzspx+++++++++++++++++++++++++++++++++++++++++++++++++++++++++++++++++w++++++++
(PID.TID 0000.0001) //      1 ++++++++++++++++++++++++++++++++++++++++++++++++++++++++++++++++++++++uxyl...++uwwsrkjh..-........atjd++++wo++wou++++++++++++++yc++zzvqorwwusu++++++++++++++++++++++++++++++++++++++++++++++++++++++++++sp+++++qx+++++++
(PID.TID 0000.0001) //      0 ++++++++++++++++++++++++++++++++++++++++++++++++++++++++++++++++++++++++-.....n-qtqk..............kyzrl+wqqrwqqr++++++++++++++pv++xtroggnrsu+++++++++++++++++++++++++++++++++++++++++++++++++++++++++++rx++++++-sxxtxuus
(PID.TID 0000.0001) //     -1 ++++++++++++++++++++++++++++++++++++++++++++++++++++++++++++++++++++++++..-......nn..............h+x+ylzprwpprwppy++++++++++++xz++zurmgdcnt+++++++++++++++++++++++++++++++++++++++++++++++++++++++++++wu+++++++crwxppsxp
(PID.TID 0000.0001) // =======================================================
(PID.TID 0000.0001) // END OF FIELD                                          =
(PID.TID 0000.0001) // =======================================================
(PID.TID 0000.0001) 
(PID.TID 0000.0001) // =======================================================
(PID.TID 0000.0001) // Field hFacW at iteration          1
(PID.TID 0000.0001) // CMIN =          2.000000000000000E-01
(PID.TID 0000.0001) // CMAX =          1.000000000000000E+00
(PID.TID 0000.0001) // CINT =          2.962962962962963E-02
(PID.TID 0000.0001) // SYMBOLS (CMIN->CMAX): -abcdefghijklmnopqrstuvwxyz+
(PID.TID 0000.0001) //                  0.0: .
(PID.TID 0000.0001) // RANGE I (Lo:Hi:Step):(  -1: 194:   1)
(PID.TID 0000.0001) // RANGE J (Lo:Hi:Step):(  34:  -1:  -1)
(PID.TID 0000.0001) // RANGE K (Lo:Hi:Step):(   1:   1:   1)
(PID.TID 0000.0001) // =======================================================
(PID.TID 0000.0001) K =   1
(PID.TID 0000.0001) //                I=8       I=18      I=28      I=34      I=44      I=54      I=64      I=70      I=80      I=90      I=96      I=106     I=116     I=126     I=132     I=142     I=152     I=162     I=168     I=178     I=188
(PID.TID 0000.0001) // |--J--|101234567|901234567|901234567|901234123|567890123|567890123|567890123|563456789|123456789|123456789|123456785|789012345|789012345|789012345|789078901|345678901|345678901|345678901|901234567|901234567|901234567|901234
(PID.TID 0000.0001) //     34 +++++++++++++++++xnh..s..v++l.........b...xzuuxuoeca...........hg..+++c+++++++++++++ykkpqqnkd.......hz+++++++++++++++++++++++++++++++++++++++++++++++++++++++++++++skhccdikv++++++++++++++++++++++++++++++++++++++++++++
(PID.TID 0000.0001) //     33 +++++++++++++++++x..ql...g......b...b.....+uuwsrkjh............ajdd+++w++++++++++++yommqqomlf........z+++++++++++++++++++++++++++++++++++++++++++++++++++++++++++++xsjed-..-z+++++++++++++++++++++++++++++++++++++++++++
(PID.TID 0000.0001) //     32 +++++++++++++++uhhffgkk-..j....ckl..kl.....--qqk...............kyrllwqqc+++++++++++zwjjrrpmle.......d++++++++++++++++++++++++++++++++++++++++++++++++++++++++++++++zvpib--...q++++++++++++++++++++++++++++++++++++++++++
(PID.TID 0000.0001) //     31 +++++++++++++++r-..rvvpphhh...gglq-.lq-.......n...............hxxyllppol++++++++++zwpllloojjg-....--y+++++++++++++++++++++++++++++++++++++++++++++++++++++++++++++++wrqna--deerx++++++++++++++++++++++++++++++++++++++++
(PID.TID 0000.0001) //     30 +++++++++++++++whddzyyuuuuwzyq..-kwj-kwj......................kuy+zvppuu++++++++++yyriinvqoohd.....u+++++++++++++++++++++++++++++++++++++++++++++++++++++++++++++xvvuonnlccl-..b++++++++++++++++++++++++++++++++++++++++
(PID.TID 0000.0001) //     29 ++++++++++++++++pl---ay++++++s---gnv-gnv......................txx++yyy+++++++++++wrricchwutrmea....r+++++++++++++++++++++++++++++++++++++++++++++++++++++++++++++sppvqllggikjjjou+++u+++++++++++++++++++++++++++++++++++
(PID.TID 0000.0001) //     28 +++++++++++++++i....lqquwvvvvd...-fn.-fnq.....................roov+zz+++++++++++++xnieekvzxpjgc....q++++++++++++++++++++++++++++++++++++++++++++++++++++++++++++zrrrxsommouoosuttx++tx++++++++++++++++++++++++++++++++++
(PID.TID 0000.0001) //     27 ++++++++++++xxw..-egmfffouusood...bf..bfsmj.....nq..........--qeeu+zz++++++++++++++yskkru+zpjjgb...u+++++++++++++++++++++++++++++++++zz++++++++++++++++++++++++zrjjtwxqlllruvxxwwy++wy++++++++zz++++++++++++++++++zz++++
(PID.TID 0000.0001) //     26 +++++++++++++yliikmdbbdfgqkkmnnd...-...-mxsssllpommq.........cihht+++++++++++++++++++ttqqyyqkkog...v+++++++++++++++++++++++++++++++++++++++++++++++++++++++++zzuhbbqzyrppmllsvxyzxx+zxx+++++++++++++++++++++++++++++++++
(PID.TID 0000.0001) //     25 ++++++++++++zrpoopm....-dd--klln...a...aovllr++yoiijkon-....-nnspp++++++++++++++++++++qqvurqlll....w+++++++++++++++++++vvz++++++++++++++++++++++++++++++++++zz+tfcclyxuso....dnnuuu+uuu+++++++++++++++++++++++++++++++++
(PID.TID 0000.0001) //     24 ++++++++++++yrmllmia..b...--imbb-..a-..akrtv+++ypjjjknwf....rxy++++++++++++++++++++iivqqtttwsnn....z++++++++++++++++++++++++++++++++++++++++++++yz++++++++++zz+oorrvwwtn.......bfqv+fqv+++++++++++++++++++++++++++++++++
(PID.TID 0000.0001) //     23 +++++++++zz+zunmmmhhbbdijdaahkffg...g...-epz++++kggiix+udc--tw++oow++++++++++++++++...oqllrxttpo...-++++++++++++++++++++++++++++++++++++++++++++wwyy++++++++oozh--qqwuq...........--..--t+++++++++++zm...osz++++++++++++
(PID.TID 0000.0001) //     22 +++++++++zz+zxrpoommiiimn...-de.........fv++++++qggs++++tookks++tty+++++++++++++++++...qvoowvvvmj-..rr++++++++++++++++++++++++++++++++++++++++++ppooy++++++zxx+k...ivrf...+++zpc........bb++++++++++l........a++++++++++
(PID.TID 0000.0001) //     21 ++++++++++++ztmlloophhjii-..-b...-st.-sttyz+++++y--s++++yvuumm++xwwy++++++++++++++++....lnnxyz+z..jnrwy+++++++++++++++++++++++++++++++++++++++++ijjkkw+++++yyy+zg-..b....z++++++ywweywwe..ir++ww++++..........++++++++++
(PID.TID 0000.0001) //     20 +++++++++++++oggjnoofffijf--gi..........-y+++++++ppy++++yyyzzz+zzvtt++++++++++++++rr......as++++wiiqu+++++++++++++++++++++++++++++++++++++++++++llqpllrx+++zz++yxxu...-z+++++++++++++++++++++++jjr++..........v+++++++++
(PID.TID 0000.0001) //     19 +++++++++++++zpnnsssre..-b--cj....-g..-gt++++++++zvv+++++ww++++vvxll++++rru++vv+++qq+-....b++++++ttv+++yy+++y+++++++++++++++++++++++++++++++++++ooqqohhjxz+zz+zooy++++++++++++++++++++++++++++++g..nl.........++++++++++
(PID.TID 0000.0001) //     18 +++++++++++++++xxzz+yh--bfc-.....amu.amu+++++++++++++++zmmss++nmmzzz++++--h++yxxz++++++edd++++++++rr++++++++++++++++++++++++++++++++++++++++++++oorqqqmmuz+++qggv++++++++++++++++++++++++++++++++aatf..........+++++++++
(PID.TID 0000.0001) //     17 x++++++++++++++++++++neeikj-....-tx+-tx+++++++++++++++++xppyyr--ouuww+++..lxxyy+++++++++++++++++++oo++++++++++++++++++++++++++++++++++++++++++++ppooqsuuwz+zxiin++++++++++++++++++++++++++++++++y..............h++++++++
(PID.TID 0000.0001) //     16 v++++++++++++++++++++viikkh......y++.y+++++++++++++++++++ssw+uuuhhtyxpp+rf..nw+yii++++gg+++++++++kkmq+++++++++++++++++++++++++++++++zyy+++++ww++jjmmnqqvy+++y..y+++zz+++++++++++++++++++++++++++yi..............++++++++
(PID.TID 0000.0001) //     15 yzxssx+++++++++++++++zpgghd.....-+++-+++++++++++++++++++++ssz+zzqquxxvvyzgghhry+fb..t++++++++++++peemm+++++++++++++++++++++++++++++++++++++zurr+ollkkmpqwz++yoo++++++++++++++++++++++++++++++++++p...-..........++++++++
(PID.TID 0000.0001) //     14 uvskkmr+++++++++++++++s-........m+++m++++++++++++++++++++++wuuvxzzzz++c.vqq..gxwwyvmmy++zz++++++zwebbtzz+++++++++++++++++++++++++++++++++++++xssgeedcchloswp..e++++++++++++++++++++++++++++++++++u...vg........+++++++++
(PID.TID 0000.0001) //     13 opjhhmu+++++++++++++++v.........k+++k+++++++++++++++++++++++++zxvvuu++++ykklkkvzzywpp++xx+ww++zyuul..bbq++++++++++++++++++++++++++++zzz+++++++pp-.......--....z+++++++++++++++++++++++++++++++++++xuuw+.......-+++++++++
(PID.TID 0000.0001) //     12 nieccu++++++++++++++++h........-jyzzjyzzz+++++++++++++++++++++++++++zxx+pp..ddtvvyvvyzvvz+ztt++uo....w--+++++++++++++++++++++++++++zyyxx++++++++.............h+++++++++++++++++++++++++++++++++++++++++-......z+++++++++
(PID.TID 0000.0001) //     11 nbbddz++++++++++++++++.........-gy+fgy+ff+++++++++++++++++++++++++uuuttzx-....ruuvvwxxzzzxttwwnj....j++yy+++y+++++++++++++++++++++++++zz++++++++...........dy++++++++++++++++++++++++++++++++++++++++++-.....-++++++++++
(PID.TID 0000.0001) //     10 a---iz++++++++++++++++........atyzkdyzkdd++++++++++++++++++++++++xmmmrrzh..grrrsstuuuvrryxsrmmt.....h+++zz++zz++++++++++++++++++++xx++++++++++++.........avx+++++++++++++++++++++++++++++++++++++++++++d...mr+++++++++++
(PID.TID 0000.0001) //      9 --..k+++++++++++++++++q.......j++z..+z..k+zz++++++++++++++++++zxvrqllmovwpp++uussvuuvoovyu--fkkrtpccu+++xx++xx+++++++++++++++++++zzz++++++++++++.......jrru+++++++++++++++++++++++++++++++++++++++++++++++++++++++++++++
(PID.TID 0000.0001) //      8 d..-v+++++++++++++++++x......gvz+s..+s..y+zz++++++++++++++++++riimmkgggqhh..uuuuttutoovwxvhffginje..kkwxzz++zz+++++++++++++++++++xx++++++ytty+++-......jpz++++++++++++++++++++++++++++++++++++++++++++++++++++++++++++++
(PID.TID 0000.0001) //      7 e..z++++++++++++++++++z......-z++wii+wii++++++++++++++++++++++peegifddgo....+yvvvvtsssxwwvkiiihha....eeyvv++vv++++++++++++++++++vv+++++zqkeec--qyd..hoq+++++++++++++++++++++++++++++++++++++++++++++++++++++++++++++++++
(PID.TID 0000.0001) //      6 -eq++++++++++++++++++++k.....e++++++++++++++++++++++++++++++++nggggdccnr....lkkwzwphhuxxwvmlkh-...ah--nnmm++mm++++++++++++++++++zxuu++xskkorrrsx++zzz+++++++++++++++++++++++++++++++++++++++++++++++++++++++++++++++++++
(PID.TID 0000.0001) //      5 .r+++++++++++++++++++++u.....y++++++++++++++++++++++++++++++++pjjjmmnnrwq......++wppptvwwuqojb....-iqrggyiixyiix+++++++++++++++++ccm+xpokkquuwx+++++++++++++++++++++++++++++++++++++++++++++++++++++++++++++++++++++++++
(PID.TID 0000.0001) //      4 bx+++++++++++++++++++++xmkklz++++++++++++++++++++++++++++++++zonnouvtssw.c.....++upprppusge..-.....ihhgg++ii++iiy+++++++++++++++q..+wlhhpstuuxx+++++++++++++++++++++++++++++++++++++++++++++++++++++++++++++++++++++++++
(PID.TID 0000.0001) //      3 ++++++++++++++++++++++++++++++++++++++++++++++++++++++++++++++zzzz+++uus-kd....xvvvuiigg-..........hkcc+++ee++eeez++++++++++++++bbpzzzwrrvwxppt+++++++++++++++++++++++++++++++++++++++++++++++++++++++++++++++++++++++++
(PID.TID 0000.0001) //      2 ++++++++++++++++++++++++++++++++++++++++++++++++++++++++++++++++++++++spkpb...xzuuxuoeca...........hg..+++cc++ccl++++++++++++++y..+++zrrrwzsppx++++++++++++++++++++++++++++++++++++++++++++++++++++++++++++++++ww+++++++
(PID.TID 0000.0001) //      1 ++++++++++++++++++++++++++++++++++++++++++++++++++++++++++++++++++++++uuwl....+uuwsrkjh............ajdd+++wo++woou+++++++++++++ycc+zzvqoorwussu+++++++++++++++++++++++++++++++++++++++++++++++++++++++++spp++++qqx++++++
(PID.TID 0000.0001) //      0 ++++++++++++++++++++++++++++++++++++++++++++++++++++++++++++++++++++++u+-......--qqk...............kyrllwqqqwqqqr+++++++++++++ppv+xtrogggnrsu++++++++++++++++++++++++++++++++++++++++++++++++++++++++++rrx+++++--sxttuus
(PID.TID 0000.0001) //     -1 ++++++++++++++++++++++++++++++++++++++++++++++++++++++++++++++++++++++x+..-.......n...............hxxyllppopppwpppy+++++++++++xxz+zurmgdccnt++++++++++++++++++++++++++++++++++++++++++++++++++++++++++wuu++++++ccrwpppsp
(PID.TID 0000.0001) // =======================================================
(PID.TID 0000.0001) // END OF FIELD                                          =
(PID.TID 0000.0001) // =======================================================
(PID.TID 0000.0001) 
(PID.TID 0000.0001) // =======================================================
(PID.TID 0000.0001) // Field hFacS at iteration          1
(PID.TID 0000.0001) // CMIN =          2.000000000000000E-01
(PID.TID 0000.0001) // CMAX =          1.000000000000000E+00
(PID.TID 0000.0001) // CINT =          2.962962962962963E-02
(PID.TID 0000.0001) // SYMBOLS (CMIN->CMAX): -abcdefghijklmnopqrstuvwxyz+
(PID.TID 0000.0001) //                  0.0: .
(PID.TID 0000.0001) // RANGE I (Lo:Hi:Step):(  -1: 194:   1)
(PID.TID 0000.0001) // RANGE J (Lo:Hi:Step):(  34:  -1:  -1)
(PID.TID 0000.0001) // RANGE K (Lo:Hi:Step):(   1:   1:   1)
(PID.TID 0000.0001) // =======================================================
(PID.TID 0000.0001) K =   1
(PID.TID 0000.0001) //                I=8       I=18      I=28      I=34      I=44      I=54      I=64      I=70      I=80      I=90      I=96      I=106     I=116     I=126     I=132     I=142     I=152     I=162     I=168     I=178     I=188
(PID.TID 0000.0001) // |--J--|101234567|901234567|901234567|901234123|567890123|567890123|567890123|563456789|123456789|123456789|123456785|789012345|789012345|789012345|789078901|345678901|345678901|345678901|901234567|901234567|901234567|901234
(PID.TID 0000.0001) //     34 +++++++++++++++++x.h.l..g+...........l...x+uuwsrkec...........asg.++++c++++++++++++yokpqqomkd.......z++++++++++++++++++++++++++++++++++++++++++++++++++++++++++++++skhcd-.-z++++++++++++++++++++++++++++++++++++++++++++
(PID.TID 0000.0001) //     33 +++++++++++++++uhl.gqk...p.....db...b.....n-qtqk..............atjdl+wqwc+++++++++++yojqqromle.......z++++++++++++++++++++++++++++++++++++++++++++++++++++++++++++++xsjeb-...q+++++++++++++++++++++++++++++++++++++++++++
(PID.TID 0000.0001) //     32 +++++++++++++++r-.fgqkp-.ph...ckpl..pl.......nn...............kxzrlzpqoc++++++++++zwpjloopjle......d+++++++++++++++++++++++++++++++++++++++++++++++++++++++++++++++zvpib--..erx+++++++++++++++++++++++++++++++++++++++++
(PID.TID 0000.0001) //     31 +++++++++++++++r-.rzvypxhwh..q.-kw-.kw-......................hux+ylvprol++++++++++ywpiloopjog-....-y+++++++++++++++++++++++++++++++++++++++++++++++++++++++++++++xvyuonna-de-.b+++++++++++++++++++++++++++++++++++++++++
(PID.TID 0000.0001) //     30 +++++++++++++++whd--ayu+uwz+yq.-gnvjgnvj.....................kux++zvp+u++++++++++wrwichvvqoqhd....r++++++++++++++++++++++++++++++++++++++++++++++++++++++++++++++spvuolngckl-.bu++++++++++++++++++++++++++++++++++++++++
(PID.TID 0000.0001) //     29 +++++++++++++++i...-aqu+wvvxvd..-fnx-fnx.....................trov++yy++++++++++++wrnichvyutpjea...q+++++++++++++++++++++++++++++++++++++++++++++++++++++++++++++zrpvwqlmgikmjjotx+++x+++++++++++++++++++++++++++++++++++
(PID.TID 0000.0001) //     28 ++++++++++++xzw....lnffouuvsod...bfs.bfsq.......t............rqeu++z++++++++++++++xnieku+zxpjgc...q++++++++++++++++++++++++++++++++++z+++++++++++++++++++++++++zrjrwxsollruosvutx+++x+++++++++z+++++++++++++++++++z+++++
(PID.TID 0000.0001) //     27 ++++++++++++xyl.-egdbdfgrqkmond...-m..-mxmj....nom..........-jiet++z+++++++++++++++yskrqy+ypjmgb..u++++++++++++++++++++++++++++++++++z+++++++++++++++++++++++z+uhbqwzxqllmlsvxxwyx++yx++++++++z+++++++++++++++++++z+++++
(PID.TID 0000.0001) //     26 ++++++++++++zrlikom...-edh-kplnd..-m..-mvvlrslpuoijk........cjihp++++++++++++++++++++tqqyurqkln...v++++++++++++++++++++vz+++++++++++++++++++++++++++++++++++zz+tfblyzxrpo...dsnuwu++wu++++++++++++++++++++++++++++++++++
(PID.TID 0000.0001) //     25 ++++++++++++yrmlmpi...-..f-inlbw..ak..akrtlr+++yoijknyn-...-onsyp++++++++++++++++++iv+qtztrqlln...w++++++++++++++++++++vz+++++++++++++++++++++++z+++++++++++z++ofclwxwtn......bfqu++qu++++++++++++++++++++++++++++++++++
(PID.TID 0000.0001) //     24 +++++++++z++yrmlmmha.bc..d-hkkbg-..--..-epv++++ykgjin+wf...rwy++ow+++++++++++++++++..oqqlrwwsnp...-+++++++++++++++++++++++++++++++++++++++++++++wzy+++++++++o+zh-rqwxuq..........m-t.m-t++++++++++++zm..osz+++++++++++++
(PID.TID 0000.0001) //     23 +++++++++z++zunmmmhjbdijk..-dje.t..-t..-epz+++++kgkix++udc-ks+++ow+++++++++++++++++...qqlowytupm...sr+++++++++++++++++++++++++++++++++++++++++++pwoy+++++++zo+zh..ivwrf...d........e...eb+++++++++++l.......a+++++++++++
(PID.TID 0000.0001) //     22 +++++++++z++ztmloommhimii..-bi..-..f-..fvz++++++q-s+++++toskm+++twy+++++++++++++++++...lvnwyvvym.-.rry++++++++++++++++++++++++++++++++++++++++++ljmkw++++++yx++k...bk....++++zpc...e...e.ir+++w+++++.........+++++++++++
(PID.TID 0000.0001) //     21 ++++++++++++zogjnoooffiii-.-bi.....-...-yz++++++y-s+++++yvuvm++zxvt+++++++++++++++r+.....asyz++z.inrwy++++++++++++++++++++++++++++++++++++++++++ljmklrx++++yy++yg-......z+++++++yw+eyw+e.ir+++wjr+++.........v++++++++++
(PID.TID 0000.0001) //     20 +++++++++++++ogjnqoofe.-hb-cii.....-...-y++++++++pv+++++ywzzz++vzvl+++++ru+++v++++q+.....as+++++wiqu+++y++++++++++++++++++++++++++++++++++++++++lrqplhjxz++z++zox+u..-z++++++++++++++++++++++++jg.+n.........v++++++++++
(PID.TID 0000.0001) //     19 +++++++++++++zpnsstsre.-gb--.....-gt.-gt+++++++++zv++++zmus+++nmzxl+++++-h+++vxz++q++-...b+++++++tr++++y++++++++++++++++++++++++++++++++++++++++orqqohjuz++z+qgoy+++++++++++++++++++++++++++++++g.tnf.........++++++++++
(PID.TID 0000.0001) //     18 +++++++++++++++xzz++yh-bgfc-....amu+amu++++++++++++++++zmps+yr-mvuxw++++.hxx+yxz+++++++ed+++++++++o+++++++++++++++++++++++++++++++++++++++++++++opoqqrmuz++zxigv++++++++++++++++++++++++++++++++y.............h+++++++++
(PID.TID 0000.0001) //     17 +++++++++++++++++++++neilkh.....tx++tx++++++++++++++++++xpw+yr-ohtxwxp++.f.nwy+yi+++++g++++++++++kmq++++++++++++++++++++++++++++++++zy++++++w+++jmmnrquwz++zx.n++++z++++++++++++++++++++++++++++y..............+++++++++
(PID.TID 0000.0001) //     16 +zxsx++++++++++++++++vigjhd.....y+++y++++++++++++++++++++ssz+uuzhtyxxpyyrf.hry+yfb.t++g++++++++++keqm+++++++++++++++++++++++++++++++zy+++++zur++jllkmpqwz+++y.y++++z++++++++++++++++++++++++++++yi.............+++++++++
(PID.TID 0000.0001) //     15 wvskmr+++++++++++++++zp-.-.....-++++++++++++++++++++++++++swuvxzquyxzvc.vgq.gxzwfb.my+++z+++++++zpebm+z++++++++++++++++++++++++++++++++++++zurs+gefdchlosywp.e+++++++++++++++++++++++++++++++++++p..k-.........+++++++++
(PID.TID 0000.0001) //     14 rpjhmr++++++++++++++++s........k+++++++++++++++++++++++++++wuvxxvxu+++c.vkl.gvzwzyvmy++xz+w+++zyuwe.tbq+++++++++++++++++++++++++++++zz+++++++xp+-......-c-...e+++++++++++++++++++++++++++++++++++u..v+g.......++++++++++
(PID.TID 0000.0001) //     13 qiecmu++++++++++++++++h........jyz+zyz+z++++++++++++++++++++++zxvxu+zx++pk.sdtvvyyvpz+vx++wt++zuo...yb-++++++++++++++++++++++++++++zyzx+++++++p+.............z++++++++++++++++++++++++++++++++++++xuw++......-++++++++++
(PID.TID 0000.0001) //     12 nbdcu+++++++++++++++++........-gyz+fyz+f++++++++++++++++++++++++++uxutz+p-...ruuvvvxxzvz+xttywnj....yw-y+++++++++++++++++++++++++++zy+x+++++++++............h++++++++++++++++++++++++++++++++++++++++++-.....z++++++++++
(PID.TID 0000.0001) //     11 a--dz+++++++++++++++++........-gyzkdyzkd+++++++++++++++++++++++++xmmrrz+h....rustvuuvwryyxsrmtn....h+++yz+++z+++++++++++++++++++++x+++z+++++++++..........dy+++++++++++++++++++++++++++++++++++++++++++-....-+++++++++++
(PID.TID 0000.0001) //     10 --.iz+++++++++++++++++.......aty+z.d+z.d++z+++++++++++++++++++zxvrmlmovzh.gvrrustvuuvoryyu-flkr..a.h++++x+++x++++++++++++++++++++zx+++++++++++++........aux++++++++++++++++++++++++++++++++++++++++++++d..mr++++++++++++
(PID.TID 0000.0001) //      9 -..k++++++++++++++++++q......jz++s.k+s.k++z+++++++++++++++++++rimnmkggqrhj.+uuustuutoovxyu-fgiqnje.okwx+x+++x++++++++++++++++++++xz++++++yty++++-.....jpru++++++++++++++++++++++++++++++++++++++++++++++++++++++++++++++
(PID.TID 0000.0001) //      8 d.-v++++++++++++++++++x.....-vz++s.y+s.y++z+++++++++++++++++++pegiifdgor...+uvuututsovwwwvhfgihia...kexyv+++v+++++++++++++++++++vx+++++zqkegc-qw-.....jpz+++++++++++++++++++++++++++++++++++++++++++++++++++++++++++++++
(PID.TID 0000.0001) //      7 e.z+++++++++++++++++++z.....-z+++wi++wi+++++++++++++++++++++++negggdcgor...lpkvvvwphsxxwwvkiih-.....-enym+++m+++++++++++++++++++vxu+++xskkegc-qwyd.hoq++++++++++++++++++++++++++++++++++++++++++++++++++++++++++++++++++
(PID.TID 0000.0001) //      6 eq+++++++++++++++++++++k....e+++++++++++++++++++++++++++++++++nggggdcnrw......wzzwphtvwwwumljb...-ih-pg+mix+mix+++++++++++++++++zcm++xpokourrsx+++zz++++++++++++++++++++++++++++++++++++++++++++++++++++++++++++++++++++
(PID.TID 0000.0001) //      5 r++++++++++++++++++++++u....y++++++++++++++++++++++++++++++++zojjmmnnrwzg.....+++upprpuvsge.--....iphqg+yiiyyiiy++++++++++++++++q.m+wlhokqvuwx++++++++++++++++++++++++++++++++++++++++++++++++++++++++++++++++++++++++++
(PID.TID 0000.0001) //      4 x++++++++++++++++++++++xmklz+++++++++++++++++++++++++++++++++zonouvwtsusgc....+xvuptiigq-.........hphcg+++ee++eez+++++++++++++++b.+zwlhpstvupt++++++++++++++++++++++++++++++++++++++++++++++++++++++++++++++++++++++++++
(PID.TID 0000.0001) //      3 ++++++++++++++++++++++++++++++++++++++++++++++++++++++++++++++z+z++++usplkb...+xuvvuieca..........hsg.++++ce++cez++++++++++++++y.p+zzzrrvwxspt+++++++++++++++++++++++++++++++++++++++++++++++++++++++++++++++++w++++++++
(PID.TID 0000.0001) //      2 ++++++++++++++++++++++++++++++++++++++++++++++++++++++++++++++++++++++spql...x+uuwsrkec...........asg.++++cl++clu++++++++++++++y.++zzvqorwwspu++++++++++++++++++++++++++++++++++++++++++++++++++++++++++sp+++++qx+++++++
(PID.TID 0000.0001) //      1 ++++++++++++++++++++++++++++++++++++++++++++++++++++++++++++++++++++++ux-.....n-qtqk..............atjdl+wqqowqqou+++++++++++++pvc+xtroggnrsusu+++++++++++++++++++++++++++++++++++++++++++++++++++++++++rsp+++++-sxxtxuus
(PID.TID 0000.0001) //      0 ++++++++++++++++++++++++++++++++++++++++++++++++++++++++++++++++++++++u+.l.......nn...............kxzrlzpqopp+qppy++++++++++++pv++xtrmgdcnsu++++++++++++++++++++++++++++++++++++++++++++++++++++++++++wrx++++++-rwxpps+p
(PID.TID 0000.0001) //     -1 ++++++++++++++++++++++++++++++++++++++++++++++++++++++++++++++++++++++tpkw-......................hux+ylvprwpprwppyzz+++++++++wxx++zumlgdcnt+++++++++++++++++++++++++++++++++++++++++++++++++++++++++++wu++++++ycruuppsu+
(PID.TID 0000.0001) // =======================================================
(PID.TID 0000.0001) // END OF FIELD                                          =
(PID.TID 0000.0001) // =======================================================
(PID.TID 0000.0001) 
(PID.TID 0000.0001) 
(PID.TID 0000.0001) // ===================================
(PID.TID 0000.0001) // GAD parameters :
(PID.TID 0000.0001) // ===================================
(PID.TID 0000.0001) tempAdvScheme =   /* Temp. Horiz.Advection scheme selector */
(PID.TID 0000.0001)                       2
(PID.TID 0000.0001)     ;
(PID.TID 0000.0001) tempVertAdvScheme =   /* Temp. Vert. Advection scheme selector */
(PID.TID 0000.0001)                       2
(PID.TID 0000.0001)     ;
(PID.TID 0000.0001) tempMultiDimAdvec =   /* use Muti-Dim Advec method for Temp */
(PID.TID 0000.0001)                   F
(PID.TID 0000.0001)     ;
(PID.TID 0000.0001) AdamsBashforthGt =   /* apply Adams-Bashforth extrapolation on Gt */
(PID.TID 0000.0001)                   T
(PID.TID 0000.0001)     ;
(PID.TID 0000.0001) AdamsBashforth_T =   /* apply Adams-Bashforth extrapolation on Temp */
(PID.TID 0000.0001)                   F
(PID.TID 0000.0001)     ;
(PID.TID 0000.0001) saltAdvScheme =   /* Salt. Horiz.advection scheme selector */
(PID.TID 0000.0001)                       3
(PID.TID 0000.0001)     ;
(PID.TID 0000.0001) saltVertAdvScheme =   /* Salt. Vert. Advection scheme selector */
(PID.TID 0000.0001)                       3
(PID.TID 0000.0001)     ;
(PID.TID 0000.0001) saltMultiDimAdvec =   /* use Muti-Dim Advec method for Salt */
(PID.TID 0000.0001)                   F
(PID.TID 0000.0001)     ;
(PID.TID 0000.0001) AdamsBashforthGs =   /* apply Adams-Bashforth extrapolation on Gs */
(PID.TID 0000.0001)                   T
(PID.TID 0000.0001)     ;
(PID.TID 0000.0001) AdamsBashforth_S =   /* apply Adams-Bashforth extrapolation on Salt */
(PID.TID 0000.0001)                   F
(PID.TID 0000.0001)     ;
(PID.TID 0000.0001) // ===================================
 Setting Alarm for: 19930110  060000,  with frequency:       3000, and Tag: radsw                                                                           
 Setting Alarm for: 19930110  060000,  with frequency:       3000, and Tag: radlw                                                                           
 Setting Alarm for: 19930110  060000,  with frequency:       1000, and Tag: turb                                                                            
 Setting Alarm for: 19930110  060000,  with frequency:       1000, and Tag: moist                                                                           
 Setting Alarm for: 19930110  060000,  with frequency:          0, and Tag: pnt                                                                             
 No of Total Tiles for bi=           1:         2562
 No of Land  Tiles for bi=           1:         1977
 No of Total Tiles for bi=           2:         2569
 No of Land  Tiles for bi=           2:         1981
 No of Total Tiles for bi=           3:         2553
 No of Land  Tiles for bi=           3:         2122
 No of Total Tiles for bi=           4:         1380
 No of Land  Tiles for bi=           4:          488
 No of Total Tiles for bi=           5:         2148
 No of Land  Tiles for bi=           5:         1457
 No of Total Tiles for bi=           6:         1107
 No of Land  Tiles for bi=           6:          246
(PID.TID 0000.0001)  MDSREADFIELD: opening global file: topvar19232.data
(PID.TID 0000.0001) ------------------------------------------------------------
(PID.TID 0000.0001) DIAGNOSTICS_SET_LEVELS: done
(PID.TID 0000.0001)  Total Nb of available Diagnostics: ndiagt= 384
(PID.TID 0000.0001)  write list of available Diagnostics to file: available_diagnostics.log
(PID.TID 0000.0001) SETDIAG: Allocate  1 x  1 Levels for Diagnostic # 289 TCANOPY
(PID.TID 0000.0001) SETDIAG: Allocate  1 x  1 Levels for Diagnostic # 198 OLR
(PID.TID 0000.0001) SETDIAG: Allocate  1 x  1 Levels for Diagnostic #  85 RSURF
(PID.TID 0000.0001) SETDIAG: Allocate 21 x  1 Levels for Diagnostic # 159 DPPHYS
(PID.TID 0000.0001) SETDIAG: Allocate 21 x  1 Levels for Diagnostic # 372 FIZPRES
(PID.TID 0000.0001) SETDIAG: Allocate 10 x  1 Levels for Diagnostic #  29 UVEL
(PID.TID 0000.0001) SETDIAG: Allocate 10 x  1 Levels for Diagnostic #  84 RCENTER
(PID.TID 0000.0001)   space allocated for all diagnostics:    65 levels
(PID.TID 0000.0001) DIAGNOSTICS_SET_POINTERS: done
(PID.TID 0000.0001) ------------------------------------------------------------
(PID.TID 0000.0001) DIAGSTATS_SET_REGIONS: define no region
(PID.TID 0000.0001) ------------------------------------------------------------
(PID.TID 0000.0001)   space allocated for all stats-diags:     0 levels
(PID.TID 0000.0001) DIAGSTATS_SET_POINTERS: done
(PID.TID 0000.0001) ------------------------------------------------------------
 Setting Alarm for: 19930110  060000,  with frequency:       3000, and Tag: diagtag01                                                                       
 Setting Alarm for: 19930110  060000,  with frequency:       3000, and Tag: diagtag02                                                                       
 Setting Alarm for: 19930110  060000,  with frequency:       3000, and Tag: diagtag03                                                                       
 Setting Alarm for: 19930110  060000,  with frequency:       3000, and Tag: diagtag04                                                                       
(PID.TID 0000.0001) %MON fCori_max                    =   1.4535016908525E-04
(PID.TID 0000.0001) %MON fCori_min                    =  -1.4535016908525E-04
(PID.TID 0000.0001) %MON fCori_mean                   =   0.0000000000000E+00
(PID.TID 0000.0001) %MON fCori_sd                     =   8.3972192788621E-05
(PID.TID 0000.0001) %MON fCoriG_max                   =   1.4544410433286E-04
(PID.TID 0000.0001) %MON fCoriG_min                   =  -1.4544410433286E-04
(PID.TID 0000.0001) %MON fCoriG_mean                  =   0.0000000000000E+00
(PID.TID 0000.0001) %MON fCoriG_sd                    =   8.4860812167727E-05
(PID.TID 0000.0001) %MON fCoriCos_max                 =   1.4540341538469E-04
(PID.TID 0000.0001) %MON fCoriCos_min                 =   5.2264550201501E-06
(PID.TID 0000.0001) %MON fCoriCos_mean                =   1.1482595466044E-04
(PID.TID 0000.0001) %MON fCoriCos_sd                  =   3.0292878037194E-05
(PID.TID 0000.0001) INI_CG2D: CG2D normalisation factor =  9.9119603843467488E-06
(PID.TID 0000.0001) INI_CG2D: cg2dTolerance = 1.684584618385682E-10 (Area=5.0986421043E+14)
(PID.TID 0000.0001) 
(PID.TID 0000.0001) CONFIG_CHECK: OK
(PID.TID 0000.0001) // =======================================================
(PID.TID 0000.0001) // Model configuration
(PID.TID 0000.0001) // =======================================================
(PID.TID 0000.0001) //
(PID.TID 0000.0001) // "Physical" paramters ( PARM01 in namelist )
(PID.TID 0000.0001) //
(PID.TID 0000.0001) buoyancyRelation = ATMOSPHERIC
(PID.TID 0000.0001) fluidIsAir  =  /* fluid major constituent is Air */
(PID.TID 0000.0001)                   T
(PID.TID 0000.0001)     ;
(PID.TID 0000.0001) fluidIsWater=  /* fuild major constituent is Water */
(PID.TID 0000.0001)                   F
(PID.TID 0000.0001)     ;
(PID.TID 0000.0001) usingPCoords =  /* use p (or p*) vertical coordinate */
(PID.TID 0000.0001)                   T
(PID.TID 0000.0001)     ;
(PID.TID 0000.0001) usingZCoords =  /* use z (or z*) vertical coordinate */
(PID.TID 0000.0001)                   F
(PID.TID 0000.0001)     ;
(PID.TID 0000.0001) tRef =   /* Reference temperature profile ( oC or K ) */
(PID.TID 0000.0001)                 2.888000000000000E+02,      /* K =  1 */
(PID.TID 0000.0001)                 2.927000000000000E+02,      /* K =  2 */
(PID.TID 0000.0001)                 2.981000000000000E+02,      /* K =  3 */
(PID.TID 0000.0001)                 3.038000000000000E+02,      /* K =  4 */
(PID.TID 0000.0001)                 3.098000000000000E+02,      /* K =  5 */
(PID.TID 0000.0001)                 3.162000000000000E+02,      /* K =  6 */
(PID.TID 0000.0001)                 3.232000000000000E+02,      /* K =  7 */
(PID.TID 0000.0001)                 3.325000000000000E+02,      /* K =  8 */
(PID.TID 0000.0001)                 3.561000000000000E+02,      /* K =  9 */
(PID.TID 0000.0001)                 4.374000000000000E+02       /* K = 10 */
(PID.TID 0000.0001)     ;
(PID.TID 0000.0001) sRef =   /* Reference salinity profile ( psu ) */
(PID.TID 0000.0001)                 1.000000000000000E-03,      /* K =  1 */
(PID.TID 0000.0001)                 5.000000000000000E-04,      /* K =  2 */
(PID.TID 0000.0001)                 1.000000000000000E-04,      /* K =  3 */
(PID.TID 0000.0001)     5 @  1.000000000000000E-06,             /* K =  4:  8 */
(PID.TID 0000.0001)                 1.000000000000000E-08,      /* K =  9 */
(PID.TID 0000.0001)                 1.000000000000000E-09       /* K = 10 */
(PID.TID 0000.0001)     ;
(PID.TID 0000.0001) viscAh =   /* Lateral eddy viscosity ( m^2/s ) */
(PID.TID 0000.0001)                 0.000000000000000E+00
(PID.TID 0000.0001)     ;
(PID.TID 0000.0001) viscAhMax =   /* Maximum lateral eddy viscosity ( m^2/s ) */
(PID.TID 0000.0001)                 1.000000000000000E+21
(PID.TID 0000.0001)     ;
(PID.TID 0000.0001) viscAhGrid =   /* Grid dependent lateral eddy viscosity ( non-dim. ) */
(PID.TID 0000.0001)                 0.000000000000000E+00
(PID.TID 0000.0001)     ;
(PID.TID 0000.0001) useFullLeith =   /* Use Full Form of Leith Viscosity on/off flag*/
(PID.TID 0000.0001)                   F
(PID.TID 0000.0001)     ;
(PID.TID 0000.0001) useStrainTensionVisc =   /* Use StrainTension Form of Viscous Operator on/off flag*/
(PID.TID 0000.0001)                   F
(PID.TID 0000.0001)     ;
(PID.TID 0000.0001) useAreaViscLength =   /* Use area for visc length instead of geom. mean*/
(PID.TID 0000.0001)                   F
(PID.TID 0000.0001)     ;
(PID.TID 0000.0001) viscC2leith = /* Leith harmonic visc. factor (on grad(vort),non-dim.) */
(PID.TID 0000.0001)                 0.000000000000000E+00
(PID.TID 0000.0001)     ;
(PID.TID 0000.0001) viscC2leithD = /* Leith harmonic viscosity factor (on grad(div),non-dim.) */
(PID.TID 0000.0001)                 0.000000000000000E+00
(PID.TID 0000.0001)     ;
(PID.TID 0000.0001) viscC2smag =   /* Smagorinsky harmonic viscosity factor (non-dim.) */
(PID.TID 0000.0001)                 0.000000000000000E+00
(PID.TID 0000.0001)     ;
(PID.TID 0000.0001) viscA4 =   /* Lateral biharmonic viscosity ( m^4/s ) */
(PID.TID 0000.0001)                 0.000000000000000E+00
(PID.TID 0000.0001)     ;
(PID.TID 0000.0001) viscA4Max =   /* Maximum biharmonic viscosity ( m^2/s ) */
(PID.TID 0000.0001)                 1.000000000000000E+21
(PID.TID 0000.0001)     ;
(PID.TID 0000.0001) viscA4Grid =   /* Grid dependent biharmonic viscosity ( non-dim. ) */
(PID.TID 0000.0001)                 0.000000000000000E+00
(PID.TID 0000.0001)     ;
(PID.TID 0000.0001) viscC4leith = /* Leith biharm viscosity factor (on grad(vort), non-dim.) */
(PID.TID 0000.0001)                 0.000000000000000E+00
(PID.TID 0000.0001)     ;
(PID.TID 0000.0001) viscC4leithD = /* Leith biharm viscosity factor (on grad(div), non-dim.) */
(PID.TID 0000.0001)                 0.000000000000000E+00
(PID.TID 0000.0001)     ;
(PID.TID 0000.0001) viscC4Smag = /* Smagorinsky biharm viscosity factor (non-dim) */
(PID.TID 0000.0001)                 0.000000000000000E+00
(PID.TID 0000.0001)     ;
(PID.TID 0000.0001) no_slip_sides =  /* Viscous BCs: No-slip sides */
(PID.TID 0000.0001)                   F
(PID.TID 0000.0001)     ;
(PID.TID 0000.0001) sideDragFactor = /* side-drag scaling factor (non-dim) */
(PID.TID 0000.0001)                 2.000000000000000E+00
(PID.TID 0000.0001)     ;
(PID.TID 0000.0001) viscAr =   /* Vertical eddy viscosity ( units of r^2/s ) */
(PID.TID 0000.0001)                 0.000000000000000E+00
(PID.TID 0000.0001)     ;
(PID.TID 0000.0001) no_slip_bottom =  /* Viscous BCs: No-slip bottom */
(PID.TID 0000.0001)                   F
(PID.TID 0000.0001)     ;
(PID.TID 0000.0001) bottomDragLinear = /* linear bottom-drag coefficient ( 1/s ) */
(PID.TID 0000.0001)                 0.000000000000000E+00
(PID.TID 0000.0001)     ;
(PID.TID 0000.0001) bottomDragQuadratic = /* quadratic bottom-drag coeff. ( 1/m ) */
(PID.TID 0000.0001)                 0.000000000000000E+00
(PID.TID 0000.0001)     ;
(PID.TID 0000.0001) diffKhT =   /* Laplacian diffusion of heat laterally ( m^2/s ) */
(PID.TID 0000.0001)                 0.000000000000000E+00
(PID.TID 0000.0001)     ;
(PID.TID 0000.0001) diffK4T =   /* Bihaarmonic diffusion of heat laterally ( m^4/s ) */
(PID.TID 0000.0001)                 0.000000000000000E+00
(PID.TID 0000.0001)     ;
(PID.TID 0000.0001) diffKhS =   /* Laplacian diffusion of salt laterally ( m^2/s ) */
(PID.TID 0000.0001)                 0.000000000000000E+00
(PID.TID 0000.0001)     ;
(PID.TID 0000.0001) diffK4S =   /* Bihaarmonic diffusion of salt laterally ( m^4/s ) */
(PID.TID 0000.0001)                 0.000000000000000E+00
(PID.TID 0000.0001)     ;
(PID.TID 0000.0001) diffKrNrT = /* vertical profile of vertical diffusion of Temp ( m^2/s )*/
(PID.TID 0000.0001)    10 @  0.000000000000000E+00              /* K =  1: 10 */
(PID.TID 0000.0001)     ;
(PID.TID 0000.0001) diffKrNrS = /* vertical profile of vertical diffusion of Salt ( m^2/s )*/
(PID.TID 0000.0001)    10 @  0.000000000000000E+00              /* K =  1: 10 */
(PID.TID 0000.0001)     ;
(PID.TID 0000.0001) diffKrBL79surf =   /* Surface diffusion for Bryan and Lewis 1979 ( m^2/s ) */
(PID.TID 0000.0001)                 0.000000000000000E+00
(PID.TID 0000.0001)     ;
(PID.TID 0000.0001) diffKrBL79deep =   /* Deep diffusion for Bryan and Lewis 1979 ( m^2/s ) */
(PID.TID 0000.0001)                 0.000000000000000E+00
(PID.TID 0000.0001)     ;
(PID.TID 0000.0001) diffKrBL79scl =   /* Depth scale for Bryan and Lewis 1979 ( m ) */
(PID.TID 0000.0001)                 2.000000000000000E+02
(PID.TID 0000.0001)     ;
(PID.TID 0000.0001) diffKrBL79Ho =   /* Turning depth for Bryan and Lewis 1979 ( m ) */
(PID.TID 0000.0001)                -2.000000000000000E+03
(PID.TID 0000.0001)     ;
(PID.TID 0000.0001) Equation of State : eosType = IDEALG ;
(PID.TID 0000.0001) tAlpha =   /* Linear EOS thermal expansion coefficient ( 1/oC ) */
(PID.TID 0000.0001)                 1.234567000000000E+05
(PID.TID 0000.0001)     ;
(PID.TID 0000.0001) sBeta =   /* Linear EOS haline contraction coefficient ( 1/psu ) */
(PID.TID 0000.0001)                 1.234567000000000E+05
(PID.TID 0000.0001)     ;
(PID.TID 0000.0001) atm_Rd =  /* gas constant for dry air ( J/kg/K ) */
(PID.TID 0000.0001)                 2.868571428571428E+02
(PID.TID 0000.0001)     ;
(PID.TID 0000.0001) atm_Cp =  /* specific heat (Cp) of dry air ( J/kg/K ) */
(PID.TID 0000.0001)                 1.004000000000000E+03
(PID.TID 0000.0001)     ;
(PID.TID 0000.0001) atm_kappa =  /* kappa (=Rd/Cp ) of dry air */
(PID.TID 0000.0001)                 2.857142857142857E-01
(PID.TID 0000.0001)     ;
(PID.TID 0000.0001) atm_Rq = /* water vap. specific vol. anomaly relative to dry air */
(PID.TID 0000.0001)                 6.078000000000000E-01
(PID.TID 0000.0001)     ;
(PID.TID 0000.0001) atm_Po =  /* standard reference pressure ( Pa ) */
(PID.TID 0000.0001)                 1.000000000000000E+05
(PID.TID 0000.0001)     ;
(PID.TID 0000.0001) integr_GeoPot =  /* select how the geopotential is integrated */
(PID.TID 0000.0001)                       2
(PID.TID 0000.0001)     ;
(PID.TID 0000.0001) selectFindRoSurf=  /* select how Surf.Ref. pressure is defined */
(PID.TID 0000.0001)                       0
(PID.TID 0000.0001)     ;
(PID.TID 0000.0001) rhonil =   /* Reference density ( kg/m^3 ) */
(PID.TID 0000.0001)                 1.000000000000000E+00
(PID.TID 0000.0001)     ;
(PID.TID 0000.0001) rhoConst =   /* Reference density ( kg/m^3 ) */
(PID.TID 0000.0001)                 1.000000000000000E+00
(PID.TID 0000.0001)     ;
(PID.TID 0000.0001) rhoConstFresh =   /* Reference density ( kg/m^3 ) */
(PID.TID 0000.0001)                 1.000000000000000E+00
(PID.TID 0000.0001)     ;
(PID.TID 0000.0001) gravity =   /* Gravitational acceleration ( m/s^2 ) */
(PID.TID 0000.0001)                 9.810000000000001E+00
(PID.TID 0000.0001)     ;
(PID.TID 0000.0001) gBaro =   /* Barotropic gravity ( m/s^2 ) */
(PID.TID 0000.0001)                 9.810000000000001E+00
(PID.TID 0000.0001)     ;
(PID.TID 0000.0001) rotationPeriod =   /* Rotation Period ( s ) */
(PID.TID 0000.0001)                 8.640000000000000E+04
(PID.TID 0000.0001)     ;
(PID.TID 0000.0001) omega =   /* Angular velocity ( rad/s ) */
(PID.TID 0000.0001)                 7.272205216643039E-05
(PID.TID 0000.0001)     ;
(PID.TID 0000.0001) f0 =   /* Reference coriolis parameter ( 1/s ) */
(PID.TID 0000.0001)                 1.000000000000000E-04
(PID.TID 0000.0001)     ;
(PID.TID 0000.0001) beta =   /* Beta ( 1/(m.s) ) */
(PID.TID 0000.0001)                 9.999999999999998E-12
(PID.TID 0000.0001)     ;
(PID.TID 0000.0001) freeSurfFac =   /* Implicit free surface factor */
(PID.TID 0000.0001)                 1.000000000000000E+00
(PID.TID 0000.0001)     ;
(PID.TID 0000.0001) implicitFreeSurface =   /* Implicit free surface on/off flag */
(PID.TID 0000.0001)                   T
(PID.TID 0000.0001)     ;
(PID.TID 0000.0001) rigidLid =   /* Rigid lid on/off flag */
(PID.TID 0000.0001)                   F
(PID.TID 0000.0001)     ;
(PID.TID 0000.0001) implicSurfPress =   /* Surface Pressure implicit factor (0-1)*/
(PID.TID 0000.0001)                 1.000000000000000E+00
(PID.TID 0000.0001)     ;
(PID.TID 0000.0001) implicDiv2Dflow =   /* Barot. Flow Div. implicit factor (0-1)*/
(PID.TID 0000.0001)                 1.000000000000000E+00
(PID.TID 0000.0001)     ;
(PID.TID 0000.0001) exactConserv =   /* Exact Volume Conservation on/off flag*/
(PID.TID 0000.0001)                   T
(PID.TID 0000.0001)     ;
(PID.TID 0000.0001) uniformLin_PhiSurf =   /* use uniform Bo_surf on/off flag*/
(PID.TID 0000.0001)                   F
(PID.TID 0000.0001)     ;
(PID.TID 0000.0001) nonlinFreeSurf =   /* Non-linear Free Surf. options (-1,0,1,2,3)*/
(PID.TID 0000.0001)                       4
(PID.TID 0000.0001)     ;
(PID.TID 0000.0001)      -1,0= Off ; 1,2,3= On, 2=+rescale gU,gV, 3=+update cg2d solv.
(PID.TID 0000.0001) hFacInf =   /* lower threshold for hFac (nonlinFreeSurf only)*/
(PID.TID 0000.0001)                 2.000000000000000E-01
(PID.TID 0000.0001)     ;
(PID.TID 0000.0001) hFacSup =   /* upper threshold for hFac (nonlinFreeSurf only)*/
(PID.TID 0000.0001)                 2.000000000000000E+00
(PID.TID 0000.0001)     ;
(PID.TID 0000.0001) select_rStar =   /* r* Coordinate options (not yet implemented)*/
(PID.TID 0000.0001)                       2
(PID.TID 0000.0001)     ;
(PID.TID 0000.0001) useRealFreshWaterFlux =   /* Real Fresh Water Flux on/off flag*/
(PID.TID 0000.0001)                   F
(PID.TID 0000.0001)     ;
(PID.TID 0000.0001) convertFW2Salt = /* convert F.W. Flux to Salt Flux (-1=use local S)(ppt)*/
(PID.TID 0000.0001)                 3.500000000000000E+01
(PID.TID 0000.0001)     ;
(PID.TID 0000.0001) use3Dsolver = /* use 3-D pressure solver on/off flag */
(PID.TID 0000.0001)                   F
(PID.TID 0000.0001)     ;
(PID.TID 0000.0001) nonHydrostatic =  /* Non-Hydrostatic on/off flag */
(PID.TID 0000.0001)                   F
(PID.TID 0000.0001)     ;
(PID.TID 0000.0001) nh_Am2 = /* Non-Hydrostatic terms scaling factor */
(PID.TID 0000.0001)                 1.000000000000000E+00
(PID.TID 0000.0001)     ;
(PID.TID 0000.0001) quasiHydrostatic = /* Quasi-Hydrostatic on/off flag */
(PID.TID 0000.0001)                   F
(PID.TID 0000.0001)     ;
(PID.TID 0000.0001) momStepping =  /* Momentum equation on/off flag */
(PID.TID 0000.0001)                   T
(PID.TID 0000.0001)     ;
(PID.TID 0000.0001) vectorInvariantMomentum= /* Vector-Invariant Momentum on/off */
(PID.TID 0000.0001)                   T
(PID.TID 0000.0001)     ;
(PID.TID 0000.0001) momAdvection =  /* Momentum advection on/off flag */
(PID.TID 0000.0001)                   T
(PID.TID 0000.0001)     ;
(PID.TID 0000.0001) momViscosity =  /* Momentum viscosity on/off flag */
(PID.TID 0000.0001)                   T
(PID.TID 0000.0001)     ;
(PID.TID 0000.0001) momImplVertAdv =/* Momentum implicit vert. advection on/off*/
(PID.TID 0000.0001)                   F
(PID.TID 0000.0001)     ;
(PID.TID 0000.0001) implicitViscosity = /* Implicit viscosity on/off flag */
(PID.TID 0000.0001)                   F
(PID.TID 0000.0001)     ;
(PID.TID 0000.0001) metricTerms =  /* metric-Terms on/off flag */
(PID.TID 0000.0001)                   F
(PID.TID 0000.0001)     ;
(PID.TID 0000.0001) useNHMTerms = /* Non-Hydrostatic Metric-Terms on/off */
(PID.TID 0000.0001)                   F
(PID.TID 0000.0001)     ;
(PID.TID 0000.0001) useConstantF =  /* use Constant f0 Coriolis flag */
(PID.TID 0000.0001)                   F
(PID.TID 0000.0001)     ;
(PID.TID 0000.0001) useBetaPlaneF = /* use Beta-Plane Coriolis flag */
(PID.TID 0000.0001)                   F
(PID.TID 0000.0001)     ;
(PID.TID 0000.0001) useSphereF  =   /* use Spherical Coriolis flag */
(PID.TID 0000.0001)                   T
(PID.TID 0000.0001)     ;
(PID.TID 0000.0001) use3dCoriolis = /* 3-D Coriolis on/off flag */
(PID.TID 0000.0001)                   F
(PID.TID 0000.0001)     ;
(PID.TID 0000.0001) useCoriolis =  /* Coriolis on/off flag */
(PID.TID 0000.0001)                   T
(PID.TID 0000.0001)     ;
(PID.TID 0000.0001) useCDscheme =  /* CD scheme on/off flag */
(PID.TID 0000.0001)                   F
(PID.TID 0000.0001)     ;
(PID.TID 0000.0001) useJamartWetPoints= /* Coriolis WetPoints method flag */
(PID.TID 0000.0001)                   F
(PID.TID 0000.0001)     ;
(PID.TID 0000.0001) useJamartMomAdv= /* V.I. Non-linear terms Jamart flag */
(PID.TID 0000.0001)                   F
(PID.TID 0000.0001)     ;
(PID.TID 0000.0001) SadournyCoriolis= /* Sadourny Coriolis discr. flag */
(PID.TID 0000.0001)                   F
(PID.TID 0000.0001)     ;
(PID.TID 0000.0001) upwindVorticity= /* Upwind bias vorticity flag */
(PID.TID 0000.0001)                   F
(PID.TID 0000.0001)     ;
(PID.TID 0000.0001) useAbsVorticity= /* Work with f+zeta in Coriolis */
(PID.TID 0000.0001)                   F
(PID.TID 0000.0001)     ;
(PID.TID 0000.0001) highOrderVorticity= /* High order interp. of vort. flag */
(PID.TID 0000.0001)                   F
(PID.TID 0000.0001)     ;
(PID.TID 0000.0001) upwindShear= /* Upwind vertical Shear advection flag */
(PID.TID 0000.0001)                   F
(PID.TID 0000.0001)     ;
(PID.TID 0000.0001) selectKEscheme= /* Kinetic Energy scheme selector */
(PID.TID 0000.0001)                       0
(PID.TID 0000.0001)     ;
(PID.TID 0000.0001) momForcing =  /* Momentum forcing on/off flag */
(PID.TID 0000.0001)                   T
(PID.TID 0000.0001)     ;
(PID.TID 0000.0001) momPressureForcing =  /* Momentum pressure term on/off flag */
(PID.TID 0000.0001)                   T
(PID.TID 0000.0001)     ;
(PID.TID 0000.0001) implicitIntGravWave= /* Implicit Internal Gravity Wave flag */
(PID.TID 0000.0001)                   F
(PID.TID 0000.0001)     ;
(PID.TID 0000.0001) staggerTimeStep =   /* Stagger time stepping on/off flag */
(PID.TID 0000.0001)                   T
(PID.TID 0000.0001)     ;
(PID.TID 0000.0001) multiDimAdvection =   /* enable/disable Multi-Dim Advection */
(PID.TID 0000.0001)                   T
(PID.TID 0000.0001)     ;
(PID.TID 0000.0001) useMultiDimAdvec =   /* Multi-Dim Advection is/is-not used */
(PID.TID 0000.0001)                   F
(PID.TID 0000.0001)     ;
(PID.TID 0000.0001) implicitDiffusion =/* Implicit Diffusion on/off flag */
(PID.TID 0000.0001)                   F
(PID.TID 0000.0001)     ;
(PID.TID 0000.0001) tempStepping =  /* Temperature equation on/off flag */
(PID.TID 0000.0001)                   T
(PID.TID 0000.0001)     ;
(PID.TID 0000.0001) tempAdvection=  /* Temperature advection on/off flag */
(PID.TID 0000.0001)                   T
(PID.TID 0000.0001)     ;
(PID.TID 0000.0001) tempImplVertAdv =/* Temp. implicit vert. advection on/off */
(PID.TID 0000.0001)                   F
(PID.TID 0000.0001)     ;
(PID.TID 0000.0001) tempForcing  =  /* Temperature forcing on/off flag */
(PID.TID 0000.0001)                   T
(PID.TID 0000.0001)     ;
(PID.TID 0000.0001) saltStepping =  /* Salinity equation on/off flag */
(PID.TID 0000.0001)                   T
(PID.TID 0000.0001)     ;
(PID.TID 0000.0001) saltAdvection=  /* Salinity advection on/off flag */
(PID.TID 0000.0001)                   T
(PID.TID 0000.0001)     ;
(PID.TID 0000.0001) saltImplVertAdv =/* Sali. implicit vert. advection on/off */
(PID.TID 0000.0001)                   F
(PID.TID 0000.0001)     ;
(PID.TID 0000.0001) saltForcing  =  /* Salinity forcing on/off flag */
(PID.TID 0000.0001)                   T
(PID.TID 0000.0001)     ;
(PID.TID 0000.0001)  readBinaryPrec = /* Precision used for reading binary files */
(PID.TID 0000.0001)                      64
(PID.TID 0000.0001)     ;
(PID.TID 0000.0001) writeBinaryPrec = /* Precision used for writing binary files */
(PID.TID 0000.0001)                      64
(PID.TID 0000.0001)     ;
(PID.TID 0000.0001)  globalFiles = /* write "global" (=not per tile) files */
(PID.TID 0000.0001)                   F
(PID.TID 0000.0001)     ;
(PID.TID 0000.0001)  useSingleCpuIO = /* only master MPI process does I/O */
(PID.TID 0000.0001)                   F
(PID.TID 0000.0001)     ;
(PID.TID 0000.0001)  debugMode  =  /* Debug Mode on/off flag */
(PID.TID 0000.0001)                   F
(PID.TID 0000.0001)     ;
(PID.TID 0000.0001)    debLevA  =  /* 1rst level of debugging */
(PID.TID 0000.0001)                       1
(PID.TID 0000.0001)     ;
(PID.TID 0000.0001)    debLevB  =  /* 2nd  level of debugging */
(PID.TID 0000.0001)                       2
(PID.TID 0000.0001)     ;
(PID.TID 0000.0001)  debugLevel =  /* select debugging level */
(PID.TID 0000.0001)                       1
(PID.TID 0000.0001)     ;
(PID.TID 0000.0001) //
(PID.TID 0000.0001) // Elliptic solver(s) paramters ( PARM02 in namelist )
(PID.TID 0000.0001) //
(PID.TID 0000.0001) cg2dMaxIters =   /* Upper limit on 2d con. grad iterations  */
(PID.TID 0000.0001)                     200
(PID.TID 0000.0001)     ;
(PID.TID 0000.0001) cg2dChkResFreq =   /* 2d con. grad convergence test frequency */
(PID.TID 0000.0001)                       1
(PID.TID 0000.0001)     ;
(PID.TID 0000.0001) cg2dTargetResidual =   /* 2d con. grad target residual  */
(PID.TID 0000.0001)                 1.000000000000000E-07
(PID.TID 0000.0001)     ;
(PID.TID 0000.0001) cg2dTargetResWunit =   /* CG2d target residual [W units] */
(PID.TID 0000.0001)                 1.000000000000001E-17
(PID.TID 0000.0001)     ;
(PID.TID 0000.0001) cg2dPreCondFreq =   /* Freq. for updating cg2d preconditioner */
(PID.TID 0000.0001)                       1
(PID.TID 0000.0001)     ;
(PID.TID 0000.0001) //
(PID.TID 0000.0001) // Time stepping paramters ( PARM03 in namelist )
(PID.TID 0000.0001) //
(PID.TID 0000.0001) nIter0 =   /* Run starting timestep number  */
(PID.TID 0000.0001)                       0
(PID.TID 0000.0001)     ;
(PID.TID 0000.0001) nTimeSteps =   /* Number of timesteps */
(PID.TID 0000.0001)                       6
(PID.TID 0000.0001)     ;
(PID.TID 0000.0001) deltaTmom =   /* Momentum equation timestep ( s ) */
(PID.TID 0000.0001)                 3.000000000000000E+02
(PID.TID 0000.0001)     ;
(PID.TID 0000.0001) deltaTfreesurf =   /* FreeSurface equation timestep ( s ) */
(PID.TID 0000.0001)                 3.000000000000000E+02
(PID.TID 0000.0001)     ;
(PID.TID 0000.0001) dTtracerLev =   /* Tracer equation timestep ( s ) */
(PID.TID 0000.0001)    10 @  3.000000000000000E+02              /* K =  1: 10 */
(PID.TID 0000.0001)     ;
(PID.TID 0000.0001) deltaTClock  =   /* Model clock timestep ( s ) */
(PID.TID 0000.0001)                 3.000000000000000E+02
(PID.TID 0000.0001)     ;
(PID.TID 0000.0001) cAdjFreq =   /* Convective adjustment interval ( s ) */
(PID.TID 0000.0001)                 0.000000000000000E+00
(PID.TID 0000.0001)     ;
(PID.TID 0000.0001) momForcingOutAB = /* =1: take Momentum Forcing out of Adams-Bash. stepping */
(PID.TID 0000.0001)                       0
(PID.TID 0000.0001)     ;
(PID.TID 0000.0001) tracForcingOutAB = /* =1: take T,S,pTr Forcing out of Adams-Bash. stepping */
(PID.TID 0000.0001)                       1
(PID.TID 0000.0001)     ;
(PID.TID 0000.0001) momDissip_In_AB = /* put Dissipation Tendency in Adams-Bash. stepping */
(PID.TID 0000.0001)                   T
(PID.TID 0000.0001)     ;
(PID.TID 0000.0001) doAB_onGtGs = /* apply AB on Tendencies (rather than on T,S)*/
(PID.TID 0000.0001)                   T
(PID.TID 0000.0001)     ;
(PID.TID 0000.0001) abEps =   /* Adams-Bashforth-2 stabilizing weight */
(PID.TID 0000.0001)                 1.000000000000000E-01
(PID.TID 0000.0001)     ;
(PID.TID 0000.0001) baseTime =   /* Model base time ( s ). */
(PID.TID 0000.0001)                 0.000000000000000E+00
(PID.TID 0000.0001)     ;
(PID.TID 0000.0001) startTime =   /* Run start time ( s ). */
(PID.TID 0000.0001)                 0.000000000000000E+00
(PID.TID 0000.0001)     ;
(PID.TID 0000.0001) endTime =   /* Integration ending time ( s ). */
(PID.TID 0000.0001)                 1.800000000000000E+03
(PID.TID 0000.0001)     ;
(PID.TID 0000.0001) pChkPtFreq =   /* Permanent restart/checkpoint file interval ( s ). */
(PID.TID 0000.0001)                 2.678400000000000E+06
(PID.TID 0000.0001)     ;
(PID.TID 0000.0001) chkPtFreq =   /* Rolling restart/checkpoint file interval ( s ). */
(PID.TID 0000.0001)                 2.678400000000000E+06
(PID.TID 0000.0001)     ;
(PID.TID 0000.0001) pickup_write_mdsio =   /* Model IO flag. */
(PID.TID 0000.0001)                   T
(PID.TID 0000.0001)     ;
(PID.TID 0000.0001) pickup_read_mdsio =   /* Model IO flag. */
(PID.TID 0000.0001)                   T
(PID.TID 0000.0001)     ;
(PID.TID 0000.0001) pickup_write_immed =   /* Model IO flag. */
(PID.TID 0000.0001)                   F
(PID.TID 0000.0001)     ;
(PID.TID 0000.0001) dumpFreq =   /* Model state write out interval ( s ). */
(PID.TID 0000.0001)                 0.000000000000000E+00
(PID.TID 0000.0001)     ;
(PID.TID 0000.0001) dumpInitAndLast= /* write out Initial & Last iter. model state */
(PID.TID 0000.0001)                   T
(PID.TID 0000.0001)     ;
(PID.TID 0000.0001) snapshot_mdsio =   /* Model IO flag. */
(PID.TID 0000.0001)                   T
(PID.TID 0000.0001)     ;
(PID.TID 0000.0001) monitorFreq =   /* Monitor output interval ( s ). */
(PID.TID 0000.0001)                 1.000000000000000E+00
(PID.TID 0000.0001)     ;
(PID.TID 0000.0001) monitor_stdio =   /* Model IO flag. */
(PID.TID 0000.0001)                   T
(PID.TID 0000.0001)     ;
(PID.TID 0000.0001) externForcingPeriod =   /* forcing period (s) */
(PID.TID 0000.0001)                 0.000000000000000E+00
(PID.TID 0000.0001)     ;
(PID.TID 0000.0001) externForcingCycle =   /* period of the cyle (s). */
(PID.TID 0000.0001)                 0.000000000000000E+00
(PID.TID 0000.0001)     ;
(PID.TID 0000.0001) tauThetaClimRelax =   /* relaxation time scale (s) */
(PID.TID 0000.0001)                 0.000000000000000E+00
(PID.TID 0000.0001)     ;
(PID.TID 0000.0001) tauSaltClimRelax =   /* relaxation time scale (s) */
(PID.TID 0000.0001)                 0.000000000000000E+00
(PID.TID 0000.0001)     ;
(PID.TID 0000.0001) latBandClimRelax =   /* max. Lat. where relaxation */
(PID.TID 0000.0001)                 1.800000000000000E+02
(PID.TID 0000.0001)     ;
(PID.TID 0000.0001) //
(PID.TID 0000.0001) // Gridding paramters ( PARM04 in namelist )
(PID.TID 0000.0001) //
(PID.TID 0000.0001) usingCartesianGrid =   /* Cartesian coordinates flag ( True / False ) */
(PID.TID 0000.0001)                   F
(PID.TID 0000.0001)     ;
(PID.TID 0000.0001) usingSphericalPolarGrid =   /* Spherical coordinates flag ( True / False ) */
(PID.TID 0000.0001)                   F
(PID.TID 0000.0001)     ;
(PID.TID 0000.0001) usingCylindricalGrid =   /* Spherical coordinates flag ( True / False ) */
(PID.TID 0000.0001)                   F
(PID.TID 0000.0001)     ;
(PID.TID 0000.0001) Ro_SeaLevel =   /* r(1) ( units of r ) */
(PID.TID 0000.0001)                 1.000000000000000E+05
(PID.TID 0000.0001)     ;
(PID.TID 0000.0001) rkSign =   /* index orientation relative to vertical coordinate */
(PID.TID 0000.0001)                -1.000000000000000E+00
(PID.TID 0000.0001)     ;
(PID.TID 0000.0001) horiVertRatio =   /* Ratio on units : Horiz - Vertical */
(PID.TID 0000.0001)                 9.810000000000001E+00
(PID.TID 0000.0001)     ;
(PID.TID 0000.0001) drC =   /* C spacing ( units of r ) */
(PID.TID 0000.0001)                 5.000000000000000E+03,      /* K =  1 */
(PID.TID 0000.0001)     9 @  1.000000000000000E+04              /* K =  2: 10 */
(PID.TID 0000.0001)     ;
(PID.TID 0000.0001) drF =   /* W spacing ( units of r ) */
(PID.TID 0000.0001)    10 @  1.000000000000000E+04              /* K =  1: 10 */
(PID.TID 0000.0001)     ;
(PID.TID 0000.0001) delX =   /* U spacing ( m - cartesian, degrees - spherical ) */
(PID.TID 0000.0001)   192 @  1.234567000000000E+05              /* I =  1:192 */
(PID.TID 0000.0001)     ;
(PID.TID 0000.0001) delY =   /* V spacing ( m - cartesian, degrees - spherical ) */
(PID.TID 0000.0001)    32 @  1.234567000000000E+05              /* J =  1: 32 */
(PID.TID 0000.0001)     ;
(PID.TID 0000.0001) phiMin =    /* South edge (ignored - cartesian, degrees - spherical ) */
(PID.TID 0000.0001)                 0.000000000000000E+00
(PID.TID 0000.0001)     ;
(PID.TID 0000.0001) thetaMin =    /* West edge ( ignored - cartesian, degrees - spherical ) */
(PID.TID 0000.0001)                 0.000000000000000E+00
(PID.TID 0000.0001)     ;
(PID.TID 0000.0001) rSphere =    /* Radius ( ignored - cartesian, m - spherical ) */
(PID.TID 0000.0001)                 6.370000000000000E+06
(PID.TID 0000.0001)     ;
(PID.TID 0000.0001) xcoord =   /* P-point X coord ( m - cartesian, degrees - spherical ) */
(PID.TID 0000.0001)                -4.439521994760536E+01,      /* I =  1 */
(PID.TID 0000.0001)                -4.295641272275883E+01,      /* I =  2 */
(PID.TID 0000.0001)                -4.122055553388957E+01,      /* I =  3 */
(PID.TID 0000.0001)                -3.923446288487304E+01,      /* I =  4 */
(PID.TID 0000.0001)                -3.702585158682200E+01,      /* I =  5 */
(PID.TID 0000.0001)                -3.461179367094151E+01,      /* I =  6 */
(PID.TID 0000.0001)                -3.200434569041793E+01,      /* I =  7 */
(PID.TID 0000.0001)                -2.921355965632675E+01,      /* I =  8 */
(PID.TID 0000.0001)                -2.624932223028290E+01,      /* I =  9 */
(PID.TID 0000.0001)                -2.312261250426344E+01,      /* I = 10 */
(PID.TID 0000.0001)                -1.984640717127058E+01,      /* I = 11 */
(PID.TID 0000.0001)                -1.643630800555134E+01,      /* I = 12 */
(PID.TID 0000.0001)                -1.291089806302069E+01,      /* I = 13 */
(PID.TID 0000.0001)                -9.291807802719402E+00,      /* I = 14 */
(PID.TID 0000.0001)                -5.603475335822332E+00,      /* I = 15 */
(PID.TID 0000.0001)                -1.872608513033445E+00,      /* I = 16 */
(PID.TID 0000.0001)                 1.872608513033445E+00,      /* I = 17 */
(PID.TID 0000.0001)                 5.603475335822332E+00,      /* I = 18 */
(PID.TID 0000.0001)                 9.291807802719402E+00,      /* I = 19 */
(PID.TID 0000.0001)                 1.291089806302069E+01,      /* I = 20 */
(PID.TID 0000.0001)                 1.643630800555134E+01,      /* I = 21 */
(PID.TID 0000.0001)                 1.984640717127058E+01,      /* I = 22 */
(PID.TID 0000.0001)                 2.312261250426344E+01,      /* I = 23 */
(PID.TID 0000.0001)                 2.624932223028290E+01,      /* I = 24 */
(PID.TID 0000.0001)                 2.921355965632675E+01,      /* I = 25 */
(PID.TID 0000.0001)                 3.200434569041793E+01,      /* I = 26 */
(PID.TID 0000.0001)                 3.461179367094151E+01,      /* I = 27 */
(PID.TID 0000.0001)                 3.702585158682200E+01,      /* I = 28 */
(PID.TID 0000.0001)                 3.923446288487304E+01,      /* I = 29 */
(PID.TID 0000.0001)                 4.122055553388957E+01,      /* I = 30 */
(PID.TID 0000.0001)                 4.295641272275883E+01,      /* I = 31 */
(PID.TID 0000.0001)                 4.439521994760536E+01,      /* I = 32 */
(PID.TID 0000.0001)                 4.560478005239465E+01,      /* I = 33 */
(PID.TID 0000.0001)                 4.704358727724117E+01,      /* I = 34 */
(PID.TID 0000.0001)                 4.877944446611043E+01,      /* I = 35 */
(PID.TID 0000.0001)                 5.076553711512697E+01,      /* I = 36 */
(PID.TID 0000.0001)                 5.297414841317801E+01,      /* I = 37 */
(PID.TID 0000.0001)                 5.538820632905850E+01,      /* I = 38 */
(PID.TID 0000.0001)                 5.799565430958209E+01,      /* I = 39 */
(PID.TID 0000.0001)                 6.078644034367325E+01,      /* I = 40 */
(PID.TID 0000.0001)                 6.375067776971711E+01,      /* I = 41 */
(PID.TID 0000.0001)                 6.687738749573657E+01,      /* I = 42 */
(PID.TID 0000.0001)                 7.015359282872943E+01,      /* I = 43 */
(PID.TID 0000.0001)                 7.356369199444866E+01,      /* I = 44 */
(PID.TID 0000.0001)                 7.708910193697932E+01,      /* I = 45 */
(PID.TID 0000.0001)                 8.070819219728060E+01,      /* I = 46 */
(PID.TID 0000.0001)                 8.439652466417766E+01,      /* I = 47 */
(PID.TID 0000.0001)                 8.812739148696656E+01,      /* I = 48 */
(PID.TID 0000.0001)                 9.187260851303344E+01,      /* I = 49 */
(PID.TID 0000.0001)                 9.560347533582234E+01,      /* I = 50 */
(PID.TID 0000.0001)                 9.929180780271940E+01,      /* I = 51 */
(PID.TID 0000.0001)                 1.029108980630207E+02,      /* I = 52 */
(PID.TID 0000.0001)                 1.064363080055513E+02,      /* I = 53 */
(PID.TID 0000.0001)                 1.098464071712706E+02,      /* I = 54 */
(PID.TID 0000.0001)                 1.131226125042634E+02,      /* I = 55 */
(PID.TID 0000.0001)                 1.162493222302829E+02,      /* I = 56 */
(PID.TID 0000.0001)                 1.192135596563268E+02,      /* I = 57 */
(PID.TID 0000.0001)                 1.220043456904179E+02,      /* I = 58 */
(PID.TID 0000.0001)                 1.246117936709415E+02,      /* I = 59 */
(PID.TID 0000.0001)                 1.270258515868220E+02,      /* I = 60 */
(PID.TID 0000.0001)                 1.292344628848730E+02,      /* I = 61 */
(PID.TID 0000.0001)                 1.312205555338896E+02,      /* I = 62 */
(PID.TID 0000.0001)                 1.329564127227588E+02,      /* I = 63 */
(PID.TID 0000.0001)                 1.343952199476053E+02,      /* I = 64 */
(PID.TID 0000.0001)                 4.500000000000000E+01,      /* I = 65 */
(PID.TID 0000.0001)                 4.620805468796297E+01,      /* I = 66 */
(PID.TID 0000.0001)                 4.781369642513039E+01,      /* I = 67 */
(PID.TID 0000.0001)                 4.971767671143929E+01,      /* I = 68 */
(PID.TID 0000.0001)                 5.187738319787235E+01,      /* I = 69 */
(PID.TID 0000.0001)                 5.427004371478710E+01,      /* I = 70 */
(PID.TID 0000.0001)                 5.688128325334060E+01,      /* I = 71 */
(PID.TID 0000.0001)                 5.970018167786760E+01,      /* I = 72 */
(PID.TID 0000.0001)                 6.271654991792347E+01,      /* I = 73 */
(PID.TID 0000.0001)                 6.591914604853015E+01,      /* I = 74 */
(PID.TID 0000.0001)                 6.929439270484149E+01,      /* I = 75 */
(PID.TID 0000.0001)                 7.282545807616151E+01,      /* I = 76 */
(PID.TID 0000.0001)                 7.649168830618933E+01,      /* I = 77 */
(PID.TID 0000.0001)                 8.026842803787176E+01,      /* I = 78 */
(PID.TID 0000.0001)                 8.412726743124185E+01,      /* I = 79 */
(PID.TID 0000.0001)                 8.803672008547504E+01,      /* I = 80 */
(PID.TID 0000.0001)                 9.196327991452496E+01,      /* I = 81 */
(PID.TID 0000.0001)                 9.587273256875815E+01,      /* I = 82 */
(PID.TID 0000.0001)                 9.973157196212824E+01,      /* I = 83 */
(PID.TID 0000.0001)                 1.035083116938107E+02,      /* I = 84 */
(PID.TID 0000.0001)                 1.071745419238385E+02,      /* I = 85 */
(PID.TID 0000.0001)                 1.107056072951585E+02,      /* I = 86 */
(PID.TID 0000.0001)                 1.140808539514699E+02,      /* I = 87 */
(PID.TID 0000.0001)                 1.172834500820765E+02,      /* I = 88 */
(PID.TID 0000.0001)                 1.202998183221324E+02,      /* I = 89 */
(PID.TID 0000.0001)                 1.231187167466594E+02,      /* I = 90 */
(PID.TID 0000.0001)                 1.257299562852129E+02,      /* I = 91 */
(PID.TID 0000.0001)                 1.281226168021277E+02,      /* I = 92 */
(PID.TID 0000.0001)                 1.302823232885607E+02,      /* I = 93 */
(PID.TID 0000.0001)                 1.321863035748696E+02,      /* I = 94 */
(PID.TID 0000.0001)                 1.337919453120370E+02,      /* I = 95 */
(PID.TID 0000.0001)                 1.350000000000000E+02,      /* I = 96 */
(PID.TID 0000.0001)                 1.356047800523947E+02,      /* I = 97 */
(PID.TID 0000.0001)                 1.358367907661329E+02,      /* I = 98 */
(PID.TID 0000.0001)                 1.359720382181193E+02,      /* I = 99 */
(PID.TID 0000.0001)                 1.360654656901789E+02,      /* I =100 */
(PID.TID 0000.0001)                 1.361344533147043E+02,      /* I =101 */
(PID.TID 0000.0001)                 1.361871219420981E+02,      /* I =102 */
(PID.TID 0000.0001)                 1.362280794509603E+02,      /* I =103 */
(PID.TID 0000.0001)                 1.362602511071934E+02,      /* I =104 */
(PID.TID 0000.0001)                 1.362856280326734E+02,      /* I =105 */
(PID.TID 0000.0001)                 1.363056266270901E+02,      /* I =106 */
(PID.TID 0000.0001)                 1.363212817739446E+02,      /* I =107 */
(PID.TID 0000.0001)                 1.363333595910255E+02,      /* I =108 */
(PID.TID 0000.0001)                 1.363424272425760E+02,      /* I =109 */
(PID.TID 0000.0001)                 1.363488978790713E+02,      /* I =110 */
(PID.TID 0000.0001)                 1.363530600590580E+02,      /* I =111 */
(PID.TID 0000.0001)     2 @  1.363550967500717E+02,             /* I =112:113 */
(PID.TID 0000.0001)                 1.363530600590580E+02,      /* I =114 */
(PID.TID 0000.0001)                 1.363488978790713E+02,      /* I =115 */
(PID.TID 0000.0001)                 1.363424272425760E+02,      /* I =116 */
(PID.TID 0000.0001)                 1.363333595910255E+02,      /* I =117 */
(PID.TID 0000.0001)                 1.363212817739446E+02,      /* I =118 */
(PID.TID 0000.0001)                 1.363056266270901E+02,      /* I =119 */
(PID.TID 0000.0001)                 1.362856280326734E+02,      /* I =120 */
(PID.TID 0000.0001)                 1.362602511071934E+02,      /* I =121 */
(PID.TID 0000.0001)                 1.362280794509603E+02,      /* I =122 */
(PID.TID 0000.0001)                 1.361871219420981E+02,      /* I =123 */
(PID.TID 0000.0001)                 1.361344533147043E+02,      /* I =124 */
(PID.TID 0000.0001)                 1.360654656901789E+02,      /* I =125 */
(PID.TID 0000.0001)                 1.359720382181193E+02,      /* I =126 */
(PID.TID 0000.0001)                 1.358367907661329E+02,      /* I =127 */
(PID.TID 0000.0001)                 1.356047800523947E+02,      /* I =128 */
(PID.TID 0000.0001)                -1.343952199476053E+02,      /* I =129 */
(PID.TID 0000.0001)                -1.341632092338671E+02,      /* I =130 */
(PID.TID 0000.0001)                -1.340279617818807E+02,      /* I =131 */
(PID.TID 0000.0001)                -1.339345343098211E+02,      /* I =132 */
(PID.TID 0000.0001)                -1.338655466852958E+02,      /* I =133 */
(PID.TID 0000.0001)                -1.338128780579019E+02,      /* I =134 */
(PID.TID 0000.0001)                -1.337719205490397E+02,      /* I =135 */
(PID.TID 0000.0001)                -1.337397488928066E+02,      /* I =136 */
(PID.TID 0000.0001)                -1.337143719673266E+02,      /* I =137 */
(PID.TID 0000.0001)                -1.336943733729099E+02,      /* I =138 */
(PID.TID 0000.0001)                -1.336787182260554E+02,      /* I =139 */
(PID.TID 0000.0001)                -1.336666404089745E+02,      /* I =140 */
(PID.TID 0000.0001)                -1.336575727574240E+02,      /* I =141 */
(PID.TID 0000.0001)                -1.336511021209287E+02,      /* I =142 */
(PID.TID 0000.0001)                -1.336469399409420E+02,      /* I =143 */
(PID.TID 0000.0001)     2 @ -1.336449032499283E+02,             /* I =144:145 */
(PID.TID 0000.0001)                -1.336469399409420E+02,      /* I =146 */
(PID.TID 0000.0001)                -1.336511021209287E+02,      /* I =147 */
(PID.TID 0000.0001)                -1.336575727574240E+02,      /* I =148 */
(PID.TID 0000.0001)                -1.336666404089745E+02,      /* I =149 */
(PID.TID 0000.0001)                -1.336787182260554E+02,      /* I =150 */
(PID.TID 0000.0001)                -1.336943733729099E+02,      /* I =151 */
(PID.TID 0000.0001)                -1.337143719673266E+02,      /* I =152 */
(PID.TID 0000.0001)                -1.337397488928066E+02,      /* I =153 */
(PID.TID 0000.0001)                -1.337719205490397E+02,      /* I =154 */
(PID.TID 0000.0001)                -1.338128780579019E+02,      /* I =155 */
(PID.TID 0000.0001)                -1.338655466852958E+02,      /* I =156 */
(PID.TID 0000.0001)                -1.339345343098211E+02,      /* I =157 */
(PID.TID 0000.0001)                -1.340279617818807E+02,      /* I =158 */
(PID.TID 0000.0001)                -1.341632092338671E+02,      /* I =159 */
(PID.TID 0000.0001)                -1.343952199476053E+02,      /* I =160 */
(PID.TID 0000.0001)                -1.350000000000000E+02,      /* I =161 */
(PID.TID 0000.0001)                -1.362080546879630E+02,      /* I =162 */
(PID.TID 0000.0001)                -1.378136964251304E+02,      /* I =163 */
(PID.TID 0000.0001)                -1.397176767114393E+02,      /* I =164 */
(PID.TID 0000.0001)                -1.418773831978724E+02,      /* I =165 */
(PID.TID 0000.0001)                -1.442700437147871E+02,      /* I =166 */
(PID.TID 0000.0001)                -1.468812832533406E+02,      /* I =167 */
(PID.TID 0000.0001)                -1.497001816778676E+02,      /* I =168 */
(PID.TID 0000.0001)                -1.527165499179235E+02,      /* I =169 */
(PID.TID 0000.0001)                -1.559191460485302E+02,      /* I =170 */
(PID.TID 0000.0001)                -1.592943927048415E+02,      /* I =171 */
(PID.TID 0000.0001)                -1.628254580761615E+02,      /* I =172 */
(PID.TID 0000.0001)                -1.664916883061893E+02,      /* I =173 */
(PID.TID 0000.0001)                -1.702684280378718E+02,      /* I =174 */
(PID.TID 0000.0001)                -1.741272674312418E+02,      /* I =175 */
(PID.TID 0000.0001)                -1.780367200854751E+02,      /* I =176 */
(PID.TID 0000.0001)                 1.780367200854751E+02,      /* I =177 */
(PID.TID 0000.0001)                 1.741272674312418E+02,      /* I =178 */
(PID.TID 0000.0001)                 1.702684280378718E+02,      /* I =179 */
(PID.TID 0000.0001)                 1.664916883061893E+02,      /* I =180 */
(PID.TID 0000.0001)                 1.628254580761615E+02,      /* I =181 */
(PID.TID 0000.0001)                 1.592943927048415E+02,      /* I =182 */
(PID.TID 0000.0001)                 1.559191460485302E+02,      /* I =183 */
(PID.TID 0000.0001)                 1.527165499179235E+02,      /* I =184 */
(PID.TID 0000.0001)                 1.497001816778676E+02,      /* I =185 */
(PID.TID 0000.0001)                 1.468812832533406E+02,      /* I =186 */
(PID.TID 0000.0001)                 1.442700437147871E+02,      /* I =187 */
(PID.TID 0000.0001)                 1.418773831978724E+02,      /* I =188 */
(PID.TID 0000.0001)                 1.397176767114393E+02,      /* I =189 */
(PID.TID 0000.0001)                 1.378136964251304E+02,      /* I =190 */
(PID.TID 0000.0001)                 1.362080546879630E+02,      /* I =191 */
(PID.TID 0000.0001)                 1.350000000000000E+02       /* I =192 */
(PID.TID 0000.0001)     ;
(PID.TID 0000.0001) ycoord =   /* P-point Y coord ( m - cartesian, degrees - spherical ) */
(PID.TID 0000.0001)                -3.497677942598243E+01,      /* J =  1 */
(PID.TID 0000.0001)                -3.374005967394886E+01,      /* J =  2 */
(PID.TID 0000.0001)                -3.220655175667454E+01,      /* J =  3 */
(PID.TID 0000.0001)                -3.045756348838641E+01,      /* J =  4 */
(PID.TID 0000.0001)                -2.853728129852918E+01,      /* J =  5 */
(PID.TID 0000.0001)                -2.647426640173173E+01,      /* J =  6 */
(PID.TID 0000.0001)                -2.428936657094636E+01,      /* J =  7 */
(PID.TID 0000.0001)                -2.199915808312262E+01,      /* J =  8 */
(PID.TID 0000.0001)                -1.961768597440146E+01,      /* J =  9 */
(PID.TID 0000.0001)                -1.715743888281371E+01,      /* J = 10 */
(PID.TID 0000.0001)                -1.462993396899330E+01,      /* J = 11 */
(PID.TID 0000.0001)                -1.204608340464756E+01,      /* J = 12 */
(PID.TID 0000.0001)                -9.416429130284818E+00,      /* J = 13 */
(PID.TID 0000.0001)                -6.751293662992216E+00,      /* J = 14 */
(PID.TID 0000.0001)                -4.060875511835959E+00,      /* J = 15 */
(PID.TID 0000.0001)                -1.355307764409121E+00,      /* J = 16 */
(PID.TID 0000.0001)                 1.355307764409121E+00,      /* J = 17 */
(PID.TID 0000.0001)                 4.060875511835959E+00,      /* J = 18 */
(PID.TID 0000.0001)                 6.751293662992216E+00,      /* J = 19 */
(PID.TID 0000.0001)                 9.416429130284818E+00,      /* J = 20 */
(PID.TID 0000.0001)                 1.204608340464756E+01,      /* J = 21 */
(PID.TID 0000.0001)                 1.462993396899330E+01,      /* J = 22 */
(PID.TID 0000.0001)                 1.715743888281371E+01,      /* J = 23 */
(PID.TID 0000.0001)                 1.961768597440146E+01,      /* J = 24 */
(PID.TID 0000.0001)                 2.199915808312262E+01,      /* J = 25 */
(PID.TID 0000.0001)                 2.428936657094636E+01,      /* J = 26 */
(PID.TID 0000.0001)                 2.647426640173173E+01,      /* J = 27 */
(PID.TID 0000.0001)                 2.853728129852918E+01,      /* J = 28 */
(PID.TID 0000.0001)                 3.045756348838641E+01,      /* J = 29 */
(PID.TID 0000.0001)                 3.220655175667454E+01,      /* J = 30 */
(PID.TID 0000.0001)                 3.374005967394886E+01,      /* J = 31 */
(PID.TID 0000.0001)                 3.497677942598243E+01       /* J = 32 */
(PID.TID 0000.0001)     ;
(PID.TID 0000.0001) rcoord =   /* P-point R coordinate (  units of r ) */
(PID.TID 0000.0001)                 9.500000000000000E+04,      /* K =  1 */
(PID.TID 0000.0001)                 8.500000000000000E+04,      /* K =  2 */
(PID.TID 0000.0001)                 7.500000000000000E+04,      /* K =  3 */
(PID.TID 0000.0001)                 6.500000000000000E+04,      /* K =  4 */
(PID.TID 0000.0001)                 5.500000000000000E+04,      /* K =  5 */
(PID.TID 0000.0001)                 4.500000000000000E+04,      /* K =  6 */
(PID.TID 0000.0001)                 3.500000000000000E+04,      /* K =  7 */
(PID.TID 0000.0001)                 2.500000000000000E+04,      /* K =  8 */
(PID.TID 0000.0001)                 1.500000000000000E+04,      /* K =  9 */
(PID.TID 0000.0001)                 5.000000000000000E+03       /* K = 10 */
(PID.TID 0000.0001)     ;
(PID.TID 0000.0001) rF =   /* W-Interf. R coordinate (  units of r ) */
(PID.TID 0000.0001)                 1.000000000000000E+05,      /* K =  1 */
(PID.TID 0000.0001)                 9.000000000000000E+04,      /* K =  2 */
(PID.TID 0000.0001)                 8.000000000000000E+04,      /* K =  3 */
(PID.TID 0000.0001)                 7.000000000000000E+04,      /* K =  4 */
(PID.TID 0000.0001)                 6.000000000000000E+04,      /* K =  5 */
(PID.TID 0000.0001)                 5.000000000000000E+04,      /* K =  6 */
(PID.TID 0000.0001)                 4.000000000000000E+04,      /* K =  7 */
(PID.TID 0000.0001)                 3.000000000000000E+04,      /* K =  8 */
(PID.TID 0000.0001)                 2.000000000000000E+04,      /* K =  9 */
(PID.TID 0000.0001)                 1.000000000000000E+04,      /* K = 10 */
(PID.TID 0000.0001)                 0.000000000000000E+00       /* K = 11 */
(PID.TID 0000.0001)     ;
(PID.TID 0000.0001) dBdrRef = /* Vertical gradient of reference boyancy [(m/s/r)^2)] */
(PID.TID 0000.0001)                 0.000000000000000E+00,      /* K =  1 */
(PID.TID 0000.0001)                 1.206946699536514E-06,      /* K =  2 */
(PID.TID 0000.0001)                 1.818141282694915E-06,      /* K =  3 */
(PID.TID 0000.0001)                 2.111727683329609E-06,      /* K =  4 */
(PID.TID 0000.0001)                 2.482547309724415E-06,      /* K =  5 */
(PID.TID 0000.0001)                 3.018262218721235E-06,      /* K =  6 */
(PID.TID 0000.0001)                 3.876146822329223E-06,      /* K =  7 */
(PID.TID 0000.0001)                 6.340498011036386E-06,      /* K =  8 */
(PID.TID 0000.0001)                 2.165339113354914E-05,      /* K =  9 */
(PID.TID 0000.0001)                 1.278849458385331E-04       /* K = 10 */
(PID.TID 0000.0001)     ;
(PID.TID 0000.0001) dxF =  /* dxF(:,1,:,1) ( units: m ) */
(PID.TID 0000.0001)                 1.202082051331828E+05,      /* I =  1 */
(PID.TID 0000.0001)                 1.563594089971120E+05,      /* I =  2 */
(PID.TID 0000.0001)                 1.835530058121492E+05,      /* I =  3 */
(PID.TID 0000.0001)                 2.045883481718707E+05,      /* I =  4 */
(PID.TID 0000.0001)                 2.218350349844185E+05,      /* I =  5 */
(PID.TID 0000.0001)                 2.364352994647058E+05,      /* I =  6 */
(PID.TID 0000.0001)                 2.490022710862746E+05,      /* I =  7 */
(PID.TID 0000.0001)                 2.598919724358304E+05,      /* I =  8 */
(PID.TID 0000.0001)                 2.693210245495156E+05,      /* I =  9 */
(PID.TID 0000.0001)                 2.774243179696503E+05,      /* I = 10 */
(PID.TID 0000.0001)                 2.842862532064524E+05,      /* I = 11 */
(PID.TID 0000.0001)                 2.899590699694043E+05,      /* I = 12 */
(PID.TID 0000.0001)                 2.944742915095688E+05,      /* I = 13 */
(PID.TID 0000.0001)                 2.978501920522794E+05,      /* I = 14 */
(PID.TID 0000.0001)                 3.000967749619962E+05,      /* I = 15 */
(PID.TID 0000.0001)     2 @  3.012190981969055E+05,             /* I = 16: 17 */
(PID.TID 0000.0001)                 3.000967749619962E+05,      /* I = 18 */
(PID.TID 0000.0001)                 2.978501920522794E+05,      /* I = 19 */
(PID.TID 0000.0001)                 2.944742915095688E+05,      /* I = 20 */
(PID.TID 0000.0001)                 2.899590699694043E+05,      /* I = 21 */
(PID.TID 0000.0001)                 2.842862532064524E+05,      /* I = 22 */
(PID.TID 0000.0001)                 2.774243179696503E+05,      /* I = 23 */
(PID.TID 0000.0001)                 2.693210245495156E+05,      /* I = 24 */
(PID.TID 0000.0001)                 2.598919724358304E+05,      /* I = 25 */
(PID.TID 0000.0001)                 2.490022710862746E+05,      /* I = 26 */
(PID.TID 0000.0001)                 2.364352994647058E+05,      /* I = 27 */
(PID.TID 0000.0001)                 2.218350349844185E+05,      /* I = 28 */
(PID.TID 0000.0001)                 2.045883481718707E+05,      /* I = 29 */
(PID.TID 0000.0001)                 1.835530058121492E+05,      /* I = 30 */
(PID.TID 0000.0001)                 1.563594089971120E+05,      /* I = 31 */
(PID.TID 0000.0001)     2 @  1.202082051331828E+05,             /* I = 32: 33 */
(PID.TID 0000.0001)                 1.563594089971120E+05,      /* I = 34 */
(PID.TID 0000.0001)                 1.835530058121492E+05,      /* I = 35 */
(PID.TID 0000.0001)                 2.045883481718707E+05,      /* I = 36 */
(PID.TID 0000.0001)                 2.218350349844185E+05,      /* I = 37 */
(PID.TID 0000.0001)                 2.364352994647058E+05,      /* I = 38 */
(PID.TID 0000.0001)                 2.490022710862746E+05,      /* I = 39 */
(PID.TID 0000.0001)                 2.598919724358304E+05,      /* I = 40 */
(PID.TID 0000.0001)                 2.693210245495156E+05,      /* I = 41 */
(PID.TID 0000.0001)                 2.774243179696503E+05,      /* I = 42 */
(PID.TID 0000.0001)                 2.842862532064524E+05,      /* I = 43 */
(PID.TID 0000.0001)                 2.899590699694043E+05,      /* I = 44 */
(PID.TID 0000.0001)                 2.944742915095688E+05,      /* I = 45 */
(PID.TID 0000.0001)                 2.978501920522794E+05,      /* I = 46 */
(PID.TID 0000.0001)                 3.000967749619962E+05,      /* I = 47 */
(PID.TID 0000.0001)     2 @  3.012190981969055E+05,             /* I = 48: 49 */
(PID.TID 0000.0001)                 3.000967749619962E+05,      /* I = 50 */
(PID.TID 0000.0001)                 2.978501920522794E+05,      /* I = 51 */
(PID.TID 0000.0001)                 2.944742915095688E+05,      /* I = 52 */
(PID.TID 0000.0001)                 2.899590699694043E+05,      /* I = 53 */
(PID.TID 0000.0001)                 2.842862532064524E+05,      /* I = 54 */
(PID.TID 0000.0001)                 2.774243179696503E+05,      /* I = 55 */
(PID.TID 0000.0001)                 2.693210245495156E+05,      /* I = 56 */
(PID.TID 0000.0001)                 2.598919724358304E+05,      /* I = 57 */
(PID.TID 0000.0001)                 2.490022710862746E+05,      /* I = 58 */
(PID.TID 0000.0001)                 2.364352994647058E+05,      /* I = 59 */
(PID.TID 0000.0001)                 2.218350349844185E+05,      /* I = 60 */
(PID.TID 0000.0001)                 2.045883481718707E+05,      /* I = 61 */
(PID.TID 0000.0001)                 1.835530058121492E+05,      /* I = 62 */
(PID.TID 0000.0001)                 1.563594089971120E+05,      /* I = 63 */
(PID.TID 0000.0001)     2 @  1.202082051331828E+05,             /* I = 64: 65 */
(PID.TID 0000.0001)                 1.563594089971120E+05,      /* I = 66 */
(PID.TID 0000.0001)                 1.835530058121492E+05,      /* I = 67 */
(PID.TID 0000.0001)                 2.045883481718707E+05,      /* I = 68 */
(PID.TID 0000.0001)                 2.218350349844185E+05,      /* I = 69 */
(PID.TID 0000.0001)                 2.364352994647058E+05,      /* I = 70 */
(PID.TID 0000.0001)                 2.490022710862746E+05,      /* I = 71 */
(PID.TID 0000.0001)                 2.598919724358304E+05,      /* I = 72 */
(PID.TID 0000.0001)                 2.693210245495156E+05,      /* I = 73 */
(PID.TID 0000.0001)                 2.774243179696503E+05,      /* I = 74 */
(PID.TID 0000.0001)                 2.842862532064524E+05,      /* I = 75 */
(PID.TID 0000.0001)                 2.899590699694043E+05,      /* I = 76 */
(PID.TID 0000.0001)                 2.944742915095688E+05,      /* I = 77 */
(PID.TID 0000.0001)                 2.978501920522794E+05,      /* I = 78 */
(PID.TID 0000.0001)                 3.000967749619962E+05,      /* I = 79 */
(PID.TID 0000.0001)     2 @  3.012190981969055E+05,             /* I = 80: 81 */
(PID.TID 0000.0001)                 3.000967749619962E+05,      /* I = 82 */
(PID.TID 0000.0001)                 2.978501920522794E+05,      /* I = 83 */
(PID.TID 0000.0001)                 2.944742915095688E+05,      /* I = 84 */
(PID.TID 0000.0001)                 2.899590699694043E+05,      /* I = 85 */
(PID.TID 0000.0001)                 2.842862532064524E+05,      /* I = 86 */
(PID.TID 0000.0001)                 2.774243179696503E+05,      /* I = 87 */
(PID.TID 0000.0001)                 2.693210245495156E+05,      /* I = 88 */
(PID.TID 0000.0001)                 2.598919724358304E+05,      /* I = 89 */
(PID.TID 0000.0001)                 2.490022710862746E+05,      /* I = 90 */
(PID.TID 0000.0001)                 2.364352994647058E+05,      /* I = 91 */
(PID.TID 0000.0001)                 2.218350349844185E+05,      /* I = 92 */
(PID.TID 0000.0001)                 2.045883481718707E+05,      /* I = 93 */
(PID.TID 0000.0001)                 1.835530058121492E+05,      /* I = 94 */
(PID.TID 0000.0001)                 1.563594089971120E+05,      /* I = 95 */
(PID.TID 0000.0001)     2 @  1.202082051331828E+05,             /* I = 96: 97 */
(PID.TID 0000.0001)                 1.563594089971120E+05,      /* I = 98 */
(PID.TID 0000.0001)                 1.835530058121492E+05,      /* I = 99 */
(PID.TID 0000.0001)                 2.045883481718707E+05,      /* I =100 */
(PID.TID 0000.0001)                 2.218350349844185E+05,      /* I =101 */
(PID.TID 0000.0001)                 2.364352994647058E+05,      /* I =102 */
(PID.TID 0000.0001)                 2.490022710862746E+05,      /* I =103 */
(PID.TID 0000.0001)                 2.598919724358304E+05,      /* I =104 */
(PID.TID 0000.0001)                 2.693210245495156E+05,      /* I =105 */
(PID.TID 0000.0001)                 2.774243179696503E+05,      /* I =106 */
(PID.TID 0000.0001)                 2.842862532064524E+05,      /* I =107 */
(PID.TID 0000.0001)                 2.899590699694043E+05,      /* I =108 */
(PID.TID 0000.0001)                 2.944742915095688E+05,      /* I =109 */
(PID.TID 0000.0001)                 2.978501920522794E+05,      /* I =110 */
(PID.TID 0000.0001)                 3.000967749619962E+05,      /* I =111 */
(PID.TID 0000.0001)     2 @  3.012190981969055E+05,             /* I =112:113 */
(PID.TID 0000.0001)                 3.000967749619962E+05,      /* I =114 */
(PID.TID 0000.0001)                 2.978501920522794E+05,      /* I =115 */
(PID.TID 0000.0001)                 2.944742915095688E+05,      /* I =116 */
(PID.TID 0000.0001)                 2.899590699694043E+05,      /* I =117 */
(PID.TID 0000.0001)                 2.842862532064524E+05,      /* I =118 */
(PID.TID 0000.0001)                 2.774243179696503E+05,      /* I =119 */
(PID.TID 0000.0001)                 2.693210245495156E+05,      /* I =120 */
(PID.TID 0000.0001)                 2.598919724358304E+05,      /* I =121 */
(PID.TID 0000.0001)                 2.490022710862746E+05,      /* I =122 */
(PID.TID 0000.0001)                 2.364352994647058E+05,      /* I =123 */
(PID.TID 0000.0001)                 2.218350349844185E+05,      /* I =124 */
(PID.TID 0000.0001)                 2.045883481718707E+05,      /* I =125 */
(PID.TID 0000.0001)                 1.835530058121492E+05,      /* I =126 */
(PID.TID 0000.0001)                 1.563594089971120E+05,      /* I =127 */
(PID.TID 0000.0001)     2 @  1.202082051331828E+05,             /* I =128:129 */
(PID.TID 0000.0001)                 1.563594089971120E+05,      /* I =130 */
(PID.TID 0000.0001)                 1.835530058121492E+05,      /* I =131 */
(PID.TID 0000.0001)                 2.045883481718707E+05,      /* I =132 */
(PID.TID 0000.0001)                 2.218350349844185E+05,      /* I =133 */
(PID.TID 0000.0001)                 2.364352994647058E+05,      /* I =134 */
(PID.TID 0000.0001)                 2.490022710862746E+05,      /* I =135 */
(PID.TID 0000.0001)                 2.598919724358304E+05,      /* I =136 */
(PID.TID 0000.0001)                 2.693210245495156E+05,      /* I =137 */
(PID.TID 0000.0001)                 2.774243179696503E+05,      /* I =138 */
(PID.TID 0000.0001)                 2.842862532064524E+05,      /* I =139 */
(PID.TID 0000.0001)                 2.899590699694043E+05,      /* I =140 */
(PID.TID 0000.0001)                 2.944742915095688E+05,      /* I =141 */
(PID.TID 0000.0001)                 2.978501920522794E+05,      /* I =142 */
(PID.TID 0000.0001)                 3.000967749619962E+05,      /* I =143 */
(PID.TID 0000.0001)     2 @  3.012190981969055E+05,             /* I =144:145 */
(PID.TID 0000.0001)                 3.000967749619962E+05,      /* I =146 */
(PID.TID 0000.0001)                 2.978501920522794E+05,      /* I =147 */
(PID.TID 0000.0001)                 2.944742915095688E+05,      /* I =148 */
(PID.TID 0000.0001)                 2.899590699694043E+05,      /* I =149 */
(PID.TID 0000.0001)                 2.842862532064524E+05,      /* I =150 */
(PID.TID 0000.0001)                 2.774243179696503E+05,      /* I =151 */
(PID.TID 0000.0001)                 2.693210245495156E+05,      /* I =152 */
(PID.TID 0000.0001)                 2.598919724358304E+05,      /* I =153 */
(PID.TID 0000.0001)                 2.490022710862746E+05,      /* I =154 */
(PID.TID 0000.0001)                 2.364352994647058E+05,      /* I =155 */
(PID.TID 0000.0001)                 2.218350349844185E+05,      /* I =156 */
(PID.TID 0000.0001)                 2.045883481718707E+05,      /* I =157 */
(PID.TID 0000.0001)                 1.835530058121492E+05,      /* I =158 */
(PID.TID 0000.0001)                 1.563594089971120E+05,      /* I =159 */
(PID.TID 0000.0001)     2 @  1.202082051331828E+05,             /* I =160:161 */
(PID.TID 0000.0001)                 1.563594089971120E+05,      /* I =162 */
(PID.TID 0000.0001)                 1.835530058121492E+05,      /* I =163 */
(PID.TID 0000.0001)                 2.045883481718707E+05,      /* I =164 */
(PID.TID 0000.0001)                 2.218350349844185E+05,      /* I =165 */
(PID.TID 0000.0001)                 2.364352994647058E+05,      /* I =166 */
(PID.TID 0000.0001)                 2.490022710862746E+05,      /* I =167 */
(PID.TID 0000.0001)                 2.598919724358304E+05,      /* I =168 */
(PID.TID 0000.0001)                 2.693210245495156E+05,      /* I =169 */
(PID.TID 0000.0001)                 2.774243179696503E+05,      /* I =170 */
(PID.TID 0000.0001)                 2.842862532064524E+05,      /* I =171 */
(PID.TID 0000.0001)                 2.899590699694043E+05,      /* I =172 */
(PID.TID 0000.0001)                 2.944742915095688E+05,      /* I =173 */
(PID.TID 0000.0001)                 2.978501920522794E+05,      /* I =174 */
(PID.TID 0000.0001)                 3.000967749619962E+05,      /* I =175 */
(PID.TID 0000.0001)     2 @  3.012190981969055E+05,             /* I =176:177 */
(PID.TID 0000.0001)                 3.000967749619962E+05,      /* I =178 */
(PID.TID 0000.0001)                 2.978501920522794E+05,      /* I =179 */
(PID.TID 0000.0001)                 2.944742915095688E+05,      /* I =180 */
(PID.TID 0000.0001)                 2.899590699694043E+05,      /* I =181 */
(PID.TID 0000.0001)                 2.842862532064524E+05,      /* I =182 */
(PID.TID 0000.0001)                 2.774243179696503E+05,      /* I =183 */
(PID.TID 0000.0001)                 2.693210245495156E+05,      /* I =184 */
(PID.TID 0000.0001)                 2.598919724358304E+05,      /* I =185 */
(PID.TID 0000.0001)                 2.490022710862746E+05,      /* I =186 */
(PID.TID 0000.0001)                 2.364352994647058E+05,      /* I =187 */
(PID.TID 0000.0001)                 2.218350349844185E+05,      /* I =188 */
(PID.TID 0000.0001)                 2.045883481718707E+05,      /* I =189 */
(PID.TID 0000.0001)                 1.835530058121492E+05,      /* I =190 */
(PID.TID 0000.0001)                 1.563594089971120E+05,      /* I =191 */
(PID.TID 0000.0001)                 1.202082051331828E+05       /* I =192 */
(PID.TID 0000.0001)     ;
(PID.TID 0000.0001) dxF =  /* dxF(1,:,1,:) ( units: m ) */
(PID.TID 0000.0001)                 1.202082051331828E+05,      /* J =  1 */
(PID.TID 0000.0001)                 1.572908084538706E+05,      /* J =  2 */
(PID.TID 0000.0001)                 1.840412227747703E+05,      /* J =  3 */
(PID.TID 0000.0001)                 2.048868197919577E+05,      /* J =  4 */
(PID.TID 0000.0001)                 2.220405216043041E+05,      /* J =  5 */
(PID.TID 0000.0001)                 2.365892017348392E+05,      /* J =  6 */
(PID.TID 0000.0001)                 2.491250781852558E+05,      /* J =  7 */
(PID.TID 0000.0001)                 2.599949918261881E+05,      /* J =  8 */
(PID.TID 0000.0001)                 2.694110134598581E+05,      /* J =  9 */
(PID.TID 0000.0001)                 2.775055554645015E+05,      /* J = 10 */
(PID.TID 0000.0001)                 2.843615645344775E+05,      /* J = 11 */
(PID.TID 0000.0001)                 2.900303768613599E+05,      /* J = 12 */
(PID.TID 0000.0001)                 2.945429307892709E+05,      /* J = 13 */
(PID.TID 0000.0001)                 2.979171143158405E+05,      /* J = 14 */
(PID.TID 0000.0001)                 3.001626787528886E+05,      /* J = 15 */
(PID.TID 0000.0001)     2 @  3.012844832048790E+05,             /* J = 16: 17 */
(PID.TID 0000.0001)                 3.001626787528886E+05,      /* J = 18 */
(PID.TID 0000.0001)                 2.979171143158405E+05,      /* J = 19 */
(PID.TID 0000.0001)                 2.945429307892709E+05,      /* J = 20 */
(PID.TID 0000.0001)                 2.900303768613599E+05,      /* J = 21 */
(PID.TID 0000.0001)                 2.843615645344775E+05,      /* J = 22 */
(PID.TID 0000.0001)                 2.775055554645015E+05,      /* J = 23 */
(PID.TID 0000.0001)                 2.694110134598581E+05,      /* J = 24 */
(PID.TID 0000.0001)                 2.599949918261881E+05,      /* J = 25 */
(PID.TID 0000.0001)                 2.491250781852558E+05,      /* J = 26 */
(PID.TID 0000.0001)                 2.365892017348392E+05,      /* J = 27 */
(PID.TID 0000.0001)                 2.220405216043041E+05,      /* J = 28 */
(PID.TID 0000.0001)                 2.048868197919577E+05,      /* J = 29 */
(PID.TID 0000.0001)                 1.840412227747703E+05,      /* J = 30 */
(PID.TID 0000.0001)                 1.572908084538706E+05,      /* J = 31 */
(PID.TID 0000.0001)                 1.202082051331828E+05       /* J = 32 */
(PID.TID 0000.0001)     ;
(PID.TID 0000.0001) dyF =  /* dyF(:,1,:,1) ( units: m ) */
(PID.TID 0000.0001)                 1.202082051331828E+05,      /* I =  1 */
(PID.TID 0000.0001)                 1.572908084538706E+05,      /* I =  2 */
(PID.TID 0000.0001)                 1.840412227747703E+05,      /* I =  3 */
(PID.TID 0000.0001)                 2.048868197919577E+05,      /* I =  4 */
(PID.TID 0000.0001)                 2.220405216043041E+05,      /* I =  5 */
(PID.TID 0000.0001)                 2.365892017348392E+05,      /* I =  6 */
(PID.TID 0000.0001)                 2.491250781852558E+05,      /* I =  7 */
(PID.TID 0000.0001)                 2.599949918261881E+05,      /* I =  8 */
(PID.TID 0000.0001)                 2.694110134598581E+05,      /* I =  9 */
(PID.TID 0000.0001)                 2.775055554645015E+05,      /* I = 10 */
(PID.TID 0000.0001)                 2.843615645344775E+05,      /* I = 11 */
(PID.TID 0000.0001)                 2.900303768613599E+05,      /* I = 12 */
(PID.TID 0000.0001)                 2.945429307892709E+05,      /* I = 13 */
(PID.TID 0000.0001)                 2.979171143158405E+05,      /* I = 14 */
(PID.TID 0000.0001)                 3.001626787528886E+05,      /* I = 15 */
(PID.TID 0000.0001)     2 @  3.012844832048790E+05,             /* I = 16: 17 */
(PID.TID 0000.0001)                 3.001626787528886E+05,      /* I = 18 */
(PID.TID 0000.0001)                 2.979171143158405E+05,      /* I = 19 */
(PID.TID 0000.0001)                 2.945429307892709E+05,      /* I = 20 */
(PID.TID 0000.0001)                 2.900303768613599E+05,      /* I = 21 */
(PID.TID 0000.0001)                 2.843615645344775E+05,      /* I = 22 */
(PID.TID 0000.0001)                 2.775055554645015E+05,      /* I = 23 */
(PID.TID 0000.0001)                 2.694110134598581E+05,      /* I = 24 */
(PID.TID 0000.0001)                 2.599949918261881E+05,      /* I = 25 */
(PID.TID 0000.0001)                 2.491250781852558E+05,      /* I = 26 */
(PID.TID 0000.0001)                 2.365892017348392E+05,      /* I = 27 */
(PID.TID 0000.0001)                 2.220405216043041E+05,      /* I = 28 */
(PID.TID 0000.0001)                 2.048868197919577E+05,      /* I = 29 */
(PID.TID 0000.0001)                 1.840412227747703E+05,      /* I = 30 */
(PID.TID 0000.0001)                 1.572908084538706E+05,      /* I = 31 */
(PID.TID 0000.0001)     2 @  1.202082051331828E+05,             /* I = 32: 33 */
(PID.TID 0000.0001)                 1.572908084538706E+05,      /* I = 34 */
(PID.TID 0000.0001)                 1.840412227747703E+05,      /* I = 35 */
(PID.TID 0000.0001)                 2.048868197919577E+05,      /* I = 36 */
(PID.TID 0000.0001)                 2.220405216043041E+05,      /* I = 37 */
(PID.TID 0000.0001)                 2.365892017348392E+05,      /* I = 38 */
(PID.TID 0000.0001)                 2.491250781852558E+05,      /* I = 39 */
(PID.TID 0000.0001)                 2.599949918261881E+05,      /* I = 40 */
(PID.TID 0000.0001)                 2.694110134598581E+05,      /* I = 41 */
(PID.TID 0000.0001)                 2.775055554645015E+05,      /* I = 42 */
(PID.TID 0000.0001)                 2.843615645344775E+05,      /* I = 43 */
(PID.TID 0000.0001)                 2.900303768613599E+05,      /* I = 44 */
(PID.TID 0000.0001)                 2.945429307892709E+05,      /* I = 45 */
(PID.TID 0000.0001)                 2.979171143158405E+05,      /* I = 46 */
(PID.TID 0000.0001)                 3.001626787528886E+05,      /* I = 47 */
(PID.TID 0000.0001)     2 @  3.012844832048790E+05,             /* I = 48: 49 */
(PID.TID 0000.0001)                 3.001626787528886E+05,      /* I = 50 */
(PID.TID 0000.0001)                 2.979171143158405E+05,      /* I = 51 */
(PID.TID 0000.0001)                 2.945429307892709E+05,      /* I = 52 */
(PID.TID 0000.0001)                 2.900303768613599E+05,      /* I = 53 */
(PID.TID 0000.0001)                 2.843615645344775E+05,      /* I = 54 */
(PID.TID 0000.0001)                 2.775055554645015E+05,      /* I = 55 */
(PID.TID 0000.0001)                 2.694110134598581E+05,      /* I = 56 */
(PID.TID 0000.0001)                 2.599949918261881E+05,      /* I = 57 */
(PID.TID 0000.0001)                 2.491250781852558E+05,      /* I = 58 */
(PID.TID 0000.0001)                 2.365892017348392E+05,      /* I = 59 */
(PID.TID 0000.0001)                 2.220405216043041E+05,      /* I = 60 */
(PID.TID 0000.0001)                 2.048868197919577E+05,      /* I = 61 */
(PID.TID 0000.0001)                 1.840412227747703E+05,      /* I = 62 */
(PID.TID 0000.0001)                 1.572908084538706E+05,      /* I = 63 */
(PID.TID 0000.0001)     2 @  1.202082051331828E+05,             /* I = 64: 65 */
(PID.TID 0000.0001)                 1.572908084538706E+05,      /* I = 66 */
(PID.TID 0000.0001)                 1.840412227747703E+05,      /* I = 67 */
(PID.TID 0000.0001)                 2.048868197919577E+05,      /* I = 68 */
(PID.TID 0000.0001)                 2.220405216043041E+05,      /* I = 69 */
(PID.TID 0000.0001)                 2.365892017348392E+05,      /* I = 70 */
(PID.TID 0000.0001)                 2.491250781852558E+05,      /* I = 71 */
(PID.TID 0000.0001)                 2.599949918261881E+05,      /* I = 72 */
(PID.TID 0000.0001)                 2.694110134598581E+05,      /* I = 73 */
(PID.TID 0000.0001)                 2.775055554645015E+05,      /* I = 74 */
(PID.TID 0000.0001)                 2.843615645344775E+05,      /* I = 75 */
(PID.TID 0000.0001)                 2.900303768613599E+05,      /* I = 76 */
(PID.TID 0000.0001)                 2.945429307892709E+05,      /* I = 77 */
(PID.TID 0000.0001)                 2.979171143158405E+05,      /* I = 78 */
(PID.TID 0000.0001)                 3.001626787528886E+05,      /* I = 79 */
(PID.TID 0000.0001)     2 @  3.012844832048790E+05,             /* I = 80: 81 */
(PID.TID 0000.0001)                 3.001626787528886E+05,      /* I = 82 */
(PID.TID 0000.0001)                 2.979171143158405E+05,      /* I = 83 */
(PID.TID 0000.0001)                 2.945429307892709E+05,      /* I = 84 */
(PID.TID 0000.0001)                 2.900303768613599E+05,      /* I = 85 */
(PID.TID 0000.0001)                 2.843615645344775E+05,      /* I = 86 */
(PID.TID 0000.0001)                 2.775055554645015E+05,      /* I = 87 */
(PID.TID 0000.0001)                 2.694110134598581E+05,      /* I = 88 */
(PID.TID 0000.0001)                 2.599949918261881E+05,      /* I = 89 */
(PID.TID 0000.0001)                 2.491250781852558E+05,      /* I = 90 */
(PID.TID 0000.0001)                 2.365892017348392E+05,      /* I = 91 */
(PID.TID 0000.0001)                 2.220405216043041E+05,      /* I = 92 */
(PID.TID 0000.0001)                 2.048868197919577E+05,      /* I = 93 */
(PID.TID 0000.0001)                 1.840412227747703E+05,      /* I = 94 */
(PID.TID 0000.0001)                 1.572908084538706E+05,      /* I = 95 */
(PID.TID 0000.0001)     2 @  1.202082051331828E+05,             /* I = 96: 97 */
(PID.TID 0000.0001)                 1.572908084538706E+05,      /* I = 98 */
(PID.TID 0000.0001)                 1.840412227747703E+05,      /* I = 99 */
(PID.TID 0000.0001)                 2.048868197919577E+05,      /* I =100 */
(PID.TID 0000.0001)                 2.220405216043041E+05,      /* I =101 */
(PID.TID 0000.0001)                 2.365892017348392E+05,      /* I =102 */
(PID.TID 0000.0001)                 2.491250781852558E+05,      /* I =103 */
(PID.TID 0000.0001)                 2.599949918261881E+05,      /* I =104 */
(PID.TID 0000.0001)                 2.694110134598581E+05,      /* I =105 */
(PID.TID 0000.0001)                 2.775055554645015E+05,      /* I =106 */
(PID.TID 0000.0001)                 2.843615645344775E+05,      /* I =107 */
(PID.TID 0000.0001)                 2.900303768613599E+05,      /* I =108 */
(PID.TID 0000.0001)                 2.945429307892709E+05,      /* I =109 */
(PID.TID 0000.0001)                 2.979171143158405E+05,      /* I =110 */
(PID.TID 0000.0001)                 3.001626787528886E+05,      /* I =111 */
(PID.TID 0000.0001)     2 @  3.012844832048790E+05,             /* I =112:113 */
(PID.TID 0000.0001)                 3.001626787528886E+05,      /* I =114 */
(PID.TID 0000.0001)                 2.979171143158405E+05,      /* I =115 */
(PID.TID 0000.0001)                 2.945429307892709E+05,      /* I =116 */
(PID.TID 0000.0001)                 2.900303768613599E+05,      /* I =117 */
(PID.TID 0000.0001)                 2.843615645344775E+05,      /* I =118 */
(PID.TID 0000.0001)                 2.775055554645015E+05,      /* I =119 */
(PID.TID 0000.0001)                 2.694110134598581E+05,      /* I =120 */
(PID.TID 0000.0001)                 2.599949918261881E+05,      /* I =121 */
(PID.TID 0000.0001)                 2.491250781852558E+05,      /* I =122 */
(PID.TID 0000.0001)                 2.365892017348392E+05,      /* I =123 */
(PID.TID 0000.0001)                 2.220405216043041E+05,      /* I =124 */
(PID.TID 0000.0001)                 2.048868197919577E+05,      /* I =125 */
(PID.TID 0000.0001)                 1.840412227747703E+05,      /* I =126 */
(PID.TID 0000.0001)                 1.572908084538706E+05,      /* I =127 */
(PID.TID 0000.0001)     2 @  1.202082051331828E+05,             /* I =128:129 */
(PID.TID 0000.0001)                 1.572908084538706E+05,      /* I =130 */
(PID.TID 0000.0001)                 1.840412227747703E+05,      /* I =131 */
(PID.TID 0000.0001)                 2.048868197919577E+05,      /* I =132 */
(PID.TID 0000.0001)                 2.220405216043041E+05,      /* I =133 */
(PID.TID 0000.0001)                 2.365892017348392E+05,      /* I =134 */
(PID.TID 0000.0001)                 2.491250781852558E+05,      /* I =135 */
(PID.TID 0000.0001)                 2.599949918261881E+05,      /* I =136 */
(PID.TID 0000.0001)                 2.694110134598581E+05,      /* I =137 */
(PID.TID 0000.0001)                 2.775055554645015E+05,      /* I =138 */
(PID.TID 0000.0001)                 2.843615645344775E+05,      /* I =139 */
(PID.TID 0000.0001)                 2.900303768613599E+05,      /* I =140 */
(PID.TID 0000.0001)                 2.945429307892709E+05,      /* I =141 */
(PID.TID 0000.0001)                 2.979171143158405E+05,      /* I =142 */
(PID.TID 0000.0001)                 3.001626787528886E+05,      /* I =143 */
(PID.TID 0000.0001)     2 @  3.012844832048790E+05,             /* I =144:145 */
(PID.TID 0000.0001)                 3.001626787528886E+05,      /* I =146 */
(PID.TID 0000.0001)                 2.979171143158405E+05,      /* I =147 */
(PID.TID 0000.0001)                 2.945429307892709E+05,      /* I =148 */
(PID.TID 0000.0001)                 2.900303768613599E+05,      /* I =149 */
(PID.TID 0000.0001)                 2.843615645344775E+05,      /* I =150 */
(PID.TID 0000.0001)                 2.775055554645015E+05,      /* I =151 */
(PID.TID 0000.0001)                 2.694110134598581E+05,      /* I =152 */
(PID.TID 0000.0001)                 2.599949918261881E+05,      /* I =153 */
(PID.TID 0000.0001)                 2.491250781852558E+05,      /* I =154 */
(PID.TID 0000.0001)                 2.365892017348392E+05,      /* I =155 */
(PID.TID 0000.0001)                 2.220405216043041E+05,      /* I =156 */
(PID.TID 0000.0001)                 2.048868197919577E+05,      /* I =157 */
(PID.TID 0000.0001)                 1.840412227747703E+05,      /* I =158 */
(PID.TID 0000.0001)                 1.572908084538706E+05,      /* I =159 */
(PID.TID 0000.0001)     2 @  1.202082051331828E+05,             /* I =160:161 */
(PID.TID 0000.0001)                 1.572908084538706E+05,      /* I =162 */
(PID.TID 0000.0001)                 1.840412227747703E+05,      /* I =163 */
(PID.TID 0000.0001)                 2.048868197919577E+05,      /* I =164 */
(PID.TID 0000.0001)                 2.220405216043041E+05,      /* I =165 */
(PID.TID 0000.0001)                 2.365892017348392E+05,      /* I =166 */
(PID.TID 0000.0001)                 2.491250781852558E+05,      /* I =167 */
(PID.TID 0000.0001)                 2.599949918261881E+05,      /* I =168 */
(PID.TID 0000.0001)                 2.694110134598581E+05,      /* I =169 */
(PID.TID 0000.0001)                 2.775055554645015E+05,      /* I =170 */
(PID.TID 0000.0001)                 2.843615645344775E+05,      /* I =171 */
(PID.TID 0000.0001)                 2.900303768613599E+05,      /* I =172 */
(PID.TID 0000.0001)                 2.945429307892709E+05,      /* I =173 */
(PID.TID 0000.0001)                 2.979171143158405E+05,      /* I =174 */
(PID.TID 0000.0001)                 3.001626787528886E+05,      /* I =175 */
(PID.TID 0000.0001)     2 @  3.012844832048790E+05,             /* I =176:177 */
(PID.TID 0000.0001)                 3.001626787528886E+05,      /* I =178 */
(PID.TID 0000.0001)                 2.979171143158405E+05,      /* I =179 */
(PID.TID 0000.0001)                 2.945429307892709E+05,      /* I =180 */
(PID.TID 0000.0001)                 2.900303768613599E+05,      /* I =181 */
(PID.TID 0000.0001)                 2.843615645344775E+05,      /* I =182 */
(PID.TID 0000.0001)                 2.775055554645015E+05,      /* I =183 */
(PID.TID 0000.0001)                 2.694110134598581E+05,      /* I =184 */
(PID.TID 0000.0001)                 2.599949918261881E+05,      /* I =185 */
(PID.TID 0000.0001)                 2.491250781852558E+05,      /* I =186 */
(PID.TID 0000.0001)                 2.365892017348392E+05,      /* I =187 */
(PID.TID 0000.0001)                 2.220405216043041E+05,      /* I =188 */
(PID.TID 0000.0001)                 2.048868197919577E+05,      /* I =189 */
(PID.TID 0000.0001)                 1.840412227747703E+05,      /* I =190 */
(PID.TID 0000.0001)                 1.572908084538706E+05,      /* I =191 */
(PID.TID 0000.0001)                 1.202082051331828E+05       /* I =192 */
(PID.TID 0000.0001)     ;
(PID.TID 0000.0001) dyF =  /* dyF(1,:,1,:) ( units: m ) */
(PID.TID 0000.0001)                 1.202082051331828E+05,      /* J =  1 */
(PID.TID 0000.0001)                 1.563594089971120E+05,      /* J =  2 */
(PID.TID 0000.0001)                 1.835530058121492E+05,      /* J =  3 */
(PID.TID 0000.0001)                 2.045883481718707E+05,      /* J =  4 */
(PID.TID 0000.0001)                 2.218350349844185E+05,      /* J =  5 */
(PID.TID 0000.0001)                 2.364352994647058E+05,      /* J =  6 */
(PID.TID 0000.0001)                 2.490022710862746E+05,      /* J =  7 */
(PID.TID 0000.0001)                 2.598919724358304E+05,      /* J =  8 */
(PID.TID 0000.0001)                 2.693210245495156E+05,      /* J =  9 */
(PID.TID 0000.0001)                 2.774243179696503E+05,      /* J = 10 */
(PID.TID 0000.0001)                 2.842862532064524E+05,      /* J = 11 */
(PID.TID 0000.0001)                 2.899590699694043E+05,      /* J = 12 */
(PID.TID 0000.0001)                 2.944742915095688E+05,      /* J = 13 */
(PID.TID 0000.0001)                 2.978501920522794E+05,      /* J = 14 */
(PID.TID 0000.0001)                 3.000967749619962E+05,      /* J = 15 */
(PID.TID 0000.0001)     2 @  3.012190981969055E+05,             /* J = 16: 17 */
(PID.TID 0000.0001)                 3.000967749619962E+05,      /* J = 18 */
(PID.TID 0000.0001)                 2.978501920522794E+05,      /* J = 19 */
(PID.TID 0000.0001)                 2.944742915095688E+05,      /* J = 20 */
(PID.TID 0000.0001)                 2.899590699694043E+05,      /* J = 21 */
(PID.TID 0000.0001)                 2.842862532064524E+05,      /* J = 22 */
(PID.TID 0000.0001)                 2.774243179696503E+05,      /* J = 23 */
(PID.TID 0000.0001)                 2.693210245495156E+05,      /* J = 24 */
(PID.TID 0000.0001)                 2.598919724358304E+05,      /* J = 25 */
(PID.TID 0000.0001)                 2.490022710862746E+05,      /* J = 26 */
(PID.TID 0000.0001)                 2.364352994647058E+05,      /* J = 27 */
(PID.TID 0000.0001)                 2.218350349844185E+05,      /* J = 28 */
(PID.TID 0000.0001)                 2.045883481718707E+05,      /* J = 29 */
(PID.TID 0000.0001)                 1.835530058121492E+05,      /* J = 30 */
(PID.TID 0000.0001)                 1.563594089971120E+05,      /* J = 31 */
(PID.TID 0000.0001)                 1.202082051331828E+05       /* J = 32 */
(PID.TID 0000.0001)     ;
(PID.TID 0000.0001) dxG =  /* dxG(:,1,:,1) ( units: m ) */
(PID.TID 0000.0001)                 1.009837800879055E+05,      /* I =  1 */
(PID.TID 0000.0001)                 1.534505834330338E+05,      /* I =  2 */
(PID.TID 0000.0001)                 1.823321598773926E+05,      /* I =  3 */
(PID.TID 0000.0001)                 2.038999045536999E+05,      /* I =  4 */
(PID.TID 0000.0001)                 2.213884732245467E+05,      /* I =  5 */
(PID.TID 0000.0001)                 2.361211699596122E+05,      /* I =  6 */
(PID.TID 0000.0001)                 2.487693460283865E+05,      /* I =  7 */
(PID.TID 0000.0001)                 2.597126963772147E+05,      /* I =  8 */
(PID.TID 0000.0001)                 2.691790288994575E+05,      /* I =  9 */
(PID.TID 0000.0001)                 2.773091043277394E+05,      /* I = 10 */
(PID.TID 0000.0001)                 2.841906470085516E+05,      /* I = 11 */
(PID.TID 0000.0001)                 2.898778860929753E+05,      /* I = 12 */
(PID.TID 0000.0001)                 2.944035815526416E+05,      /* I = 13 */
(PID.TID 0000.0001)                 2.977867909042096E+05,      /* I = 14 */
(PID.TID 0000.0001)                 3.000380090330854E+05,      /* I = 15 */
(PID.TID 0000.0001)     2 @  3.011625828699101E+05,             /* I = 16: 17 */
(PID.TID 0000.0001)                 3.000380090330854E+05,      /* I = 18 */
(PID.TID 0000.0001)                 2.977867909042096E+05,      /* I = 19 */
(PID.TID 0000.0001)                 2.944035815526416E+05,      /* I = 20 */
(PID.TID 0000.0001)                 2.898778860929753E+05,      /* I = 21 */
(PID.TID 0000.0001)                 2.841906470085516E+05,      /* I = 22 */
(PID.TID 0000.0001)                 2.773091043277394E+05,      /* I = 23 */
(PID.TID 0000.0001)                 2.691790288994575E+05,      /* I = 24 */
(PID.TID 0000.0001)                 2.597126963772147E+05,      /* I = 25 */
(PID.TID 0000.0001)                 2.487693460283865E+05,      /* I = 26 */
(PID.TID 0000.0001)                 2.361211699596122E+05,      /* I = 27 */
(PID.TID 0000.0001)                 2.213884732245467E+05,      /* I = 28 */
(PID.TID 0000.0001)                 2.038999045536999E+05,      /* I = 29 */
(PID.TID 0000.0001)                 1.823321598773926E+05,      /* I = 30 */
(PID.TID 0000.0001)                 1.534505834330338E+05,      /* I = 31 */
(PID.TID 0000.0001)     2 @  1.009837800879055E+05,             /* I = 32: 33 */
(PID.TID 0000.0001)                 1.534505834330338E+05,      /* I = 34 */
(PID.TID 0000.0001)                 1.823321598773926E+05,      /* I = 35 */
(PID.TID 0000.0001)                 2.038999045536999E+05,      /* I = 36 */
(PID.TID 0000.0001)                 2.213884732245467E+05,      /* I = 37 */
(PID.TID 0000.0001)                 2.361211699596122E+05,      /* I = 38 */
(PID.TID 0000.0001)                 2.487693460283865E+05,      /* I = 39 */
(PID.TID 0000.0001)                 2.597126963772147E+05,      /* I = 40 */
(PID.TID 0000.0001)                 2.691790288994575E+05,      /* I = 41 */
(PID.TID 0000.0001)                 2.773091043277394E+05,      /* I = 42 */
(PID.TID 0000.0001)                 2.841906470085516E+05,      /* I = 43 */
(PID.TID 0000.0001)                 2.898778860929753E+05,      /* I = 44 */
(PID.TID 0000.0001)                 2.944035815526416E+05,      /* I = 45 */
(PID.TID 0000.0001)                 2.977867909042096E+05,      /* I = 46 */
(PID.TID 0000.0001)                 3.000380090330854E+05,      /* I = 47 */
(PID.TID 0000.0001)     2 @  3.011625828699101E+05,             /* I = 48: 49 */
(PID.TID 0000.0001)                 3.000380090330854E+05,      /* I = 50 */
(PID.TID 0000.0001)                 2.977867909042096E+05,      /* I = 51 */
(PID.TID 0000.0001)                 2.944035815526416E+05,      /* I = 52 */
(PID.TID 0000.0001)                 2.898778860929753E+05,      /* I = 53 */
(PID.TID 0000.0001)                 2.841906470085516E+05,      /* I = 54 */
(PID.TID 0000.0001)                 2.773091043277394E+05,      /* I = 55 */
(PID.TID 0000.0001)                 2.691790288994575E+05,      /* I = 56 */
(PID.TID 0000.0001)                 2.597126963772147E+05,      /* I = 57 */
(PID.TID 0000.0001)                 2.487693460283865E+05,      /* I = 58 */
(PID.TID 0000.0001)                 2.361211699596122E+05,      /* I = 59 */
(PID.TID 0000.0001)                 2.213884732245467E+05,      /* I = 60 */
(PID.TID 0000.0001)                 2.038999045536999E+05,      /* I = 61 */
(PID.TID 0000.0001)                 1.823321598773926E+05,      /* I = 62 */
(PID.TID 0000.0001)                 1.534505834330338E+05,      /* I = 63 */
(PID.TID 0000.0001)     2 @  1.009837800879055E+05,             /* I = 64: 65 */
(PID.TID 0000.0001)                 1.534505834330338E+05,      /* I = 66 */
(PID.TID 0000.0001)                 1.823321598773926E+05,      /* I = 67 */
(PID.TID 0000.0001)                 2.038999045536999E+05,      /* I = 68 */
(PID.TID 0000.0001)                 2.213884732245467E+05,      /* I = 69 */
(PID.TID 0000.0001)                 2.361211699596122E+05,      /* I = 70 */
(PID.TID 0000.0001)                 2.487693460283865E+05,      /* I = 71 */
(PID.TID 0000.0001)                 2.597126963772147E+05,      /* I = 72 */
(PID.TID 0000.0001)                 2.691790288994575E+05,      /* I = 73 */
(PID.TID 0000.0001)                 2.773091043277394E+05,      /* I = 74 */
(PID.TID 0000.0001)                 2.841906470085516E+05,      /* I = 75 */
(PID.TID 0000.0001)                 2.898778860929753E+05,      /* I = 76 */
(PID.TID 0000.0001)                 2.944035815526416E+05,      /* I = 77 */
(PID.TID 0000.0001)                 2.977867909042096E+05,      /* I = 78 */
(PID.TID 0000.0001)                 3.000380090330854E+05,      /* I = 79 */
(PID.TID 0000.0001)     2 @  3.011625828699101E+05,             /* I = 80: 81 */
(PID.TID 0000.0001)                 3.000380090330854E+05,      /* I = 82 */
(PID.TID 0000.0001)                 2.977867909042096E+05,      /* I = 83 */
(PID.TID 0000.0001)                 2.944035815526416E+05,      /* I = 84 */
(PID.TID 0000.0001)                 2.898778860929753E+05,      /* I = 85 */
(PID.TID 0000.0001)                 2.841906470085516E+05,      /* I = 86 */
(PID.TID 0000.0001)                 2.773091043277394E+05,      /* I = 87 */
(PID.TID 0000.0001)                 2.691790288994575E+05,      /* I = 88 */
(PID.TID 0000.0001)                 2.597126963772147E+05,      /* I = 89 */
(PID.TID 0000.0001)                 2.487693460283865E+05,      /* I = 90 */
(PID.TID 0000.0001)                 2.361211699596122E+05,      /* I = 91 */
(PID.TID 0000.0001)                 2.213884732245467E+05,      /* I = 92 */
(PID.TID 0000.0001)                 2.038999045536999E+05,      /* I = 93 */
(PID.TID 0000.0001)                 1.823321598773926E+05,      /* I = 94 */
(PID.TID 0000.0001)                 1.534505834330338E+05,      /* I = 95 */
(PID.TID 0000.0001)     2 @  1.009837800879055E+05,             /* I = 96: 97 */
(PID.TID 0000.0001)                 1.534505834330338E+05,      /* I = 98 */
(PID.TID 0000.0001)                 1.823321598773926E+05,      /* I = 99 */
(PID.TID 0000.0001)                 2.038999045536999E+05,      /* I =100 */
(PID.TID 0000.0001)                 2.213884732245467E+05,      /* I =101 */
(PID.TID 0000.0001)                 2.361211699596122E+05,      /* I =102 */
(PID.TID 0000.0001)                 2.487693460283865E+05,      /* I =103 */
(PID.TID 0000.0001)                 2.597126963772147E+05,      /* I =104 */
(PID.TID 0000.0001)                 2.691790288994575E+05,      /* I =105 */
(PID.TID 0000.0001)                 2.773091043277394E+05,      /* I =106 */
(PID.TID 0000.0001)                 2.841906470085516E+05,      /* I =107 */
(PID.TID 0000.0001)                 2.898778860929753E+05,      /* I =108 */
(PID.TID 0000.0001)                 2.944035815526416E+05,      /* I =109 */
(PID.TID 0000.0001)                 2.977867909042096E+05,      /* I =110 */
(PID.TID 0000.0001)                 3.000380090330854E+05,      /* I =111 */
(PID.TID 0000.0001)     2 @  3.011625828699101E+05,             /* I =112:113 */
(PID.TID 0000.0001)                 3.000380090330854E+05,      /* I =114 */
(PID.TID 0000.0001)                 2.977867909042096E+05,      /* I =115 */
(PID.TID 0000.0001)                 2.944035815526416E+05,      /* I =116 */
(PID.TID 0000.0001)                 2.898778860929753E+05,      /* I =117 */
(PID.TID 0000.0001)                 2.841906470085516E+05,      /* I =118 */
(PID.TID 0000.0001)                 2.773091043277394E+05,      /* I =119 */
(PID.TID 0000.0001)                 2.691790288994575E+05,      /* I =120 */
(PID.TID 0000.0001)                 2.597126963772147E+05,      /* I =121 */
(PID.TID 0000.0001)                 2.487693460283865E+05,      /* I =122 */
(PID.TID 0000.0001)                 2.361211699596122E+05,      /* I =123 */
(PID.TID 0000.0001)                 2.213884732245467E+05,      /* I =124 */
(PID.TID 0000.0001)                 2.038999045536999E+05,      /* I =125 */
(PID.TID 0000.0001)                 1.823321598773926E+05,      /* I =126 */
(PID.TID 0000.0001)                 1.534505834330338E+05,      /* I =127 */
(PID.TID 0000.0001)     2 @  1.009837800879055E+05,             /* I =128:129 */
(PID.TID 0000.0001)                 1.534505834330338E+05,      /* I =130 */
(PID.TID 0000.0001)                 1.823321598773926E+05,      /* I =131 */
(PID.TID 0000.0001)                 2.038999045536999E+05,      /* I =132 */
(PID.TID 0000.0001)                 2.213884732245467E+05,      /* I =133 */
(PID.TID 0000.0001)                 2.361211699596122E+05,      /* I =134 */
(PID.TID 0000.0001)                 2.487693460283865E+05,      /* I =135 */
(PID.TID 0000.0001)                 2.597126963772147E+05,      /* I =136 */
(PID.TID 0000.0001)                 2.691790288994575E+05,      /* I =137 */
(PID.TID 0000.0001)                 2.773091043277394E+05,      /* I =138 */
(PID.TID 0000.0001)                 2.841906470085516E+05,      /* I =139 */
(PID.TID 0000.0001)                 2.898778860929753E+05,      /* I =140 */
(PID.TID 0000.0001)                 2.944035815526416E+05,      /* I =141 */
(PID.TID 0000.0001)                 2.977867909042096E+05,      /* I =142 */
(PID.TID 0000.0001)                 3.000380090330854E+05,      /* I =143 */
(PID.TID 0000.0001)     2 @  3.011625828699101E+05,             /* I =144:145 */
(PID.TID 0000.0001)                 3.000380090330854E+05,      /* I =146 */
(PID.TID 0000.0001)                 2.977867909042096E+05,      /* I =147 */
(PID.TID 0000.0001)                 2.944035815526416E+05,      /* I =148 */
(PID.TID 0000.0001)                 2.898778860929753E+05,      /* I =149 */
(PID.TID 0000.0001)                 2.841906470085516E+05,      /* I =150 */
(PID.TID 0000.0001)                 2.773091043277394E+05,      /* I =151 */
(PID.TID 0000.0001)                 2.691790288994575E+05,      /* I =152 */
(PID.TID 0000.0001)                 2.597126963772147E+05,      /* I =153 */
(PID.TID 0000.0001)                 2.487693460283865E+05,      /* I =154 */
(PID.TID 0000.0001)                 2.361211699596122E+05,      /* I =155 */
(PID.TID 0000.0001)                 2.213884732245467E+05,      /* I =156 */
(PID.TID 0000.0001)                 2.038999045536999E+05,      /* I =157 */
(PID.TID 0000.0001)                 1.823321598773926E+05,      /* I =158 */
(PID.TID 0000.0001)                 1.534505834330338E+05,      /* I =159 */
(PID.TID 0000.0001)     2 @  1.009837800879055E+05,             /* I =160:161 */
(PID.TID 0000.0001)                 1.534505834330338E+05,      /* I =162 */
(PID.TID 0000.0001)                 1.823321598773926E+05,      /* I =163 */
(PID.TID 0000.0001)                 2.038999045536999E+05,      /* I =164 */
(PID.TID 0000.0001)                 2.213884732245467E+05,      /* I =165 */
(PID.TID 0000.0001)                 2.361211699596122E+05,      /* I =166 */
(PID.TID 0000.0001)                 2.487693460283865E+05,      /* I =167 */
(PID.TID 0000.0001)                 2.597126963772147E+05,      /* I =168 */
(PID.TID 0000.0001)                 2.691790288994575E+05,      /* I =169 */
(PID.TID 0000.0001)                 2.773091043277394E+05,      /* I =170 */
(PID.TID 0000.0001)                 2.841906470085516E+05,      /* I =171 */
(PID.TID 0000.0001)                 2.898778860929753E+05,      /* I =172 */
(PID.TID 0000.0001)                 2.944035815526416E+05,      /* I =173 */
(PID.TID 0000.0001)                 2.977867909042096E+05,      /* I =174 */
(PID.TID 0000.0001)                 3.000380090330854E+05,      /* I =175 */
(PID.TID 0000.0001)     2 @  3.011625828699101E+05,             /* I =176:177 */
(PID.TID 0000.0001)                 3.000380090330854E+05,      /* I =178 */
(PID.TID 0000.0001)                 2.977867909042096E+05,      /* I =179 */
(PID.TID 0000.0001)                 2.944035815526416E+05,      /* I =180 */
(PID.TID 0000.0001)                 2.898778860929753E+05,      /* I =181 */
(PID.TID 0000.0001)                 2.841906470085516E+05,      /* I =182 */
(PID.TID 0000.0001)                 2.773091043277394E+05,      /* I =183 */
(PID.TID 0000.0001)                 2.691790288994575E+05,      /* I =184 */
(PID.TID 0000.0001)                 2.597126963772147E+05,      /* I =185 */
(PID.TID 0000.0001)                 2.487693460283865E+05,      /* I =186 */
(PID.TID 0000.0001)                 2.361211699596122E+05,      /* I =187 */
(PID.TID 0000.0001)                 2.213884732245467E+05,      /* I =188 */
(PID.TID 0000.0001)                 2.038999045536999E+05,      /* I =189 */
(PID.TID 0000.0001)                 1.823321598773926E+05,      /* I =190 */
(PID.TID 0000.0001)                 1.534505834330338E+05,      /* I =191 */
(PID.TID 0000.0001)                 1.009837800879055E+05       /* I =192 */
(PID.TID 0000.0001)     ;
(PID.TID 0000.0001) dxG =  /* dxG(1,:,1,:) ( units: m ) */
(PID.TID 0000.0001)                 1.009837800879055E+05,      /* J =  1 */
(PID.TID 0000.0001)                 1.403701524205399E+05,      /* J =  2 */
(PID.TID 0000.0001)                 1.716197227386011E+05,      /* J =  3 */
(PID.TID 0000.0001)                 1.950254041626018E+05,      /* J =  4 */
(PID.TID 0000.0001)                 2.138410773065497E+05,      /* J =  5 */
(PID.TID 0000.0001)                 2.295958105911512E+05,      /* J =  6 */
(PID.TID 0000.0001)                 2.430829951739083E+05,      /* J =  7 */
(PID.TID 0000.0001)                 2.547526806712889E+05,      /* J =  8 */
(PID.TID 0000.0001)                 2.648750305193301E+05,      /* J =  9 */
(PID.TID 0000.0001)                 2.736173771018112E+05,      /* J = 10 */
(PID.TID 0000.0001)                 2.810845823202647E+05,      /* J = 11 */
(PID.TID 0000.0001)                 2.873420591008078E+05,      /* J = 12 */
(PID.TID 0000.0001)                 2.924298293668651E+05,      /* J = 13 */
(PID.TID 0000.0001)                 2.963715635865306E+05,      /* J = 14 */
(PID.TID 0000.0001)                 2.991805843171258E+05,      /* J = 15 */
(PID.TID 0000.0001)                 3.008638765647886E+05,      /* J = 16 */
(PID.TID 0000.0001)                 3.014246674484008E+05,      /* J = 17 */
(PID.TID 0000.0001)                 3.008638765647886E+05,      /* J = 18 */
(PID.TID 0000.0001)                 2.991805843171258E+05,      /* J = 19 */
(PID.TID 0000.0001)                 2.963715635865306E+05,      /* J = 20 */
(PID.TID 0000.0001)                 2.924298293668651E+05,      /* J = 21 */
(PID.TID 0000.0001)                 2.873420591008078E+05,      /* J = 22 */
(PID.TID 0000.0001)                 2.810845823202647E+05,      /* J = 23 */
(PID.TID 0000.0001)                 2.736173771018112E+05,      /* J = 24 */
(PID.TID 0000.0001)                 2.648750305193301E+05,      /* J = 25 */
(PID.TID 0000.0001)                 2.547526806712889E+05,      /* J = 26 */
(PID.TID 0000.0001)                 2.430829951739083E+05,      /* J = 27 */
(PID.TID 0000.0001)                 2.295958105911512E+05,      /* J = 28 */
(PID.TID 0000.0001)                 2.138410773065497E+05,      /* J = 29 */
(PID.TID 0000.0001)                 1.950254041626018E+05,      /* J = 30 */
(PID.TID 0000.0001)                 1.716197227386011E+05,      /* J = 31 */
(PID.TID 0000.0001)                 1.403701524205399E+05       /* J = 32 */
(PID.TID 0000.0001)     ;
(PID.TID 0000.0001) dyG =  /* dyG(:,1,:,1) ( units: m ) */
(PID.TID 0000.0001)                 1.009837800879055E+05,      /* I =  1 */
(PID.TID 0000.0001)                 1.403701524205399E+05,      /* I =  2 */
(PID.TID 0000.0001)                 1.716197227386011E+05,      /* I =  3 */
(PID.TID 0000.0001)                 1.950254041626018E+05,      /* I =  4 */
(PID.TID 0000.0001)                 2.138410773065497E+05,      /* I =  5 */
(PID.TID 0000.0001)                 2.295958105911512E+05,      /* I =  6 */
(PID.TID 0000.0001)                 2.430829951739083E+05,      /* I =  7 */
(PID.TID 0000.0001)                 2.547526806712889E+05,      /* I =  8 */
(PID.TID 0000.0001)                 2.648750305193301E+05,      /* I =  9 */
(PID.TID 0000.0001)                 2.736173771018112E+05,      /* I = 10 */
(PID.TID 0000.0001)                 2.810845823202647E+05,      /* I = 11 */
(PID.TID 0000.0001)                 2.873420591008078E+05,      /* I = 12 */
(PID.TID 0000.0001)                 2.924298293668651E+05,      /* I = 13 */
(PID.TID 0000.0001)                 2.963715635865306E+05,      /* I = 14 */
(PID.TID 0000.0001)                 2.991805843171258E+05,      /* I = 15 */
(PID.TID 0000.0001)                 3.008638765647886E+05,      /* I = 16 */
(PID.TID 0000.0001)                 3.014246674484008E+05,      /* I = 17 */
(PID.TID 0000.0001)                 3.008638765647886E+05,      /* I = 18 */
(PID.TID 0000.0001)                 2.991805843171258E+05,      /* I = 19 */
(PID.TID 0000.0001)                 2.963715635865306E+05,      /* I = 20 */
(PID.TID 0000.0001)                 2.924298293668651E+05,      /* I = 21 */
(PID.TID 0000.0001)                 2.873420591008078E+05,      /* I = 22 */
(PID.TID 0000.0001)                 2.810845823202647E+05,      /* I = 23 */
(PID.TID 0000.0001)                 2.736173771018112E+05,      /* I = 24 */
(PID.TID 0000.0001)                 2.648750305193301E+05,      /* I = 25 */
(PID.TID 0000.0001)                 2.547526806712889E+05,      /* I = 26 */
(PID.TID 0000.0001)                 2.430829951739083E+05,      /* I = 27 */
(PID.TID 0000.0001)                 2.295958105911512E+05,      /* I = 28 */
(PID.TID 0000.0001)                 2.138410773065497E+05,      /* I = 29 */
(PID.TID 0000.0001)                 1.950254041626018E+05,      /* I = 30 */
(PID.TID 0000.0001)                 1.716197227386011E+05,      /* I = 31 */
(PID.TID 0000.0001)                 1.403701524205399E+05,      /* I = 32 */
(PID.TID 0000.0001)                 1.009837800879055E+05,      /* I = 33 */
(PID.TID 0000.0001)                 1.403701524205399E+05,      /* I = 34 */
(PID.TID 0000.0001)                 1.716197227386011E+05,      /* I = 35 */
(PID.TID 0000.0001)                 1.950254041626018E+05,      /* I = 36 */
(PID.TID 0000.0001)                 2.138410773065497E+05,      /* I = 37 */
(PID.TID 0000.0001)                 2.295958105911512E+05,      /* I = 38 */
(PID.TID 0000.0001)                 2.430829951739083E+05,      /* I = 39 */
(PID.TID 0000.0001)                 2.547526806712889E+05,      /* I = 40 */
(PID.TID 0000.0001)                 2.648750305193301E+05,      /* I = 41 */
(PID.TID 0000.0001)                 2.736173771018112E+05,      /* I = 42 */
(PID.TID 0000.0001)                 2.810845823202647E+05,      /* I = 43 */
(PID.TID 0000.0001)                 2.873420591008078E+05,      /* I = 44 */
(PID.TID 0000.0001)                 2.924298293668651E+05,      /* I = 45 */
(PID.TID 0000.0001)                 2.963715635865306E+05,      /* I = 46 */
(PID.TID 0000.0001)                 2.991805843171258E+05,      /* I = 47 */
(PID.TID 0000.0001)                 3.008638765647886E+05,      /* I = 48 */
(PID.TID 0000.0001)                 3.014246674484008E+05,      /* I = 49 */
(PID.TID 0000.0001)                 3.008638765647886E+05,      /* I = 50 */
(PID.TID 0000.0001)                 2.991805843171258E+05,      /* I = 51 */
(PID.TID 0000.0001)                 2.963715635865306E+05,      /* I = 52 */
(PID.TID 0000.0001)                 2.924298293668651E+05,      /* I = 53 */
(PID.TID 0000.0001)                 2.873420591008078E+05,      /* I = 54 */
(PID.TID 0000.0001)                 2.810845823202647E+05,      /* I = 55 */
(PID.TID 0000.0001)                 2.736173771018112E+05,      /* I = 56 */
(PID.TID 0000.0001)                 2.648750305193301E+05,      /* I = 57 */
(PID.TID 0000.0001)                 2.547526806712889E+05,      /* I = 58 */
(PID.TID 0000.0001)                 2.430829951739083E+05,      /* I = 59 */
(PID.TID 0000.0001)                 2.295958105911512E+05,      /* I = 60 */
(PID.TID 0000.0001)                 2.138410773065497E+05,      /* I = 61 */
(PID.TID 0000.0001)                 1.950254041626018E+05,      /* I = 62 */
(PID.TID 0000.0001)                 1.716197227386011E+05,      /* I = 63 */
(PID.TID 0000.0001)                 1.403701524205399E+05,      /* I = 64 */
(PID.TID 0000.0001)                 1.009837800879055E+05,      /* I = 65 */
(PID.TID 0000.0001)                 1.403701524205399E+05,      /* I = 66 */
(PID.TID 0000.0001)                 1.716197227386011E+05,      /* I = 67 */
(PID.TID 0000.0001)                 1.950254041626018E+05,      /* I = 68 */
(PID.TID 0000.0001)                 2.138410773065497E+05,      /* I = 69 */
(PID.TID 0000.0001)                 2.295958105911512E+05,      /* I = 70 */
(PID.TID 0000.0001)                 2.430829951739083E+05,      /* I = 71 */
(PID.TID 0000.0001)                 2.547526806712889E+05,      /* I = 72 */
(PID.TID 0000.0001)                 2.648750305193301E+05,      /* I = 73 */
(PID.TID 0000.0001)                 2.736173771018112E+05,      /* I = 74 */
(PID.TID 0000.0001)                 2.810845823202647E+05,      /* I = 75 */
(PID.TID 0000.0001)                 2.873420591008078E+05,      /* I = 76 */
(PID.TID 0000.0001)                 2.924298293668651E+05,      /* I = 77 */
(PID.TID 0000.0001)                 2.963715635865306E+05,      /* I = 78 */
(PID.TID 0000.0001)                 2.991805843171258E+05,      /* I = 79 */
(PID.TID 0000.0001)                 3.008638765647886E+05,      /* I = 80 */
(PID.TID 0000.0001)                 3.014246674484008E+05,      /* I = 81 */
(PID.TID 0000.0001)                 3.008638765647886E+05,      /* I = 82 */
(PID.TID 0000.0001)                 2.991805843171258E+05,      /* I = 83 */
(PID.TID 0000.0001)                 2.963715635865306E+05,      /* I = 84 */
(PID.TID 0000.0001)                 2.924298293668651E+05,      /* I = 85 */
(PID.TID 0000.0001)                 2.873420591008078E+05,      /* I = 86 */
(PID.TID 0000.0001)                 2.810845823202647E+05,      /* I = 87 */
(PID.TID 0000.0001)                 2.736173771018112E+05,      /* I = 88 */
(PID.TID 0000.0001)                 2.648750305193301E+05,      /* I = 89 */
(PID.TID 0000.0001)                 2.547526806712889E+05,      /* I = 90 */
(PID.TID 0000.0001)                 2.430829951739083E+05,      /* I = 91 */
(PID.TID 0000.0001)                 2.295958105911512E+05,      /* I = 92 */
(PID.TID 0000.0001)                 2.138410773065497E+05,      /* I = 93 */
(PID.TID 0000.0001)                 1.950254041626018E+05,      /* I = 94 */
(PID.TID 0000.0001)                 1.716197227386011E+05,      /* I = 95 */
(PID.TID 0000.0001)                 1.403701524205399E+05,      /* I = 96 */
(PID.TID 0000.0001)                 1.009837800879055E+05,      /* I = 97 */
(PID.TID 0000.0001)                 1.403701524205399E+05,      /* I = 98 */
(PID.TID 0000.0001)                 1.716197227386011E+05,      /* I = 99 */
(PID.TID 0000.0001)                 1.950254041626018E+05,      /* I =100 */
(PID.TID 0000.0001)                 2.138410773065497E+05,      /* I =101 */
(PID.TID 0000.0001)                 2.295958105911512E+05,      /* I =102 */
(PID.TID 0000.0001)                 2.430829951739083E+05,      /* I =103 */
(PID.TID 0000.0001)                 2.547526806712889E+05,      /* I =104 */
(PID.TID 0000.0001)                 2.648750305193301E+05,      /* I =105 */
(PID.TID 0000.0001)                 2.736173771018112E+05,      /* I =106 */
(PID.TID 0000.0001)                 2.810845823202647E+05,      /* I =107 */
(PID.TID 0000.0001)                 2.873420591008078E+05,      /* I =108 */
(PID.TID 0000.0001)                 2.924298293668651E+05,      /* I =109 */
(PID.TID 0000.0001)                 2.963715635865306E+05,      /* I =110 */
(PID.TID 0000.0001)                 2.991805843171258E+05,      /* I =111 */
(PID.TID 0000.0001)                 3.008638765647886E+05,      /* I =112 */
(PID.TID 0000.0001)                 3.014246674484008E+05,      /* I =113 */
(PID.TID 0000.0001)                 3.008638765647886E+05,      /* I =114 */
(PID.TID 0000.0001)                 2.991805843171258E+05,      /* I =115 */
(PID.TID 0000.0001)                 2.963715635865306E+05,      /* I =116 */
(PID.TID 0000.0001)                 2.924298293668651E+05,      /* I =117 */
(PID.TID 0000.0001)                 2.873420591008078E+05,      /* I =118 */
(PID.TID 0000.0001)                 2.810845823202647E+05,      /* I =119 */
(PID.TID 0000.0001)                 2.736173771018112E+05,      /* I =120 */
(PID.TID 0000.0001)                 2.648750305193301E+05,      /* I =121 */
(PID.TID 0000.0001)                 2.547526806712889E+05,      /* I =122 */
(PID.TID 0000.0001)                 2.430829951739083E+05,      /* I =123 */
(PID.TID 0000.0001)                 2.295958105911512E+05,      /* I =124 */
(PID.TID 0000.0001)                 2.138410773065497E+05,      /* I =125 */
(PID.TID 0000.0001)                 1.950254041626018E+05,      /* I =126 */
(PID.TID 0000.0001)                 1.716197227386011E+05,      /* I =127 */
(PID.TID 0000.0001)                 1.403701524205399E+05,      /* I =128 */
(PID.TID 0000.0001)                 1.009837800879055E+05,      /* I =129 */
(PID.TID 0000.0001)                 1.403701524205399E+05,      /* I =130 */
(PID.TID 0000.0001)                 1.716197227386011E+05,      /* I =131 */
(PID.TID 0000.0001)                 1.950254041626018E+05,      /* I =132 */
(PID.TID 0000.0001)                 2.138410773065497E+05,      /* I =133 */
(PID.TID 0000.0001)                 2.295958105911512E+05,      /* I =134 */
(PID.TID 0000.0001)                 2.430829951739083E+05,      /* I =135 */
(PID.TID 0000.0001)                 2.547526806712889E+05,      /* I =136 */
(PID.TID 0000.0001)                 2.648750305193301E+05,      /* I =137 */
(PID.TID 0000.0001)                 2.736173771018112E+05,      /* I =138 */
(PID.TID 0000.0001)                 2.810845823202647E+05,      /* I =139 */
(PID.TID 0000.0001)                 2.873420591008078E+05,      /* I =140 */
(PID.TID 0000.0001)                 2.924298293668651E+05,      /* I =141 */
(PID.TID 0000.0001)                 2.963715635865306E+05,      /* I =142 */
(PID.TID 0000.0001)                 2.991805843171258E+05,      /* I =143 */
(PID.TID 0000.0001)                 3.008638765647886E+05,      /* I =144 */
(PID.TID 0000.0001)                 3.014246674484008E+05,      /* I =145 */
(PID.TID 0000.0001)                 3.008638765647886E+05,      /* I =146 */
(PID.TID 0000.0001)                 2.991805843171258E+05,      /* I =147 */
(PID.TID 0000.0001)                 2.963715635865306E+05,      /* I =148 */
(PID.TID 0000.0001)                 2.924298293668651E+05,      /* I =149 */
(PID.TID 0000.0001)                 2.873420591008078E+05,      /* I =150 */
(PID.TID 0000.0001)                 2.810845823202647E+05,      /* I =151 */
(PID.TID 0000.0001)                 2.736173771018112E+05,      /* I =152 */
(PID.TID 0000.0001)                 2.648750305193301E+05,      /* I =153 */
(PID.TID 0000.0001)                 2.547526806712889E+05,      /* I =154 */
(PID.TID 0000.0001)                 2.430829951739083E+05,      /* I =155 */
(PID.TID 0000.0001)                 2.295958105911512E+05,      /* I =156 */
(PID.TID 0000.0001)                 2.138410773065497E+05,      /* I =157 */
(PID.TID 0000.0001)                 1.950254041626018E+05,      /* I =158 */
(PID.TID 0000.0001)                 1.716197227386011E+05,      /* I =159 */
(PID.TID 0000.0001)                 1.403701524205399E+05,      /* I =160 */
(PID.TID 0000.0001)                 1.009837800879055E+05,      /* I =161 */
(PID.TID 0000.0001)                 1.403701524205399E+05,      /* I =162 */
(PID.TID 0000.0001)                 1.716197227386011E+05,      /* I =163 */
(PID.TID 0000.0001)                 1.950254041626018E+05,      /* I =164 */
(PID.TID 0000.0001)                 2.138410773065497E+05,      /* I =165 */
(PID.TID 0000.0001)                 2.295958105911512E+05,      /* I =166 */
(PID.TID 0000.0001)                 2.430829951739083E+05,      /* I =167 */
(PID.TID 0000.0001)                 2.547526806712889E+05,      /* I =168 */
(PID.TID 0000.0001)                 2.648750305193301E+05,      /* I =169 */
(PID.TID 0000.0001)                 2.736173771018112E+05,      /* I =170 */
(PID.TID 0000.0001)                 2.810845823202647E+05,      /* I =171 */
(PID.TID 0000.0001)                 2.873420591008078E+05,      /* I =172 */
(PID.TID 0000.0001)                 2.924298293668651E+05,      /* I =173 */
(PID.TID 0000.0001)                 2.963715635865306E+05,      /* I =174 */
(PID.TID 0000.0001)                 2.991805843171258E+05,      /* I =175 */
(PID.TID 0000.0001)                 3.008638765647886E+05,      /* I =176 */
(PID.TID 0000.0001)                 3.014246674484008E+05,      /* I =177 */
(PID.TID 0000.0001)                 3.008638765647886E+05,      /* I =178 */
(PID.TID 0000.0001)                 2.991805843171258E+05,      /* I =179 */
(PID.TID 0000.0001)                 2.963715635865306E+05,      /* I =180 */
(PID.TID 0000.0001)                 2.924298293668651E+05,      /* I =181 */
(PID.TID 0000.0001)                 2.873420591008078E+05,      /* I =182 */
(PID.TID 0000.0001)                 2.810845823202647E+05,      /* I =183 */
(PID.TID 0000.0001)                 2.736173771018112E+05,      /* I =184 */
(PID.TID 0000.0001)                 2.648750305193301E+05,      /* I =185 */
(PID.TID 0000.0001)                 2.547526806712889E+05,      /* I =186 */
(PID.TID 0000.0001)                 2.430829951739083E+05,      /* I =187 */
(PID.TID 0000.0001)                 2.295958105911512E+05,      /* I =188 */
(PID.TID 0000.0001)                 2.138410773065497E+05,      /* I =189 */
(PID.TID 0000.0001)                 1.950254041626018E+05,      /* I =190 */
(PID.TID 0000.0001)                 1.716197227386011E+05,      /* I =191 */
(PID.TID 0000.0001)                 1.403701524205399E+05       /* I =192 */
(PID.TID 0000.0001)     ;
(PID.TID 0000.0001) dyG =  /* dyG(1,:,1,:) ( units: m ) */
(PID.TID 0000.0001)                 1.009837800879055E+05,      /* J =  1 */
(PID.TID 0000.0001)                 1.534505834330338E+05,      /* J =  2 */
(PID.TID 0000.0001)                 1.823321598773926E+05,      /* J =  3 */
(PID.TID 0000.0001)                 2.038999045536999E+05,      /* J =  4 */
(PID.TID 0000.0001)                 2.213884732245467E+05,      /* J =  5 */
(PID.TID 0000.0001)                 2.361211699596122E+05,      /* J =  6 */
(PID.TID 0000.0001)                 2.487693460283865E+05,      /* J =  7 */
(PID.TID 0000.0001)                 2.597126963772147E+05,      /* J =  8 */
(PID.TID 0000.0001)                 2.691790288994575E+05,      /* J =  9 */
(PID.TID 0000.0001)                 2.773091043277394E+05,      /* J = 10 */
(PID.TID 0000.0001)                 2.841906470085516E+05,      /* J = 11 */
(PID.TID 0000.0001)                 2.898778860929753E+05,      /* J = 12 */
(PID.TID 0000.0001)                 2.944035815526416E+05,      /* J = 13 */
(PID.TID 0000.0001)                 2.977867909042096E+05,      /* J = 14 */
(PID.TID 0000.0001)                 3.000380090330854E+05,      /* J = 15 */
(PID.TID 0000.0001)     2 @  3.011625828699101E+05,             /* J = 16: 17 */
(PID.TID 0000.0001)                 3.000380090330854E+05,      /* J = 18 */
(PID.TID 0000.0001)                 2.977867909042096E+05,      /* J = 19 */
(PID.TID 0000.0001)                 2.944035815526416E+05,      /* J = 20 */
(PID.TID 0000.0001)                 2.898778860929753E+05,      /* J = 21 */
(PID.TID 0000.0001)                 2.841906470085516E+05,      /* J = 22 */
(PID.TID 0000.0001)                 2.773091043277394E+05,      /* J = 23 */
(PID.TID 0000.0001)                 2.691790288994575E+05,      /* J = 24 */
(PID.TID 0000.0001)                 2.597126963772147E+05,      /* J = 25 */
(PID.TID 0000.0001)                 2.487693460283865E+05,      /* J = 26 */
(PID.TID 0000.0001)                 2.361211699596122E+05,      /* J = 27 */
(PID.TID 0000.0001)                 2.213884732245467E+05,      /* J = 28 */
(PID.TID 0000.0001)                 2.038999045536999E+05,      /* J = 29 */
(PID.TID 0000.0001)                 1.823321598773926E+05,      /* J = 30 */
(PID.TID 0000.0001)                 1.534505834330338E+05,      /* J = 31 */
(PID.TID 0000.0001)                 1.009837800879055E+05       /* J = 32 */
(PID.TID 0000.0001)     ;
(PID.TID 0000.0001) dxC =  /* dxC(:,1,:,1) ( units: m ) */
(PID.TID 0000.0001)                 1.135373000692312E+05,      /* I =  1 */
(PID.TID 0000.0001)                 1.391343389937106E+05,      /* I =  2 */
(PID.TID 0000.0001)                 1.709574999026267E+05,      /* I =  3 */
(PID.TID 0000.0001)                 1.946503699269892E+05,      /* I =  4 */
(PID.TID 0000.0001)                 2.135964483342134E+05,      /* I =  5 */
(PID.TID 0000.0001)                 2.294195678257306E+05,      /* I =  6 */
(PID.TID 0000.0001)                 2.429464709770498E+05,      /* I =  7 */
(PID.TID 0000.0001)                 2.546408290696998E+05,      /* I =  8 */
(PID.TID 0000.0001)                 2.647791839299727E+05,      /* I =  9 */
(PID.TID 0000.0001)                 2.735321911346108E+05,      /* I = 10 */
(PID.TID 0000.0001)                 2.810065951609633E+05,      /* I = 11 */
(PID.TID 0000.0001)                 2.872689479506990E+05,      /* I = 12 */
(PID.TID 0000.0001)                 2.923599955312932E+05,      /* I = 13 */
(PID.TID 0000.0001)                 2.963038832565530E+05,      /* I = 14 */
(PID.TID 0000.0001)                 2.991142470004740E+05,      /* I = 15 */
(PID.TID 0000.0001)                 3.007982711627968E+05,      /* I = 16 */
(PID.TID 0000.0001)                 3.013593857228136E+05,      /* I = 17 */
(PID.TID 0000.0001)                 3.007982711627968E+05,      /* I = 18 */
(PID.TID 0000.0001)                 2.991142470004740E+05,      /* I = 19 */
(PID.TID 0000.0001)                 2.963038832565530E+05,      /* I = 20 */
(PID.TID 0000.0001)                 2.923599955312932E+05,      /* I = 21 */
(PID.TID 0000.0001)                 2.872689479506990E+05,      /* I = 22 */
(PID.TID 0000.0001)                 2.810065951609633E+05,      /* I = 23 */
(PID.TID 0000.0001)                 2.735321911346108E+05,      /* I = 24 */
(PID.TID 0000.0001)                 2.647791839299727E+05,      /* I = 25 */
(PID.TID 0000.0001)                 2.546408290696998E+05,      /* I = 26 */
(PID.TID 0000.0001)                 2.429464709770498E+05,      /* I = 27 */
(PID.TID 0000.0001)                 2.294195678257306E+05,      /* I = 28 */
(PID.TID 0000.0001)                 2.135964483342134E+05,      /* I = 29 */
(PID.TID 0000.0001)                 1.946503699269892E+05,      /* I = 30 */
(PID.TID 0000.0001)                 1.709574999026267E+05,      /* I = 31 */
(PID.TID 0000.0001)                 1.391343389937106E+05,      /* I = 32 */
(PID.TID 0000.0001)                 1.135373000692312E+05,      /* I = 33 */
(PID.TID 0000.0001)                 1.391343389937106E+05,      /* I = 34 */
(PID.TID 0000.0001)                 1.709574999026267E+05,      /* I = 35 */
(PID.TID 0000.0001)                 1.946503699269892E+05,      /* I = 36 */
(PID.TID 0000.0001)                 2.135964483342134E+05,      /* I = 37 */
(PID.TID 0000.0001)                 2.294195678257306E+05,      /* I = 38 */
(PID.TID 0000.0001)                 2.429464709770498E+05,      /* I = 39 */
(PID.TID 0000.0001)                 2.546408290696998E+05,      /* I = 40 */
(PID.TID 0000.0001)                 2.647791839299727E+05,      /* I = 41 */
(PID.TID 0000.0001)                 2.735321911346108E+05,      /* I = 42 */
(PID.TID 0000.0001)                 2.810065951609633E+05,      /* I = 43 */
(PID.TID 0000.0001)                 2.872689479506990E+05,      /* I = 44 */
(PID.TID 0000.0001)                 2.923599955312932E+05,      /* I = 45 */
(PID.TID 0000.0001)                 2.963038832565530E+05,      /* I = 46 */
(PID.TID 0000.0001)                 2.991142470004740E+05,      /* I = 47 */
(PID.TID 0000.0001)                 3.007982711627968E+05,      /* I = 48 */
(PID.TID 0000.0001)                 3.013593857228136E+05,      /* I = 49 */
(PID.TID 0000.0001)                 3.007982711627968E+05,      /* I = 50 */
(PID.TID 0000.0001)                 2.991142470004740E+05,      /* I = 51 */
(PID.TID 0000.0001)                 2.963038832565530E+05,      /* I = 52 */
(PID.TID 0000.0001)                 2.923599955312932E+05,      /* I = 53 */
(PID.TID 0000.0001)                 2.872689479506990E+05,      /* I = 54 */
(PID.TID 0000.0001)                 2.810065951609633E+05,      /* I = 55 */
(PID.TID 0000.0001)                 2.735321911346108E+05,      /* I = 56 */
(PID.TID 0000.0001)                 2.647791839299727E+05,      /* I = 57 */
(PID.TID 0000.0001)                 2.546408290696998E+05,      /* I = 58 */
(PID.TID 0000.0001)                 2.429464709770498E+05,      /* I = 59 */
(PID.TID 0000.0001)                 2.294195678257306E+05,      /* I = 60 */
(PID.TID 0000.0001)                 2.135964483342134E+05,      /* I = 61 */
(PID.TID 0000.0001)                 1.946503699269892E+05,      /* I = 62 */
(PID.TID 0000.0001)                 1.709574999026267E+05,      /* I = 63 */
(PID.TID 0000.0001)                 1.391343389937106E+05,      /* I = 64 */
(PID.TID 0000.0001)                 1.135373000692312E+05,      /* I = 65 */
(PID.TID 0000.0001)                 1.391343389937106E+05,      /* I = 66 */
(PID.TID 0000.0001)                 1.709574999026267E+05,      /* I = 67 */
(PID.TID 0000.0001)                 1.946503699269892E+05,      /* I = 68 */
(PID.TID 0000.0001)                 2.135964483342134E+05,      /* I = 69 */
(PID.TID 0000.0001)                 2.294195678257306E+05,      /* I = 70 */
(PID.TID 0000.0001)                 2.429464709770498E+05,      /* I = 71 */
(PID.TID 0000.0001)                 2.546408290696998E+05,      /* I = 72 */
(PID.TID 0000.0001)                 2.647791839299727E+05,      /* I = 73 */
(PID.TID 0000.0001)                 2.735321911346108E+05,      /* I = 74 */
(PID.TID 0000.0001)                 2.810065951609633E+05,      /* I = 75 */
(PID.TID 0000.0001)                 2.872689479506990E+05,      /* I = 76 */
(PID.TID 0000.0001)                 2.923599955312932E+05,      /* I = 77 */
(PID.TID 0000.0001)                 2.963038832565530E+05,      /* I = 78 */
(PID.TID 0000.0001)                 2.991142470004740E+05,      /* I = 79 */
(PID.TID 0000.0001)                 3.007982711627968E+05,      /* I = 80 */
(PID.TID 0000.0001)                 3.013593857228136E+05,      /* I = 81 */
(PID.TID 0000.0001)                 3.007982711627968E+05,      /* I = 82 */
(PID.TID 0000.0001)                 2.991142470004740E+05,      /* I = 83 */
(PID.TID 0000.0001)                 2.963038832565530E+05,      /* I = 84 */
(PID.TID 0000.0001)                 2.923599955312932E+05,      /* I = 85 */
(PID.TID 0000.0001)                 2.872689479506990E+05,      /* I = 86 */
(PID.TID 0000.0001)                 2.810065951609633E+05,      /* I = 87 */
(PID.TID 0000.0001)                 2.735321911346108E+05,      /* I = 88 */
(PID.TID 0000.0001)                 2.647791839299727E+05,      /* I = 89 */
(PID.TID 0000.0001)                 2.546408290696998E+05,      /* I = 90 */
(PID.TID 0000.0001)                 2.429464709770498E+05,      /* I = 91 */
(PID.TID 0000.0001)                 2.294195678257306E+05,      /* I = 92 */
(PID.TID 0000.0001)                 2.135964483342134E+05,      /* I = 93 */
(PID.TID 0000.0001)                 1.946503699269892E+05,      /* I = 94 */
(PID.TID 0000.0001)                 1.709574999026267E+05,      /* I = 95 */
(PID.TID 0000.0001)                 1.391343389937106E+05,      /* I = 96 */
(PID.TID 0000.0001)                 1.135373000692312E+05,      /* I = 97 */
(PID.TID 0000.0001)                 1.391343389937106E+05,      /* I = 98 */
(PID.TID 0000.0001)                 1.709574999026267E+05,      /* I = 99 */
(PID.TID 0000.0001)                 1.946503699269892E+05,      /* I =100 */
(PID.TID 0000.0001)                 2.135964483342134E+05,      /* I =101 */
(PID.TID 0000.0001)                 2.294195678257306E+05,      /* I =102 */
(PID.TID 0000.0001)                 2.429464709770498E+05,      /* I =103 */
(PID.TID 0000.0001)                 2.546408290696998E+05,      /* I =104 */
(PID.TID 0000.0001)                 2.647791839299727E+05,      /* I =105 */
(PID.TID 0000.0001)                 2.735321911346108E+05,      /* I =106 */
(PID.TID 0000.0001)                 2.810065951609633E+05,      /* I =107 */
(PID.TID 0000.0001)                 2.872689479506990E+05,      /* I =108 */
(PID.TID 0000.0001)                 2.923599955312932E+05,      /* I =109 */
(PID.TID 0000.0001)                 2.963038832565530E+05,      /* I =110 */
(PID.TID 0000.0001)                 2.991142470004740E+05,      /* I =111 */
(PID.TID 0000.0001)                 3.007982711627968E+05,      /* I =112 */
(PID.TID 0000.0001)                 3.013593857228136E+05,      /* I =113 */
(PID.TID 0000.0001)                 3.007982711627968E+05,      /* I =114 */
(PID.TID 0000.0001)                 2.991142470004740E+05,      /* I =115 */
(PID.TID 0000.0001)                 2.963038832565530E+05,      /* I =116 */
(PID.TID 0000.0001)                 2.923599955312932E+05,      /* I =117 */
(PID.TID 0000.0001)                 2.872689479506990E+05,      /* I =118 */
(PID.TID 0000.0001)                 2.810065951609633E+05,      /* I =119 */
(PID.TID 0000.0001)                 2.735321911346108E+05,      /* I =120 */
(PID.TID 0000.0001)                 2.647791839299727E+05,      /* I =121 */
(PID.TID 0000.0001)                 2.546408290696998E+05,      /* I =122 */
(PID.TID 0000.0001)                 2.429464709770498E+05,      /* I =123 */
(PID.TID 0000.0001)                 2.294195678257306E+05,      /* I =124 */
(PID.TID 0000.0001)                 2.135964483342134E+05,      /* I =125 */
(PID.TID 0000.0001)                 1.946503699269892E+05,      /* I =126 */
(PID.TID 0000.0001)                 1.709574999026267E+05,      /* I =127 */
(PID.TID 0000.0001)                 1.391343389937106E+05,      /* I =128 */
(PID.TID 0000.0001)                 1.135373000692312E+05,      /* I =129 */
(PID.TID 0000.0001)                 1.391343389937106E+05,      /* I =130 */
(PID.TID 0000.0001)                 1.709574999026267E+05,      /* I =131 */
(PID.TID 0000.0001)                 1.946503699269892E+05,      /* I =132 */
(PID.TID 0000.0001)                 2.135964483342134E+05,      /* I =133 */
(PID.TID 0000.0001)                 2.294195678257306E+05,      /* I =134 */
(PID.TID 0000.0001)                 2.429464709770498E+05,      /* I =135 */
(PID.TID 0000.0001)                 2.546408290696998E+05,      /* I =136 */
(PID.TID 0000.0001)                 2.647791839299727E+05,      /* I =137 */
(PID.TID 0000.0001)                 2.735321911346108E+05,      /* I =138 */
(PID.TID 0000.0001)                 2.810065951609633E+05,      /* I =139 */
(PID.TID 0000.0001)                 2.872689479506990E+05,      /* I =140 */
(PID.TID 0000.0001)                 2.923599955312932E+05,      /* I =141 */
(PID.TID 0000.0001)                 2.963038832565530E+05,      /* I =142 */
(PID.TID 0000.0001)                 2.991142470004740E+05,      /* I =143 */
(PID.TID 0000.0001)                 3.007982711627968E+05,      /* I =144 */
(PID.TID 0000.0001)                 3.013593857228136E+05,      /* I =145 */
(PID.TID 0000.0001)                 3.007982711627968E+05,      /* I =146 */
(PID.TID 0000.0001)                 2.991142470004740E+05,      /* I =147 */
(PID.TID 0000.0001)                 2.963038832565530E+05,      /* I =148 */
(PID.TID 0000.0001)                 2.923599955312932E+05,      /* I =149 */
(PID.TID 0000.0001)                 2.872689479506990E+05,      /* I =150 */
(PID.TID 0000.0001)                 2.810065951609633E+05,      /* I =151 */
(PID.TID 0000.0001)                 2.735321911346108E+05,      /* I =152 */
(PID.TID 0000.0001)                 2.647791839299727E+05,      /* I =153 */
(PID.TID 0000.0001)                 2.546408290696998E+05,      /* I =154 */
(PID.TID 0000.0001)                 2.429464709770498E+05,      /* I =155 */
(PID.TID 0000.0001)                 2.294195678257306E+05,      /* I =156 */
(PID.TID 0000.0001)                 2.135964483342134E+05,      /* I =157 */
(PID.TID 0000.0001)                 1.946503699269892E+05,      /* I =158 */
(PID.TID 0000.0001)                 1.709574999026267E+05,      /* I =159 */
(PID.TID 0000.0001)                 1.391343389937106E+05,      /* I =160 */
(PID.TID 0000.0001)                 1.135373000692312E+05,      /* I =161 */
(PID.TID 0000.0001)                 1.391343389937106E+05,      /* I =162 */
(PID.TID 0000.0001)                 1.709574999026267E+05,      /* I =163 */
(PID.TID 0000.0001)                 1.946503699269892E+05,      /* I =164 */
(PID.TID 0000.0001)                 2.135964483342134E+05,      /* I =165 */
(PID.TID 0000.0001)                 2.294195678257306E+05,      /* I =166 */
(PID.TID 0000.0001)                 2.429464709770498E+05,      /* I =167 */
(PID.TID 0000.0001)                 2.546408290696998E+05,      /* I =168 */
(PID.TID 0000.0001)                 2.647791839299727E+05,      /* I =169 */
(PID.TID 0000.0001)                 2.735321911346108E+05,      /* I =170 */
(PID.TID 0000.0001)                 2.810065951609633E+05,      /* I =171 */
(PID.TID 0000.0001)                 2.872689479506990E+05,      /* I =172 */
(PID.TID 0000.0001)                 2.923599955312932E+05,      /* I =173 */
(PID.TID 0000.0001)                 2.963038832565530E+05,      /* I =174 */
(PID.TID 0000.0001)                 2.991142470004740E+05,      /* I =175 */
(PID.TID 0000.0001)                 3.007982711627968E+05,      /* I =176 */
(PID.TID 0000.0001)                 3.013593857228136E+05,      /* I =177 */
(PID.TID 0000.0001)                 3.007982711627968E+05,      /* I =178 */
(PID.TID 0000.0001)                 2.991142470004740E+05,      /* I =179 */
(PID.TID 0000.0001)                 2.963038832565530E+05,      /* I =180 */
(PID.TID 0000.0001)                 2.923599955312932E+05,      /* I =181 */
(PID.TID 0000.0001)                 2.872689479506990E+05,      /* I =182 */
(PID.TID 0000.0001)                 2.810065951609633E+05,      /* I =183 */
(PID.TID 0000.0001)                 2.735321911346108E+05,      /* I =184 */
(PID.TID 0000.0001)                 2.647791839299727E+05,      /* I =185 */
(PID.TID 0000.0001)                 2.546408290696998E+05,      /* I =186 */
(PID.TID 0000.0001)                 2.429464709770498E+05,      /* I =187 */
(PID.TID 0000.0001)                 2.294195678257306E+05,      /* I =188 */
(PID.TID 0000.0001)                 2.135964483342134E+05,      /* I =189 */
(PID.TID 0000.0001)                 1.946503699269892E+05,      /* I =190 */
(PID.TID 0000.0001)                 1.709574999026267E+05,      /* I =191 */
(PID.TID 0000.0001)                 1.391343389937106E+05       /* I =192 */
(PID.TID 0000.0001)     ;
(PID.TID 0000.0001) dxC =  /* dxC(1,:,1,:) ( units: m ) */
(PID.TID 0000.0001)                 1.135373000692312E+05,      /* J =  1 */
(PID.TID 0000.0001)                 1.549545757850771E+05,      /* J =  2 */
(PID.TID 0000.0001)                 1.829777599966776E+05,      /* J =  3 */
(PID.TID 0000.0001)                 2.042717761866506E+05,      /* J =  4 */
(PID.TID 0000.0001)                 2.216367828252819E+05,      /* J =  5 */
(PID.TID 0000.0001)                 2.363029564123586E+05,      /* J =  6 */
(PID.TID 0000.0001)                 2.489113743322025E+05,      /* J =  7 */
(PID.TID 0000.0001)                 2.598293319150326E+05,      /* J =  8 */
(PID.TID 0000.0001)                 2.692787333338535E+05,      /* J =  9 */
(PID.TID 0000.0001)                 2.773972106720365E+05,      /* J = 10 */
(PID.TID 0000.0001)                 2.842706922224558E+05,      /* J = 11 */
(PID.TID 0000.0001)                 2.899523122489404E+05,      /* J = 12 */
(PID.TID 0000.0001)                 2.944741346384699E+05,      /* J = 13 */
(PID.TID 0000.0001)                 2.978547649292580E+05,      /* J = 14 */
(PID.TID 0000.0001)                 3.001044073506459E+05,      /* J = 15 */
(PID.TID 0000.0001)     2 @  3.012281885409289E+05,             /* J = 16: 17 */
(PID.TID 0000.0001)                 3.001044073506459E+05,      /* J = 18 */
(PID.TID 0000.0001)                 2.978547649292580E+05,      /* J = 19 */
(PID.TID 0000.0001)                 2.944741346384699E+05,      /* J = 20 */
(PID.TID 0000.0001)                 2.899523122489404E+05,      /* J = 21 */
(PID.TID 0000.0001)                 2.842706922224558E+05,      /* J = 22 */
(PID.TID 0000.0001)                 2.773972106720365E+05,      /* J = 23 */
(PID.TID 0000.0001)                 2.692787333338535E+05,      /* J = 24 */
(PID.TID 0000.0001)                 2.598293319150326E+05,      /* J = 25 */
(PID.TID 0000.0001)                 2.489113743322025E+05,      /* J = 26 */
(PID.TID 0000.0001)                 2.363029564123586E+05,      /* J = 27 */
(PID.TID 0000.0001)                 2.216367828252819E+05,      /* J = 28 */
(PID.TID 0000.0001)                 2.042717761866506E+05,      /* J = 29 */
(PID.TID 0000.0001)                 1.829777599966776E+05,      /* J = 30 */
(PID.TID 0000.0001)                 1.549545757850771E+05,      /* J = 31 */
(PID.TID 0000.0001)                 1.135373000692312E+05       /* J = 32 */
(PID.TID 0000.0001)     ;
(PID.TID 0000.0001) dyC =  /* dyC(:,1,:,1) ( units: m ) */
(PID.TID 0000.0001)                 1.135373000692312E+05,      /* I =  1 */
(PID.TID 0000.0001)                 1.549545757850771E+05,      /* I =  2 */
(PID.TID 0000.0001)                 1.829777599966776E+05,      /* I =  3 */
(PID.TID 0000.0001)                 2.042717761866506E+05,      /* I =  4 */
(PID.TID 0000.0001)                 2.216367828252819E+05,      /* I =  5 */
(PID.TID 0000.0001)                 2.363029564123586E+05,      /* I =  6 */
(PID.TID 0000.0001)                 2.489113743322025E+05,      /* I =  7 */
(PID.TID 0000.0001)                 2.598293319150326E+05,      /* I =  8 */
(PID.TID 0000.0001)                 2.692787333338535E+05,      /* I =  9 */
(PID.TID 0000.0001)                 2.773972106720365E+05,      /* I = 10 */
(PID.TID 0000.0001)                 2.842706922224558E+05,      /* I = 11 */
(PID.TID 0000.0001)                 2.899523122489404E+05,      /* I = 12 */
(PID.TID 0000.0001)                 2.944741346384699E+05,      /* I = 13 */
(PID.TID 0000.0001)                 2.978547649292580E+05,      /* I = 14 */
(PID.TID 0000.0001)                 3.001044073506459E+05,      /* I = 15 */
(PID.TID 0000.0001)     2 @  3.012281885409289E+05,             /* I = 16: 17 */
(PID.TID 0000.0001)                 3.001044073506459E+05,      /* I = 18 */
(PID.TID 0000.0001)                 2.978547649292580E+05,      /* I = 19 */
(PID.TID 0000.0001)                 2.944741346384699E+05,      /* I = 20 */
(PID.TID 0000.0001)                 2.899523122489404E+05,      /* I = 21 */
(PID.TID 0000.0001)                 2.842706922224558E+05,      /* I = 22 */
(PID.TID 0000.0001)                 2.773972106720365E+05,      /* I = 23 */
(PID.TID 0000.0001)                 2.692787333338535E+05,      /* I = 24 */
(PID.TID 0000.0001)                 2.598293319150326E+05,      /* I = 25 */
(PID.TID 0000.0001)                 2.489113743322025E+05,      /* I = 26 */
(PID.TID 0000.0001)                 2.363029564123586E+05,      /* I = 27 */
(PID.TID 0000.0001)                 2.216367828252819E+05,      /* I = 28 */
(PID.TID 0000.0001)                 2.042717761866506E+05,      /* I = 29 */
(PID.TID 0000.0001)                 1.829777599966776E+05,      /* I = 30 */
(PID.TID 0000.0001)                 1.549545757850771E+05,      /* I = 31 */
(PID.TID 0000.0001)     2 @  1.135373000692312E+05,             /* I = 32: 33 */
(PID.TID 0000.0001)                 1.549545757850771E+05,      /* I = 34 */
(PID.TID 0000.0001)                 1.829777599966776E+05,      /* I = 35 */
(PID.TID 0000.0001)                 2.042717761866506E+05,      /* I = 36 */
(PID.TID 0000.0001)                 2.216367828252819E+05,      /* I = 37 */
(PID.TID 0000.0001)                 2.363029564123586E+05,      /* I = 38 */
(PID.TID 0000.0001)                 2.489113743322025E+05,      /* I = 39 */
(PID.TID 0000.0001)                 2.598293319150326E+05,      /* I = 40 */
(PID.TID 0000.0001)                 2.692787333338535E+05,      /* I = 41 */
(PID.TID 0000.0001)                 2.773972106720365E+05,      /* I = 42 */
(PID.TID 0000.0001)                 2.842706922224558E+05,      /* I = 43 */
(PID.TID 0000.0001)                 2.899523122489404E+05,      /* I = 44 */
(PID.TID 0000.0001)                 2.944741346384699E+05,      /* I = 45 */
(PID.TID 0000.0001)                 2.978547649292580E+05,      /* I = 46 */
(PID.TID 0000.0001)                 3.001044073506459E+05,      /* I = 47 */
(PID.TID 0000.0001)     2 @  3.012281885409289E+05,             /* I = 48: 49 */
(PID.TID 0000.0001)                 3.001044073506459E+05,      /* I = 50 */
(PID.TID 0000.0001)                 2.978547649292580E+05,      /* I = 51 */
(PID.TID 0000.0001)                 2.944741346384699E+05,      /* I = 52 */
(PID.TID 0000.0001)                 2.899523122489404E+05,      /* I = 53 */
(PID.TID 0000.0001)                 2.842706922224558E+05,      /* I = 54 */
(PID.TID 0000.0001)                 2.773972106720365E+05,      /* I = 55 */
(PID.TID 0000.0001)                 2.692787333338535E+05,      /* I = 56 */
(PID.TID 0000.0001)                 2.598293319150326E+05,      /* I = 57 */
(PID.TID 0000.0001)                 2.489113743322025E+05,      /* I = 58 */
(PID.TID 0000.0001)                 2.363029564123586E+05,      /* I = 59 */
(PID.TID 0000.0001)                 2.216367828252819E+05,      /* I = 60 */
(PID.TID 0000.0001)                 2.042717761866506E+05,      /* I = 61 */
(PID.TID 0000.0001)                 1.829777599966776E+05,      /* I = 62 */
(PID.TID 0000.0001)                 1.549545757850771E+05,      /* I = 63 */
(PID.TID 0000.0001)     2 @  1.135373000692312E+05,             /* I = 64: 65 */
(PID.TID 0000.0001)                 1.549545757850771E+05,      /* I = 66 */
(PID.TID 0000.0001)                 1.829777599966776E+05,      /* I = 67 */
(PID.TID 0000.0001)                 2.042717761866506E+05,      /* I = 68 */
(PID.TID 0000.0001)                 2.216367828252819E+05,      /* I = 69 */
(PID.TID 0000.0001)                 2.363029564123586E+05,      /* I = 70 */
(PID.TID 0000.0001)                 2.489113743322025E+05,      /* I = 71 */
(PID.TID 0000.0001)                 2.598293319150326E+05,      /* I = 72 */
(PID.TID 0000.0001)                 2.692787333338535E+05,      /* I = 73 */
(PID.TID 0000.0001)                 2.773972106720365E+05,      /* I = 74 */
(PID.TID 0000.0001)                 2.842706922224558E+05,      /* I = 75 */
(PID.TID 0000.0001)                 2.899523122489404E+05,      /* I = 76 */
(PID.TID 0000.0001)                 2.944741346384699E+05,      /* I = 77 */
(PID.TID 0000.0001)                 2.978547649292580E+05,      /* I = 78 */
(PID.TID 0000.0001)                 3.001044073506459E+05,      /* I = 79 */
(PID.TID 0000.0001)     2 @  3.012281885409289E+05,             /* I = 80: 81 */
(PID.TID 0000.0001)                 3.001044073506459E+05,      /* I = 82 */
(PID.TID 0000.0001)                 2.978547649292580E+05,      /* I = 83 */
(PID.TID 0000.0001)                 2.944741346384699E+05,      /* I = 84 */
(PID.TID 0000.0001)                 2.899523122489404E+05,      /* I = 85 */
(PID.TID 0000.0001)                 2.842706922224558E+05,      /* I = 86 */
(PID.TID 0000.0001)                 2.773972106720365E+05,      /* I = 87 */
(PID.TID 0000.0001)                 2.692787333338535E+05,      /* I = 88 */
(PID.TID 0000.0001)                 2.598293319150326E+05,      /* I = 89 */
(PID.TID 0000.0001)                 2.489113743322025E+05,      /* I = 90 */
(PID.TID 0000.0001)                 2.363029564123586E+05,      /* I = 91 */
(PID.TID 0000.0001)                 2.216367828252819E+05,      /* I = 92 */
(PID.TID 0000.0001)                 2.042717761866506E+05,      /* I = 93 */
(PID.TID 0000.0001)                 1.829777599966776E+05,      /* I = 94 */
(PID.TID 0000.0001)                 1.549545757850771E+05,      /* I = 95 */
(PID.TID 0000.0001)     2 @  1.135373000692312E+05,             /* I = 96: 97 */
(PID.TID 0000.0001)                 1.549545757850771E+05,      /* I = 98 */
(PID.TID 0000.0001)                 1.829777599966776E+05,      /* I = 99 */
(PID.TID 0000.0001)                 2.042717761866506E+05,      /* I =100 */
(PID.TID 0000.0001)                 2.216367828252819E+05,      /* I =101 */
(PID.TID 0000.0001)                 2.363029564123586E+05,      /* I =102 */
(PID.TID 0000.0001)                 2.489113743322025E+05,      /* I =103 */
(PID.TID 0000.0001)                 2.598293319150326E+05,      /* I =104 */
(PID.TID 0000.0001)                 2.692787333338535E+05,      /* I =105 */
(PID.TID 0000.0001)                 2.773972106720365E+05,      /* I =106 */
(PID.TID 0000.0001)                 2.842706922224558E+05,      /* I =107 */
(PID.TID 0000.0001)                 2.899523122489404E+05,      /* I =108 */
(PID.TID 0000.0001)                 2.944741346384699E+05,      /* I =109 */
(PID.TID 0000.0001)                 2.978547649292580E+05,      /* I =110 */
(PID.TID 0000.0001)                 3.001044073506459E+05,      /* I =111 */
(PID.TID 0000.0001)     2 @  3.012281885409289E+05,             /* I =112:113 */
(PID.TID 0000.0001)                 3.001044073506459E+05,      /* I =114 */
(PID.TID 0000.0001)                 2.978547649292580E+05,      /* I =115 */
(PID.TID 0000.0001)                 2.944741346384699E+05,      /* I =116 */
(PID.TID 0000.0001)                 2.899523122489404E+05,      /* I =117 */
(PID.TID 0000.0001)                 2.842706922224558E+05,      /* I =118 */
(PID.TID 0000.0001)                 2.773972106720365E+05,      /* I =119 */
(PID.TID 0000.0001)                 2.692787333338535E+05,      /* I =120 */
(PID.TID 0000.0001)                 2.598293319150326E+05,      /* I =121 */
(PID.TID 0000.0001)                 2.489113743322025E+05,      /* I =122 */
(PID.TID 0000.0001)                 2.363029564123586E+05,      /* I =123 */
(PID.TID 0000.0001)                 2.216367828252819E+05,      /* I =124 */
(PID.TID 0000.0001)                 2.042717761866506E+05,      /* I =125 */
(PID.TID 0000.0001)                 1.829777599966776E+05,      /* I =126 */
(PID.TID 0000.0001)                 1.549545757850771E+05,      /* I =127 */
(PID.TID 0000.0001)     2 @  1.135373000692312E+05,             /* I =128:129 */
(PID.TID 0000.0001)                 1.549545757850771E+05,      /* I =130 */
(PID.TID 0000.0001)                 1.829777599966776E+05,      /* I =131 */
(PID.TID 0000.0001)                 2.042717761866506E+05,      /* I =132 */
(PID.TID 0000.0001)                 2.216367828252819E+05,      /* I =133 */
(PID.TID 0000.0001)                 2.363029564123586E+05,      /* I =134 */
(PID.TID 0000.0001)                 2.489113743322025E+05,      /* I =135 */
(PID.TID 0000.0001)                 2.598293319150326E+05,      /* I =136 */
(PID.TID 0000.0001)                 2.692787333338535E+05,      /* I =137 */
(PID.TID 0000.0001)                 2.773972106720365E+05,      /* I =138 */
(PID.TID 0000.0001)                 2.842706922224558E+05,      /* I =139 */
(PID.TID 0000.0001)                 2.899523122489404E+05,      /* I =140 */
(PID.TID 0000.0001)                 2.944741346384699E+05,      /* I =141 */
(PID.TID 0000.0001)                 2.978547649292580E+05,      /* I =142 */
(PID.TID 0000.0001)                 3.001044073506459E+05,      /* I =143 */
(PID.TID 0000.0001)     2 @  3.012281885409289E+05,             /* I =144:145 */
(PID.TID 0000.0001)                 3.001044073506459E+05,      /* I =146 */
(PID.TID 0000.0001)                 2.978547649292580E+05,      /* I =147 */
(PID.TID 0000.0001)                 2.944741346384699E+05,      /* I =148 */
(PID.TID 0000.0001)                 2.899523122489404E+05,      /* I =149 */
(PID.TID 0000.0001)                 2.842706922224558E+05,      /* I =150 */
(PID.TID 0000.0001)                 2.773972106720365E+05,      /* I =151 */
(PID.TID 0000.0001)                 2.692787333338535E+05,      /* I =152 */
(PID.TID 0000.0001)                 2.598293319150326E+05,      /* I =153 */
(PID.TID 0000.0001)                 2.489113743322025E+05,      /* I =154 */
(PID.TID 0000.0001)                 2.363029564123586E+05,      /* I =155 */
(PID.TID 0000.0001)                 2.216367828252819E+05,      /* I =156 */
(PID.TID 0000.0001)                 2.042717761866506E+05,      /* I =157 */
(PID.TID 0000.0001)                 1.829777599966776E+05,      /* I =158 */
(PID.TID 0000.0001)                 1.549545757850771E+05,      /* I =159 */
(PID.TID 0000.0001)     2 @  1.135373000692312E+05,             /* I =160:161 */
(PID.TID 0000.0001)                 1.549545757850771E+05,      /* I =162 */
(PID.TID 0000.0001)                 1.829777599966776E+05,      /* I =163 */
(PID.TID 0000.0001)                 2.042717761866506E+05,      /* I =164 */
(PID.TID 0000.0001)                 2.216367828252819E+05,      /* I =165 */
(PID.TID 0000.0001)                 2.363029564123586E+05,      /* I =166 */
(PID.TID 0000.0001)                 2.489113743322025E+05,      /* I =167 */
(PID.TID 0000.0001)                 2.598293319150326E+05,      /* I =168 */
(PID.TID 0000.0001)                 2.692787333338535E+05,      /* I =169 */
(PID.TID 0000.0001)                 2.773972106720365E+05,      /* I =170 */
(PID.TID 0000.0001)                 2.842706922224558E+05,      /* I =171 */
(PID.TID 0000.0001)                 2.899523122489404E+05,      /* I =172 */
(PID.TID 0000.0001)                 2.944741346384699E+05,      /* I =173 */
(PID.TID 0000.0001)                 2.978547649292580E+05,      /* I =174 */
(PID.TID 0000.0001)                 3.001044073506459E+05,      /* I =175 */
(PID.TID 0000.0001)     2 @  3.012281885409289E+05,             /* I =176:177 */
(PID.TID 0000.0001)                 3.001044073506459E+05,      /* I =178 */
(PID.TID 0000.0001)                 2.978547649292580E+05,      /* I =179 */
(PID.TID 0000.0001)                 2.944741346384699E+05,      /* I =180 */
(PID.TID 0000.0001)                 2.899523122489404E+05,      /* I =181 */
(PID.TID 0000.0001)                 2.842706922224558E+05,      /* I =182 */
(PID.TID 0000.0001)                 2.773972106720365E+05,      /* I =183 */
(PID.TID 0000.0001)                 2.692787333338535E+05,      /* I =184 */
(PID.TID 0000.0001)                 2.598293319150326E+05,      /* I =185 */
(PID.TID 0000.0001)                 2.489113743322025E+05,      /* I =186 */
(PID.TID 0000.0001)                 2.363029564123586E+05,      /* I =187 */
(PID.TID 0000.0001)                 2.216367828252819E+05,      /* I =188 */
(PID.TID 0000.0001)                 2.042717761866506E+05,      /* I =189 */
(PID.TID 0000.0001)                 1.829777599966776E+05,      /* I =190 */
(PID.TID 0000.0001)                 1.549545757850771E+05,      /* I =191 */
(PID.TID 0000.0001)                 1.135373000692312E+05       /* I =192 */
(PID.TID 0000.0001)     ;
(PID.TID 0000.0001) dyC =  /* dyC(1,:,1,:) ( units: m ) */
(PID.TID 0000.0001)                 1.135373000692312E+05,      /* J =  1 */
(PID.TID 0000.0001)                 1.391343389937106E+05,      /* J =  2 */
(PID.TID 0000.0001)                 1.709574999026267E+05,      /* J =  3 */
(PID.TID 0000.0001)                 1.946503699269892E+05,      /* J =  4 */
(PID.TID 0000.0001)                 2.135964483342134E+05,      /* J =  5 */
(PID.TID 0000.0001)                 2.294195678257306E+05,      /* J =  6 */
(PID.TID 0000.0001)                 2.429464709770498E+05,      /* J =  7 */
(PID.TID 0000.0001)                 2.546408290696998E+05,      /* J =  8 */
(PID.TID 0000.0001)                 2.647791839299727E+05,      /* J =  9 */
(PID.TID 0000.0001)                 2.735321911346108E+05,      /* J = 10 */
(PID.TID 0000.0001)                 2.810065951609633E+05,      /* J = 11 */
(PID.TID 0000.0001)                 2.872689479506990E+05,      /* J = 12 */
(PID.TID 0000.0001)                 2.923599955312932E+05,      /* J = 13 */
(PID.TID 0000.0001)                 2.963038832565530E+05,      /* J = 14 */
(PID.TID 0000.0001)                 2.991142470004740E+05,      /* J = 15 */
(PID.TID 0000.0001)                 3.007982711627968E+05,      /* J = 16 */
(PID.TID 0000.0001)                 3.013593857228136E+05,      /* J = 17 */
(PID.TID 0000.0001)                 3.007982711627968E+05,      /* J = 18 */
(PID.TID 0000.0001)                 2.991142470004740E+05,      /* J = 19 */
(PID.TID 0000.0001)                 2.963038832565530E+05,      /* J = 20 */
(PID.TID 0000.0001)                 2.923599955312932E+05,      /* J = 21 */
(PID.TID 0000.0001)                 2.872689479506990E+05,      /* J = 22 */
(PID.TID 0000.0001)                 2.810065951609633E+05,      /* J = 23 */
(PID.TID 0000.0001)                 2.735321911346108E+05,      /* J = 24 */
(PID.TID 0000.0001)                 2.647791839299727E+05,      /* J = 25 */
(PID.TID 0000.0001)                 2.546408290696998E+05,      /* J = 26 */
(PID.TID 0000.0001)                 2.429464709770498E+05,      /* J = 27 */
(PID.TID 0000.0001)                 2.294195678257306E+05,      /* J = 28 */
(PID.TID 0000.0001)                 2.135964483342134E+05,      /* J = 29 */
(PID.TID 0000.0001)                 1.946503699269892E+05,      /* J = 30 */
(PID.TID 0000.0001)                 1.709574999026267E+05,      /* J = 31 */
(PID.TID 0000.0001)                 1.391343389937106E+05       /* J = 32 */
(PID.TID 0000.0001)     ;
(PID.TID 0000.0001) dxV =  /* dxV(:,1,:,1) ( units: m ) */
(PID.TID 0000.0001)                 8.015229982413632E+04,      /* I =  1 */
(PID.TID 0000.0001)                 1.333130744933864E+05,      /* I =  2 */
(PID.TID 0000.0001)                 1.691744868129062E+05,      /* I =  3 */
(PID.TID 0000.0001)                 1.937548202849060E+05,      /* I =  4 */
(PID.TID 0000.0001)                 2.130490056267208E+05,      /* I =  5 */
(PID.TID 0000.0001)                 2.290479919481738E+05,      /* I =  6 */
(PID.TID 0000.0001)                 2.426774358027004E+05,      /* I =  7 */
(PID.TID 0000.0001)                 2.544372984215561E+05,      /* I =  8 */
(PID.TID 0000.0001)                 2.646201463834826E+05,      /* I =  9 */
(PID.TID 0000.0001)                 2.734046499619031E+05,      /* I = 10 */
(PID.TID 0000.0001)                 2.809019351693761E+05,      /* I = 11 */
(PID.TID 0000.0001)                 2.871811105274442E+05,      /* I = 12 */
(PID.TID 0000.0001)                 2.922844849381675E+05,      /* I = 13 */
(PID.TID 0000.0001)                 2.962371870847826E+05,      /* I = 14 */
(PID.TID 0000.0001)                 2.990534755671296E+05,      /* I = 15 */
(PID.TID 0000.0001)                 3.007409169495504E+05,      /* I = 16 */
(PID.TID 0000.0001)                 3.013031486919771E+05,      /* I = 17 */
(PID.TID 0000.0001)                 3.007409169495504E+05,      /* I = 18 */
(PID.TID 0000.0001)                 2.990534755671296E+05,      /* I = 19 */
(PID.TID 0000.0001)                 2.962371870847826E+05,      /* I = 20 */
(PID.TID 0000.0001)                 2.922844849381675E+05,      /* I = 21 */
(PID.TID 0000.0001)                 2.871811105274442E+05,      /* I = 22 */
(PID.TID 0000.0001)                 2.809019351693761E+05,      /* I = 23 */
(PID.TID 0000.0001)                 2.734046499619031E+05,      /* I = 24 */
(PID.TID 0000.0001)                 2.646201463834826E+05,      /* I = 25 */
(PID.TID 0000.0001)                 2.544372984215561E+05,      /* I = 26 */
(PID.TID 0000.0001)                 2.426774358027004E+05,      /* I = 27 */
(PID.TID 0000.0001)                 2.290479919481738E+05,      /* I = 28 */
(PID.TID 0000.0001)                 2.130490056267208E+05,      /* I = 29 */
(PID.TID 0000.0001)                 1.937548202849060E+05,      /* I = 30 */
(PID.TID 0000.0001)                 1.691744868129062E+05,      /* I = 31 */
(PID.TID 0000.0001)                 1.333130744933864E+05,      /* I = 32 */
(PID.TID 0000.0001)                 8.015229982413632E+04,      /* I = 33 */
(PID.TID 0000.0001)                 1.333130744933864E+05,      /* I = 34 */
(PID.TID 0000.0001)                 1.691744868129062E+05,      /* I = 35 */
(PID.TID 0000.0001)                 1.937548202849060E+05,      /* I = 36 */
(PID.TID 0000.0001)                 2.130490056267208E+05,      /* I = 37 */
(PID.TID 0000.0001)                 2.290479919481738E+05,      /* I = 38 */
(PID.TID 0000.0001)                 2.426774358027004E+05,      /* I = 39 */
(PID.TID 0000.0001)                 2.544372984215561E+05,      /* I = 40 */
(PID.TID 0000.0001)                 2.646201463834826E+05,      /* I = 41 */
(PID.TID 0000.0001)                 2.734046499619031E+05,      /* I = 42 */
(PID.TID 0000.0001)                 2.809019351693761E+05,      /* I = 43 */
(PID.TID 0000.0001)                 2.871811105274442E+05,      /* I = 44 */
(PID.TID 0000.0001)                 2.922844849381675E+05,      /* I = 45 */
(PID.TID 0000.0001)                 2.962371870847826E+05,      /* I = 46 */
(PID.TID 0000.0001)                 2.990534755671296E+05,      /* I = 47 */
(PID.TID 0000.0001)                 3.007409169495504E+05,      /* I = 48 */
(PID.TID 0000.0001)                 3.013031486919771E+05,      /* I = 49 */
(PID.TID 0000.0001)                 3.007409169495504E+05,      /* I = 50 */
(PID.TID 0000.0001)                 2.990534755671296E+05,      /* I = 51 */
(PID.TID 0000.0001)                 2.962371870847826E+05,      /* I = 52 */
(PID.TID 0000.0001)                 2.922844849381675E+05,      /* I = 53 */
(PID.TID 0000.0001)                 2.871811105274442E+05,      /* I = 54 */
(PID.TID 0000.0001)                 2.809019351693761E+05,      /* I = 55 */
(PID.TID 0000.0001)                 2.734046499619031E+05,      /* I = 56 */
(PID.TID 0000.0001)                 2.646201463834826E+05,      /* I = 57 */
(PID.TID 0000.0001)                 2.544372984215561E+05,      /* I = 58 */
(PID.TID 0000.0001)                 2.426774358027004E+05,      /* I = 59 */
(PID.TID 0000.0001)                 2.290479919481738E+05,      /* I = 60 */
(PID.TID 0000.0001)                 2.130490056267208E+05,      /* I = 61 */
(PID.TID 0000.0001)                 1.937548202849060E+05,      /* I = 62 */
(PID.TID 0000.0001)                 1.691744868129062E+05,      /* I = 63 */
(PID.TID 0000.0001)                 1.333130744933864E+05,      /* I = 64 */
(PID.TID 0000.0001)                 8.015229982413632E+04,      /* I = 65 */
(PID.TID 0000.0001)                 1.333130744933864E+05,      /* I = 66 */
(PID.TID 0000.0001)                 1.691744868129062E+05,      /* I = 67 */
(PID.TID 0000.0001)                 1.937548202849060E+05,      /* I = 68 */
(PID.TID 0000.0001)                 2.130490056267208E+05,      /* I = 69 */
(PID.TID 0000.0001)                 2.290479919481738E+05,      /* I = 70 */
(PID.TID 0000.0001)                 2.426774358027004E+05,      /* I = 71 */
(PID.TID 0000.0001)                 2.544372984215561E+05,      /* I = 72 */
(PID.TID 0000.0001)                 2.646201463834826E+05,      /* I = 73 */
(PID.TID 0000.0001)                 2.734046499619031E+05,      /* I = 74 */
(PID.TID 0000.0001)                 2.809019351693761E+05,      /* I = 75 */
(PID.TID 0000.0001)                 2.871811105274442E+05,      /* I = 76 */
(PID.TID 0000.0001)                 2.922844849381675E+05,      /* I = 77 */
(PID.TID 0000.0001)                 2.962371870847826E+05,      /* I = 78 */
(PID.TID 0000.0001)                 2.990534755671296E+05,      /* I = 79 */
(PID.TID 0000.0001)                 3.007409169495504E+05,      /* I = 80 */
(PID.TID 0000.0001)                 3.013031486919771E+05,      /* I = 81 */
(PID.TID 0000.0001)                 3.007409169495504E+05,      /* I = 82 */
(PID.TID 0000.0001)                 2.990534755671296E+05,      /* I = 83 */
(PID.TID 0000.0001)                 2.962371870847826E+05,      /* I = 84 */
(PID.TID 0000.0001)                 2.922844849381675E+05,      /* I = 85 */
(PID.TID 0000.0001)                 2.871811105274442E+05,      /* I = 86 */
(PID.TID 0000.0001)                 2.809019351693761E+05,      /* I = 87 */
(PID.TID 0000.0001)                 2.734046499619031E+05,      /* I = 88 */
(PID.TID 0000.0001)                 2.646201463834826E+05,      /* I = 89 */
(PID.TID 0000.0001)                 2.544372984215561E+05,      /* I = 90 */
(PID.TID 0000.0001)                 2.426774358027004E+05,      /* I = 91 */
(PID.TID 0000.0001)                 2.290479919481738E+05,      /* I = 92 */
(PID.TID 0000.0001)                 2.130490056267208E+05,      /* I = 93 */
(PID.TID 0000.0001)                 1.937548202849060E+05,      /* I = 94 */
(PID.TID 0000.0001)                 1.691744868129062E+05,      /* I = 95 */
(PID.TID 0000.0001)                 1.333130744933864E+05,      /* I = 96 */
(PID.TID 0000.0001)                 8.015229982413632E+04,      /* I = 97 */
(PID.TID 0000.0001)                 1.333130744933864E+05,      /* I = 98 */
(PID.TID 0000.0001)                 1.691744868129062E+05,      /* I = 99 */
(PID.TID 0000.0001)                 1.937548202849060E+05,      /* I =100 */
(PID.TID 0000.0001)                 2.130490056267208E+05,      /* I =101 */
(PID.TID 0000.0001)                 2.290479919481738E+05,      /* I =102 */
(PID.TID 0000.0001)                 2.426774358027004E+05,      /* I =103 */
(PID.TID 0000.0001)                 2.544372984215561E+05,      /* I =104 */
(PID.TID 0000.0001)                 2.646201463834826E+05,      /* I =105 */
(PID.TID 0000.0001)                 2.734046499619031E+05,      /* I =106 */
(PID.TID 0000.0001)                 2.809019351693761E+05,      /* I =107 */
(PID.TID 0000.0001)                 2.871811105274442E+05,      /* I =108 */
(PID.TID 0000.0001)                 2.922844849381675E+05,      /* I =109 */
(PID.TID 0000.0001)                 2.962371870847826E+05,      /* I =110 */
(PID.TID 0000.0001)                 2.990534755671296E+05,      /* I =111 */
(PID.TID 0000.0001)                 3.007409169495504E+05,      /* I =112 */
(PID.TID 0000.0001)                 3.013031486919771E+05,      /* I =113 */
(PID.TID 0000.0001)                 3.007409169495504E+05,      /* I =114 */
(PID.TID 0000.0001)                 2.990534755671296E+05,      /* I =115 */
(PID.TID 0000.0001)                 2.962371870847826E+05,      /* I =116 */
(PID.TID 0000.0001)                 2.922844849381675E+05,      /* I =117 */
(PID.TID 0000.0001)                 2.871811105274442E+05,      /* I =118 */
(PID.TID 0000.0001)                 2.809019351693761E+05,      /* I =119 */
(PID.TID 0000.0001)                 2.734046499619031E+05,      /* I =120 */
(PID.TID 0000.0001)                 2.646201463834826E+05,      /* I =121 */
(PID.TID 0000.0001)                 2.544372984215561E+05,      /* I =122 */
(PID.TID 0000.0001)                 2.426774358027004E+05,      /* I =123 */
(PID.TID 0000.0001)                 2.290479919481738E+05,      /* I =124 */
(PID.TID 0000.0001)                 2.130490056267208E+05,      /* I =125 */
(PID.TID 0000.0001)                 1.937548202849060E+05,      /* I =126 */
(PID.TID 0000.0001)                 1.691744868129062E+05,      /* I =127 */
(PID.TID 0000.0001)                 1.333130744933864E+05,      /* I =128 */
(PID.TID 0000.0001)                 8.015229982413632E+04,      /* I =129 */
(PID.TID 0000.0001)                 1.333130744933864E+05,      /* I =130 */
(PID.TID 0000.0001)                 1.691744868129062E+05,      /* I =131 */
(PID.TID 0000.0001)                 1.937548202849060E+05,      /* I =132 */
(PID.TID 0000.0001)                 2.130490056267208E+05,      /* I =133 */
(PID.TID 0000.0001)                 2.290479919481738E+05,      /* I =134 */
(PID.TID 0000.0001)                 2.426774358027004E+05,      /* I =135 */
(PID.TID 0000.0001)                 2.544372984215561E+05,      /* I =136 */
(PID.TID 0000.0001)                 2.646201463834826E+05,      /* I =137 */
(PID.TID 0000.0001)                 2.734046499619031E+05,      /* I =138 */
(PID.TID 0000.0001)                 2.809019351693761E+05,      /* I =139 */
(PID.TID 0000.0001)                 2.871811105274442E+05,      /* I =140 */
(PID.TID 0000.0001)                 2.922844849381675E+05,      /* I =141 */
(PID.TID 0000.0001)                 2.962371870847826E+05,      /* I =142 */
(PID.TID 0000.0001)                 2.990534755671296E+05,      /* I =143 */
(PID.TID 0000.0001)                 3.007409169495504E+05,      /* I =144 */
(PID.TID 0000.0001)                 3.013031486919771E+05,      /* I =145 */
(PID.TID 0000.0001)                 3.007409169495504E+05,      /* I =146 */
(PID.TID 0000.0001)                 2.990534755671296E+05,      /* I =147 */
(PID.TID 0000.0001)                 2.962371870847826E+05,      /* I =148 */
(PID.TID 0000.0001)                 2.922844849381675E+05,      /* I =149 */
(PID.TID 0000.0001)                 2.871811105274442E+05,      /* I =150 */
(PID.TID 0000.0001)                 2.809019351693761E+05,      /* I =151 */
(PID.TID 0000.0001)                 2.734046499619031E+05,      /* I =152 */
(PID.TID 0000.0001)                 2.646201463834826E+05,      /* I =153 */
(PID.TID 0000.0001)                 2.544372984215561E+05,      /* I =154 */
(PID.TID 0000.0001)                 2.426774358027004E+05,      /* I =155 */
(PID.TID 0000.0001)                 2.290479919481738E+05,      /* I =156 */
(PID.TID 0000.0001)                 2.130490056267208E+05,      /* I =157 */
(PID.TID 0000.0001)                 1.937548202849060E+05,      /* I =158 */
(PID.TID 0000.0001)                 1.691744868129062E+05,      /* I =159 */
(PID.TID 0000.0001)                 1.333130744933864E+05,      /* I =160 */
(PID.TID 0000.0001)                 8.015229982413632E+04,      /* I =161 */
(PID.TID 0000.0001)                 1.333130744933864E+05,      /* I =162 */
(PID.TID 0000.0001)                 1.691744868129062E+05,      /* I =163 */
(PID.TID 0000.0001)                 1.937548202849060E+05,      /* I =164 */
(PID.TID 0000.0001)                 2.130490056267208E+05,      /* I =165 */
(PID.TID 0000.0001)                 2.290479919481738E+05,      /* I =166 */
(PID.TID 0000.0001)                 2.426774358027004E+05,      /* I =167 */
(PID.TID 0000.0001)                 2.544372984215561E+05,      /* I =168 */
(PID.TID 0000.0001)                 2.646201463834826E+05,      /* I =169 */
(PID.TID 0000.0001)                 2.734046499619031E+05,      /* I =170 */
(PID.TID 0000.0001)                 2.809019351693761E+05,      /* I =171 */
(PID.TID 0000.0001)                 2.871811105274442E+05,      /* I =172 */
(PID.TID 0000.0001)                 2.922844849381675E+05,      /* I =173 */
(PID.TID 0000.0001)                 2.962371870847826E+05,      /* I =174 */
(PID.TID 0000.0001)                 2.990534755671296E+05,      /* I =175 */
(PID.TID 0000.0001)                 3.007409169495504E+05,      /* I =176 */
(PID.TID 0000.0001)                 3.013031486919771E+05,      /* I =177 */
(PID.TID 0000.0001)                 3.007409169495504E+05,      /* I =178 */
(PID.TID 0000.0001)                 2.990534755671296E+05,      /* I =179 */
(PID.TID 0000.0001)                 2.962371870847826E+05,      /* I =180 */
(PID.TID 0000.0001)                 2.922844849381675E+05,      /* I =181 */
(PID.TID 0000.0001)                 2.871811105274442E+05,      /* I =182 */
(PID.TID 0000.0001)                 2.809019351693761E+05,      /* I =183 */
(PID.TID 0000.0001)                 2.734046499619031E+05,      /* I =184 */
(PID.TID 0000.0001)                 2.646201463834826E+05,      /* I =185 */
(PID.TID 0000.0001)                 2.544372984215561E+05,      /* I =186 */
(PID.TID 0000.0001)                 2.426774358027004E+05,      /* I =187 */
(PID.TID 0000.0001)                 2.290479919481738E+05,      /* I =188 */
(PID.TID 0000.0001)                 2.130490056267208E+05,      /* I =189 */
(PID.TID 0000.0001)                 1.937548202849060E+05,      /* I =190 */
(PID.TID 0000.0001)                 1.691744868129062E+05,      /* I =191 */
(PID.TID 0000.0001)                 1.333130744933864E+05       /* I =192 */
(PID.TID 0000.0001)     ;
(PID.TID 0000.0001) dxV =  /* dxV(1,:,1,:) ( units: m ) */
(PID.TID 0000.0001)                 8.015229982413632E+04,      /* J =  1 */
(PID.TID 0000.0001)                 1.362652340208229E+05,      /* J =  2 */
(PID.TID 0000.0001)                 1.701080315742101E+05,      /* J =  3 */
(PID.TID 0000.0001)                 1.942331448101592E+05,      /* J =  4 */
(PID.TID 0000.0001)                 2.133486626971531E+05,      /* J =  5 */
(PID.TID 0000.0001)                 2.292584591272880E+05,      /* J =  6 */
(PID.TID 0000.0001)                 2.428369969078989E+05,      /* J =  7 */
(PID.TID 0000.0001)                 2.545652950875683E+05,      /* J =  8 */
(PID.TID 0000.0001)                 2.647274964828302E+05,      /* J =  9 */
(PID.TID 0000.0001)                 2.734980225206389E+05,      /* J = 10 */
(PID.TID 0000.0001)                 2.809856491525217E+05,      /* J = 11 */
(PID.TID 0000.0001)                 2.872580915202295E+05,      /* J = 12 */
(PID.TID 0000.0001)                 2.923567890694162E+05,      /* J = 13 */
(PID.TID 0000.0001)                 2.963063101754721E+05,      /* J = 14 */
(PID.TID 0000.0001)                 2.991205495886625E+05,      /* J = 15 */
(PID.TID 0000.0001)                 3.008068453676764E+05,      /* J = 16 */
(PID.TID 0000.0001)                 3.013686170436881E+05,      /* J = 17 */
(PID.TID 0000.0001)                 3.008068453676764E+05,      /* J = 18 */
(PID.TID 0000.0001)                 2.991205495886625E+05,      /* J = 19 */
(PID.TID 0000.0001)                 2.963063101754721E+05,      /* J = 20 */
(PID.TID 0000.0001)                 2.923567890694162E+05,      /* J = 21 */
(PID.TID 0000.0001)                 2.872580915202295E+05,      /* J = 22 */
(PID.TID 0000.0001)                 2.809856491525217E+05,      /* J = 23 */
(PID.TID 0000.0001)                 2.734980225206389E+05,      /* J = 24 */
(PID.TID 0000.0001)                 2.647274964828302E+05,      /* J = 25 */
(PID.TID 0000.0001)                 2.545652950875683E+05,      /* J = 26 */
(PID.TID 0000.0001)                 2.428369969078989E+05,      /* J = 27 */
(PID.TID 0000.0001)                 2.292584591272880E+05,      /* J = 28 */
(PID.TID 0000.0001)                 2.133486626971531E+05,      /* J = 29 */
(PID.TID 0000.0001)                 1.942331448101592E+05,      /* J = 30 */
(PID.TID 0000.0001)                 1.701080315742101E+05,      /* J = 31 */
(PID.TID 0000.0001)                 1.362652340208229E+05       /* J = 32 */
(PID.TID 0000.0001)     ;
(PID.TID 0000.0001) dyU =  /* dyU(:,1,:,1) ( units: m ) */
(PID.TID 0000.0001)                 8.015229982413632E+04,      /* I =  1 */
(PID.TID 0000.0001)                 1.362652340208229E+05,      /* I =  2 */
(PID.TID 0000.0001)                 1.701080315742101E+05,      /* I =  3 */
(PID.TID 0000.0001)                 1.942331448101592E+05,      /* I =  4 */
(PID.TID 0000.0001)                 2.133486626971531E+05,      /* I =  5 */
(PID.TID 0000.0001)                 2.292584591272880E+05,      /* I =  6 */
(PID.TID 0000.0001)                 2.428369969078989E+05,      /* I =  7 */
(PID.TID 0000.0001)                 2.545652950875683E+05,      /* I =  8 */
(PID.TID 0000.0001)                 2.647274964828302E+05,      /* I =  9 */
(PID.TID 0000.0001)                 2.734980225206389E+05,      /* I = 10 */
(PID.TID 0000.0001)                 2.809856491525217E+05,      /* I = 11 */
(PID.TID 0000.0001)                 2.872580915202295E+05,      /* I = 12 */
(PID.TID 0000.0001)                 2.923567890694162E+05,      /* I = 13 */
(PID.TID 0000.0001)                 2.963063101754721E+05,      /* I = 14 */
(PID.TID 0000.0001)                 2.991205495886625E+05,      /* I = 15 */
(PID.TID 0000.0001)                 3.008068453676764E+05,      /* I = 16 */
(PID.TID 0000.0001)                 3.013686170436881E+05,      /* I = 17 */
(PID.TID 0000.0001)                 3.008068453676764E+05,      /* I = 18 */
(PID.TID 0000.0001)                 2.991205495886625E+05,      /* I = 19 */
(PID.TID 0000.0001)                 2.963063101754721E+05,      /* I = 20 */
(PID.TID 0000.0001)                 2.923567890694162E+05,      /* I = 21 */
(PID.TID 0000.0001)                 2.872580915202295E+05,      /* I = 22 */
(PID.TID 0000.0001)                 2.809856491525217E+05,      /* I = 23 */
(PID.TID 0000.0001)                 2.734980225206389E+05,      /* I = 24 */
(PID.TID 0000.0001)                 2.647274964828302E+05,      /* I = 25 */
(PID.TID 0000.0001)                 2.545652950875683E+05,      /* I = 26 */
(PID.TID 0000.0001)                 2.428369969078989E+05,      /* I = 27 */
(PID.TID 0000.0001)                 2.292584591272880E+05,      /* I = 28 */
(PID.TID 0000.0001)                 2.133486626971531E+05,      /* I = 29 */
(PID.TID 0000.0001)                 1.942331448101592E+05,      /* I = 30 */
(PID.TID 0000.0001)                 1.701080315742101E+05,      /* I = 31 */
(PID.TID 0000.0001)                 1.362652340208229E+05,      /* I = 32 */
(PID.TID 0000.0001)                 8.015229982413632E+04,      /* I = 33 */
(PID.TID 0000.0001)                 1.362652340208229E+05,      /* I = 34 */
(PID.TID 0000.0001)                 1.701080315742101E+05,      /* I = 35 */
(PID.TID 0000.0001)                 1.942331448101592E+05,      /* I = 36 */
(PID.TID 0000.0001)                 2.133486626971531E+05,      /* I = 37 */
(PID.TID 0000.0001)                 2.292584591272880E+05,      /* I = 38 */
(PID.TID 0000.0001)                 2.428369969078989E+05,      /* I = 39 */
(PID.TID 0000.0001)                 2.545652950875683E+05,      /* I = 40 */
(PID.TID 0000.0001)                 2.647274964828302E+05,      /* I = 41 */
(PID.TID 0000.0001)                 2.734980225206389E+05,      /* I = 42 */
(PID.TID 0000.0001)                 2.809856491525217E+05,      /* I = 43 */
(PID.TID 0000.0001)                 2.872580915202295E+05,      /* I = 44 */
(PID.TID 0000.0001)                 2.923567890694162E+05,      /* I = 45 */
(PID.TID 0000.0001)                 2.963063101754721E+05,      /* I = 46 */
(PID.TID 0000.0001)                 2.991205495886625E+05,      /* I = 47 */
(PID.TID 0000.0001)                 3.008068453676764E+05,      /* I = 48 */
(PID.TID 0000.0001)                 3.013686170436881E+05,      /* I = 49 */
(PID.TID 0000.0001)                 3.008068453676764E+05,      /* I = 50 */
(PID.TID 0000.0001)                 2.991205495886625E+05,      /* I = 51 */
(PID.TID 0000.0001)                 2.963063101754721E+05,      /* I = 52 */
(PID.TID 0000.0001)                 2.923567890694162E+05,      /* I = 53 */
(PID.TID 0000.0001)                 2.872580915202295E+05,      /* I = 54 */
(PID.TID 0000.0001)                 2.809856491525217E+05,      /* I = 55 */
(PID.TID 0000.0001)                 2.734980225206389E+05,      /* I = 56 */
(PID.TID 0000.0001)                 2.647274964828302E+05,      /* I = 57 */
(PID.TID 0000.0001)                 2.545652950875683E+05,      /* I = 58 */
(PID.TID 0000.0001)                 2.428369969078989E+05,      /* I = 59 */
(PID.TID 0000.0001)                 2.292584591272880E+05,      /* I = 60 */
(PID.TID 0000.0001)                 2.133486626971531E+05,      /* I = 61 */
(PID.TID 0000.0001)                 1.942331448101592E+05,      /* I = 62 */
(PID.TID 0000.0001)                 1.701080315742101E+05,      /* I = 63 */
(PID.TID 0000.0001)                 1.362652340208229E+05,      /* I = 64 */
(PID.TID 0000.0001)                 8.015229982413632E+04,      /* I = 65 */
(PID.TID 0000.0001)                 1.362652340208229E+05,      /* I = 66 */
(PID.TID 0000.0001)                 1.701080315742101E+05,      /* I = 67 */
(PID.TID 0000.0001)                 1.942331448101592E+05,      /* I = 68 */
(PID.TID 0000.0001)                 2.133486626971531E+05,      /* I = 69 */
(PID.TID 0000.0001)                 2.292584591272880E+05,      /* I = 70 */
(PID.TID 0000.0001)                 2.428369969078989E+05,      /* I = 71 */
(PID.TID 0000.0001)                 2.545652950875683E+05,      /* I = 72 */
(PID.TID 0000.0001)                 2.647274964828302E+05,      /* I = 73 */
(PID.TID 0000.0001)                 2.734980225206389E+05,      /* I = 74 */
(PID.TID 0000.0001)                 2.809856491525217E+05,      /* I = 75 */
(PID.TID 0000.0001)                 2.872580915202295E+05,      /* I = 76 */
(PID.TID 0000.0001)                 2.923567890694162E+05,      /* I = 77 */
(PID.TID 0000.0001)                 2.963063101754721E+05,      /* I = 78 */
(PID.TID 0000.0001)                 2.991205495886625E+05,      /* I = 79 */
(PID.TID 0000.0001)                 3.008068453676764E+05,      /* I = 80 */
(PID.TID 0000.0001)                 3.013686170436881E+05,      /* I = 81 */
(PID.TID 0000.0001)                 3.008068453676764E+05,      /* I = 82 */
(PID.TID 0000.0001)                 2.991205495886625E+05,      /* I = 83 */
(PID.TID 0000.0001)                 2.963063101754721E+05,      /* I = 84 */
(PID.TID 0000.0001)                 2.923567890694162E+05,      /* I = 85 */
(PID.TID 0000.0001)                 2.872580915202295E+05,      /* I = 86 */
(PID.TID 0000.0001)                 2.809856491525217E+05,      /* I = 87 */
(PID.TID 0000.0001)                 2.734980225206389E+05,      /* I = 88 */
(PID.TID 0000.0001)                 2.647274964828302E+05,      /* I = 89 */
(PID.TID 0000.0001)                 2.545652950875683E+05,      /* I = 90 */
(PID.TID 0000.0001)                 2.428369969078989E+05,      /* I = 91 */
(PID.TID 0000.0001)                 2.292584591272880E+05,      /* I = 92 */
(PID.TID 0000.0001)                 2.133486626971531E+05,      /* I = 93 */
(PID.TID 0000.0001)                 1.942331448101592E+05,      /* I = 94 */
(PID.TID 0000.0001)                 1.701080315742101E+05,      /* I = 95 */
(PID.TID 0000.0001)                 1.362652340208229E+05,      /* I = 96 */
(PID.TID 0000.0001)                 8.015229982413632E+04,      /* I = 97 */
(PID.TID 0000.0001)                 1.362652340208229E+05,      /* I = 98 */
(PID.TID 0000.0001)                 1.701080315742101E+05,      /* I = 99 */
(PID.TID 0000.0001)                 1.942331448101592E+05,      /* I =100 */
(PID.TID 0000.0001)                 2.133486626971531E+05,      /* I =101 */
(PID.TID 0000.0001)                 2.292584591272880E+05,      /* I =102 */
(PID.TID 0000.0001)                 2.428369969078989E+05,      /* I =103 */
(PID.TID 0000.0001)                 2.545652950875683E+05,      /* I =104 */
(PID.TID 0000.0001)                 2.647274964828302E+05,      /* I =105 */
(PID.TID 0000.0001)                 2.734980225206389E+05,      /* I =106 */
(PID.TID 0000.0001)                 2.809856491525217E+05,      /* I =107 */
(PID.TID 0000.0001)                 2.872580915202295E+05,      /* I =108 */
(PID.TID 0000.0001)                 2.923567890694162E+05,      /* I =109 */
(PID.TID 0000.0001)                 2.963063101754721E+05,      /* I =110 */
(PID.TID 0000.0001)                 2.991205495886625E+05,      /* I =111 */
(PID.TID 0000.0001)                 3.008068453676764E+05,      /* I =112 */
(PID.TID 0000.0001)                 3.013686170436881E+05,      /* I =113 */
(PID.TID 0000.0001)                 3.008068453676764E+05,      /* I =114 */
(PID.TID 0000.0001)                 2.991205495886625E+05,      /* I =115 */
(PID.TID 0000.0001)                 2.963063101754721E+05,      /* I =116 */
(PID.TID 0000.0001)                 2.923567890694162E+05,      /* I =117 */
(PID.TID 0000.0001)                 2.872580915202295E+05,      /* I =118 */
(PID.TID 0000.0001)                 2.809856491525217E+05,      /* I =119 */
(PID.TID 0000.0001)                 2.734980225206389E+05,      /* I =120 */
(PID.TID 0000.0001)                 2.647274964828302E+05,      /* I =121 */
(PID.TID 0000.0001)                 2.545652950875683E+05,      /* I =122 */
(PID.TID 0000.0001)                 2.428369969078989E+05,      /* I =123 */
(PID.TID 0000.0001)                 2.292584591272880E+05,      /* I =124 */
(PID.TID 0000.0001)                 2.133486626971531E+05,      /* I =125 */
(PID.TID 0000.0001)                 1.942331448101592E+05,      /* I =126 */
(PID.TID 0000.0001)                 1.701080315742101E+05,      /* I =127 */
(PID.TID 0000.0001)                 1.362652340208229E+05,      /* I =128 */
(PID.TID 0000.0001)                 8.015229982413632E+04,      /* I =129 */
(PID.TID 0000.0001)                 1.362652340208229E+05,      /* I =130 */
(PID.TID 0000.0001)                 1.701080315742101E+05,      /* I =131 */
(PID.TID 0000.0001)                 1.942331448101592E+05,      /* I =132 */
(PID.TID 0000.0001)                 2.133486626971531E+05,      /* I =133 */
(PID.TID 0000.0001)                 2.292584591272880E+05,      /* I =134 */
(PID.TID 0000.0001)                 2.428369969078989E+05,      /* I =135 */
(PID.TID 0000.0001)                 2.545652950875683E+05,      /* I =136 */
(PID.TID 0000.0001)                 2.647274964828302E+05,      /* I =137 */
(PID.TID 0000.0001)                 2.734980225206389E+05,      /* I =138 */
(PID.TID 0000.0001)                 2.809856491525217E+05,      /* I =139 */
(PID.TID 0000.0001)                 2.872580915202295E+05,      /* I =140 */
(PID.TID 0000.0001)                 2.923567890694162E+05,      /* I =141 */
(PID.TID 0000.0001)                 2.963063101754721E+05,      /* I =142 */
(PID.TID 0000.0001)                 2.991205495886625E+05,      /* I =143 */
(PID.TID 0000.0001)                 3.008068453676764E+05,      /* I =144 */
(PID.TID 0000.0001)                 3.013686170436881E+05,      /* I =145 */
(PID.TID 0000.0001)                 3.008068453676764E+05,      /* I =146 */
(PID.TID 0000.0001)                 2.991205495886625E+05,      /* I =147 */
(PID.TID 0000.0001)                 2.963063101754721E+05,      /* I =148 */
(PID.TID 0000.0001)                 2.923567890694162E+05,      /* I =149 */
(PID.TID 0000.0001)                 2.872580915202295E+05,      /* I =150 */
(PID.TID 0000.0001)                 2.809856491525217E+05,      /* I =151 */
(PID.TID 0000.0001)                 2.734980225206389E+05,      /* I =152 */
(PID.TID 0000.0001)                 2.647274964828302E+05,      /* I =153 */
(PID.TID 0000.0001)                 2.545652950875683E+05,      /* I =154 */
(PID.TID 0000.0001)                 2.428369969078989E+05,      /* I =155 */
(PID.TID 0000.0001)                 2.292584591272880E+05,      /* I =156 */
(PID.TID 0000.0001)                 2.133486626971531E+05,      /* I =157 */
(PID.TID 0000.0001)                 1.942331448101592E+05,      /* I =158 */
(PID.TID 0000.0001)                 1.701080315742101E+05,      /* I =159 */
(PID.TID 0000.0001)                 1.362652340208229E+05,      /* I =160 */
(PID.TID 0000.0001)                 8.015229982413632E+04,      /* I =161 */
(PID.TID 0000.0001)                 1.362652340208229E+05,      /* I =162 */
(PID.TID 0000.0001)                 1.701080315742101E+05,      /* I =163 */
(PID.TID 0000.0001)                 1.942331448101592E+05,      /* I =164 */
(PID.TID 0000.0001)                 2.133486626971531E+05,      /* I =165 */
(PID.TID 0000.0001)                 2.292584591272880E+05,      /* I =166 */
(PID.TID 0000.0001)                 2.428369969078989E+05,      /* I =167 */
(PID.TID 0000.0001)                 2.545652950875683E+05,      /* I =168 */
(PID.TID 0000.0001)                 2.647274964828302E+05,      /* I =169 */
(PID.TID 0000.0001)                 2.734980225206389E+05,      /* I =170 */
(PID.TID 0000.0001)                 2.809856491525217E+05,      /* I =171 */
(PID.TID 0000.0001)                 2.872580915202295E+05,      /* I =172 */
(PID.TID 0000.0001)                 2.923567890694162E+05,      /* I =173 */
(PID.TID 0000.0001)                 2.963063101754721E+05,      /* I =174 */
(PID.TID 0000.0001)                 2.991205495886625E+05,      /* I =175 */
(PID.TID 0000.0001)                 3.008068453676764E+05,      /* I =176 */
(PID.TID 0000.0001)                 3.013686170436881E+05,      /* I =177 */
(PID.TID 0000.0001)                 3.008068453676764E+05,      /* I =178 */
(PID.TID 0000.0001)                 2.991205495886625E+05,      /* I =179 */
(PID.TID 0000.0001)                 2.963063101754721E+05,      /* I =180 */
(PID.TID 0000.0001)                 2.923567890694162E+05,      /* I =181 */
(PID.TID 0000.0001)                 2.872580915202295E+05,      /* I =182 */
(PID.TID 0000.0001)                 2.809856491525217E+05,      /* I =183 */
(PID.TID 0000.0001)                 2.734980225206389E+05,      /* I =184 */
(PID.TID 0000.0001)                 2.647274964828302E+05,      /* I =185 */
(PID.TID 0000.0001)                 2.545652950875683E+05,      /* I =186 */
(PID.TID 0000.0001)                 2.428369969078989E+05,      /* I =187 */
(PID.TID 0000.0001)                 2.292584591272880E+05,      /* I =188 */
(PID.TID 0000.0001)                 2.133486626971531E+05,      /* I =189 */
(PID.TID 0000.0001)                 1.942331448101592E+05,      /* I =190 */
(PID.TID 0000.0001)                 1.701080315742101E+05,      /* I =191 */
(PID.TID 0000.0001)                 1.362652340208229E+05       /* I =192 */
(PID.TID 0000.0001)     ;
(PID.TID 0000.0001) dyU =  /* dyU(1,:,1,:) ( units: m ) */
(PID.TID 0000.0001)                 8.015229982413632E+04,      /* J =  1 */
(PID.TID 0000.0001)                 1.333130744933864E+05,      /* J =  2 */
(PID.TID 0000.0001)                 1.691744868129062E+05,      /* J =  3 */
(PID.TID 0000.0001)                 1.937548202849060E+05,      /* J =  4 */
(PID.TID 0000.0001)                 2.130490056267208E+05,      /* J =  5 */
(PID.TID 0000.0001)                 2.290479919481738E+05,      /* J =  6 */
(PID.TID 0000.0001)                 2.426774358027004E+05,      /* J =  7 */
(PID.TID 0000.0001)                 2.544372984215561E+05,      /* J =  8 */
(PID.TID 0000.0001)                 2.646201463834826E+05,      /* J =  9 */
(PID.TID 0000.0001)                 2.734046499619031E+05,      /* J = 10 */
(PID.TID 0000.0001)                 2.809019351693761E+05,      /* J = 11 */
(PID.TID 0000.0001)                 2.871811105274442E+05,      /* J = 12 */
(PID.TID 0000.0001)                 2.922844849381675E+05,      /* J = 13 */
(PID.TID 0000.0001)                 2.962371870847826E+05,      /* J = 14 */
(PID.TID 0000.0001)                 2.990534755671296E+05,      /* J = 15 */
(PID.TID 0000.0001)                 3.007409169495504E+05,      /* J = 16 */
(PID.TID 0000.0001)                 3.013031486919771E+05,      /* J = 17 */
(PID.TID 0000.0001)                 3.007409169495504E+05,      /* J = 18 */
(PID.TID 0000.0001)                 2.990534755671296E+05,      /* J = 19 */
(PID.TID 0000.0001)                 2.962371870847826E+05,      /* J = 20 */
(PID.TID 0000.0001)                 2.922844849381675E+05,      /* J = 21 */
(PID.TID 0000.0001)                 2.871811105274442E+05,      /* J = 22 */
(PID.TID 0000.0001)                 2.809019351693761E+05,      /* J = 23 */
(PID.TID 0000.0001)                 2.734046499619031E+05,      /* J = 24 */
(PID.TID 0000.0001)                 2.646201463834826E+05,      /* J = 25 */
(PID.TID 0000.0001)                 2.544372984215561E+05,      /* J = 26 */
(PID.TID 0000.0001)                 2.426774358027004E+05,      /* J = 27 */
(PID.TID 0000.0001)                 2.290479919481738E+05,      /* J = 28 */
(PID.TID 0000.0001)                 2.130490056267208E+05,      /* J = 29 */
(PID.TID 0000.0001)                 1.937548202849060E+05,      /* J = 30 */
(PID.TID 0000.0001)                 1.691744868129062E+05,      /* J = 31 */
(PID.TID 0000.0001)                 1.333130744933864E+05       /* J = 32 */
(PID.TID 0000.0001)     ;
(PID.TID 0000.0001) rA  =  /* rA (:,1,:,1) ( units: m^2 ) */
(PID.TID 0000.0001)                 1.549786705672200E+10,      /* I =  1 */
(PID.TID 0000.0001)                 2.487202533723945E+10,      /* I =  2 */
(PID.TID 0000.0001)                 3.392265412140352E+10,      /* I =  3 */
(PID.TID 0000.0001)                 4.200427377313133E+10,      /* I =  4 */
(PID.TID 0000.0001)                 4.931323764668228E+10,      /* I =  5 */
(PID.TID 0000.0001)                 5.597545074899420E+10,      /* I =  6 */
(PID.TID 0000.0001)                 6.205603937791459E+10,      /* I =  7 */
(PID.TID 0000.0001)                 6.758299971934573E+10,      /* I =  8 */
(PID.TID 0000.0001)                 7.256155653843707E+10,      /* I =  9 */
(PID.TID 0000.0001)                 7.698291833687604E+10,      /* I = 10 */
(PID.TID 0000.0001)                 8.083005486272009E+10,      /* I = 11 */
(PID.TID 0000.0001)                 8.408183191745641E+10,      /* I = 12 */
(PID.TID 0000.0001)                 8.671615787312848E+10,      /* I = 13 */
(PID.TID 0000.0001)                 8.871245486529788E+10,      /* I = 14 */
(PID.TID 0000.0001)                 9.005359372079962E+10,      /* I = 15 */
(PID.TID 0000.0001)     2 @  9.072735712796770E+10,             /* I = 16: 17 */
(PID.TID 0000.0001)                 9.005359372079962E+10,      /* I = 18 */
(PID.TID 0000.0001)                 8.871245486529788E+10,      /* I = 19 */
(PID.TID 0000.0001)                 8.671615787312848E+10,      /* I = 20 */
(PID.TID 0000.0001)                 8.408183191745641E+10,      /* I = 21 */
(PID.TID 0000.0001)                 8.083005486272009E+10,      /* I = 22 */
(PID.TID 0000.0001)                 7.698291833687604E+10,      /* I = 23 */
(PID.TID 0000.0001)                 7.256155653843707E+10,      /* I = 24 */
(PID.TID 0000.0001)                 6.758299971934573E+10,      /* I = 25 */
(PID.TID 0000.0001)                 6.205603937791459E+10,      /* I = 26 */
(PID.TID 0000.0001)                 5.597545074899420E+10,      /* I = 27 */
(PID.TID 0000.0001)                 4.931323764668228E+10,      /* I = 28 */
(PID.TID 0000.0001)                 4.200427377313133E+10,      /* I = 29 */
(PID.TID 0000.0001)                 3.392265412140352E+10,      /* I = 30 */
(PID.TID 0000.0001)                 2.487202533723945E+10,      /* I = 31 */
(PID.TID 0000.0001)     2 @  1.549786705672200E+10,             /* I = 32: 33 */
(PID.TID 0000.0001)                 2.487202533723945E+10,      /* I = 34 */
(PID.TID 0000.0001)                 3.392265412140352E+10,      /* I = 35 */
(PID.TID 0000.0001)                 4.200427377313133E+10,      /* I = 36 */
(PID.TID 0000.0001)                 4.931323764668228E+10,      /* I = 37 */
(PID.TID 0000.0001)                 5.597545074899420E+10,      /* I = 38 */
(PID.TID 0000.0001)                 6.205603937791459E+10,      /* I = 39 */
(PID.TID 0000.0001)                 6.758299971934573E+10,      /* I = 40 */
(PID.TID 0000.0001)                 7.256155653843707E+10,      /* I = 41 */
(PID.TID 0000.0001)                 7.698291833687604E+10,      /* I = 42 */
(PID.TID 0000.0001)                 8.083005486272009E+10,      /* I = 43 */
(PID.TID 0000.0001)                 8.408183191745641E+10,      /* I = 44 */
(PID.TID 0000.0001)                 8.671615787312848E+10,      /* I = 45 */
(PID.TID 0000.0001)                 8.871245486529788E+10,      /* I = 46 */
(PID.TID 0000.0001)                 9.005359372079962E+10,      /* I = 47 */
(PID.TID 0000.0001)     2 @  9.072735712796770E+10,             /* I = 48: 49 */
(PID.TID 0000.0001)                 9.005359372079962E+10,      /* I = 50 */
(PID.TID 0000.0001)                 8.871245486529788E+10,      /* I = 51 */
(PID.TID 0000.0001)                 8.671615787312848E+10,      /* I = 52 */
(PID.TID 0000.0001)                 8.408183191745641E+10,      /* I = 53 */
(PID.TID 0000.0001)                 8.083005486272009E+10,      /* I = 54 */
(PID.TID 0000.0001)                 7.698291833687604E+10,      /* I = 55 */
(PID.TID 0000.0001)                 7.256155653843707E+10,      /* I = 56 */
(PID.TID 0000.0001)                 6.758299971934573E+10,      /* I = 57 */
(PID.TID 0000.0001)                 6.205603937791459E+10,      /* I = 58 */
(PID.TID 0000.0001)                 5.597545074899420E+10,      /* I = 59 */
(PID.TID 0000.0001)                 4.931323764668228E+10,      /* I = 60 */
(PID.TID 0000.0001)                 4.200427377313133E+10,      /* I = 61 */
(PID.TID 0000.0001)                 3.392265412140352E+10,      /* I = 62 */
(PID.TID 0000.0001)                 2.487202533723945E+10,      /* I = 63 */
(PID.TID 0000.0001)     2 @  1.549786705672200E+10,             /* I = 64: 65 */
(PID.TID 0000.0001)                 2.487202533723945E+10,      /* I = 66 */
(PID.TID 0000.0001)                 3.392265412140352E+10,      /* I = 67 */
(PID.TID 0000.0001)                 4.200427377313133E+10,      /* I = 68 */
(PID.TID 0000.0001)                 4.931323764668228E+10,      /* I = 69 */
(PID.TID 0000.0001)                 5.597545074899420E+10,      /* I = 70 */
(PID.TID 0000.0001)                 6.205603937791459E+10,      /* I = 71 */
(PID.TID 0000.0001)                 6.758299971934573E+10,      /* I = 72 */
(PID.TID 0000.0001)                 7.256155653843707E+10,      /* I = 73 */
(PID.TID 0000.0001)                 7.698291833687604E+10,      /* I = 74 */
(PID.TID 0000.0001)                 8.083005486272009E+10,      /* I = 75 */
(PID.TID 0000.0001)                 8.408183191745641E+10,      /* I = 76 */
(PID.TID 0000.0001)                 8.671615787312848E+10,      /* I = 77 */
(PID.TID 0000.0001)                 8.871245486529788E+10,      /* I = 78 */
(PID.TID 0000.0001)                 9.005359372079962E+10,      /* I = 79 */
(PID.TID 0000.0001)     2 @  9.072735712796770E+10,             /* I = 80: 81 */
(PID.TID 0000.0001)                 9.005359372079962E+10,      /* I = 82 */
(PID.TID 0000.0001)                 8.871245486529788E+10,      /* I = 83 */
(PID.TID 0000.0001)                 8.671615787312848E+10,      /* I = 84 */
(PID.TID 0000.0001)                 8.408183191745641E+10,      /* I = 85 */
(PID.TID 0000.0001)                 8.083005486272009E+10,      /* I = 86 */
(PID.TID 0000.0001)                 7.698291833687604E+10,      /* I = 87 */
(PID.TID 0000.0001)                 7.256155653843707E+10,      /* I = 88 */
(PID.TID 0000.0001)                 6.758299971934573E+10,      /* I = 89 */
(PID.TID 0000.0001)                 6.205603937791459E+10,      /* I = 90 */
(PID.TID 0000.0001)                 5.597545074899420E+10,      /* I = 91 */
(PID.TID 0000.0001)                 4.931323764668228E+10,      /* I = 92 */
(PID.TID 0000.0001)                 4.200427377313133E+10,      /* I = 93 */
(PID.TID 0000.0001)                 3.392265412140352E+10,      /* I = 94 */
(PID.TID 0000.0001)                 2.487202533723945E+10,      /* I = 95 */
(PID.TID 0000.0001)     2 @  1.549786705672200E+10,             /* I = 96: 97 */
(PID.TID 0000.0001)                 2.487202533723945E+10,      /* I = 98 */
(PID.TID 0000.0001)                 3.392265412140352E+10,      /* I = 99 */
(PID.TID 0000.0001)                 4.200427377313133E+10,      /* I =100 */
(PID.TID 0000.0001)                 4.931323764668228E+10,      /* I =101 */
(PID.TID 0000.0001)                 5.597545074899420E+10,      /* I =102 */
(PID.TID 0000.0001)                 6.205603937791459E+10,      /* I =103 */
(PID.TID 0000.0001)                 6.758299971934573E+10,      /* I =104 */
(PID.TID 0000.0001)                 7.256155653843707E+10,      /* I =105 */
(PID.TID 0000.0001)                 7.698291833687604E+10,      /* I =106 */
(PID.TID 0000.0001)                 8.083005486272009E+10,      /* I =107 */
(PID.TID 0000.0001)                 8.408183191745641E+10,      /* I =108 */
(PID.TID 0000.0001)                 8.671615787312848E+10,      /* I =109 */
(PID.TID 0000.0001)                 8.871245486529788E+10,      /* I =110 */
(PID.TID 0000.0001)                 9.005359372079962E+10,      /* I =111 */
(PID.TID 0000.0001)     2 @  9.072735712796770E+10,             /* I =112:113 */
(PID.TID 0000.0001)                 9.005359372079962E+10,      /* I =114 */
(PID.TID 0000.0001)                 8.871245486529788E+10,      /* I =115 */
(PID.TID 0000.0001)                 8.671615787312848E+10,      /* I =116 */
(PID.TID 0000.0001)                 8.408183191745641E+10,      /* I =117 */
(PID.TID 0000.0001)                 8.083005486272009E+10,      /* I =118 */
(PID.TID 0000.0001)                 7.698291833687604E+10,      /* I =119 */
(PID.TID 0000.0001)                 7.256155653843707E+10,      /* I =120 */
(PID.TID 0000.0001)                 6.758299971934573E+10,      /* I =121 */
(PID.TID 0000.0001)                 6.205603937791459E+10,      /* I =122 */
(PID.TID 0000.0001)                 5.597545074899420E+10,      /* I =123 */
(PID.TID 0000.0001)                 4.931323764668228E+10,      /* I =124 */
(PID.TID 0000.0001)                 4.200427377313133E+10,      /* I =125 */
(PID.TID 0000.0001)                 3.392265412140352E+10,      /* I =126 */
(PID.TID 0000.0001)                 2.487202533723945E+10,      /* I =127 */
(PID.TID 0000.0001)     2 @  1.549786705672200E+10,             /* I =128:129 */
(PID.TID 0000.0001)                 2.487202533723945E+10,      /* I =130 */
(PID.TID 0000.0001)                 3.392265412140352E+10,      /* I =131 */
(PID.TID 0000.0001)                 4.200427377313133E+10,      /* I =132 */
(PID.TID 0000.0001)                 4.931323764668228E+10,      /* I =133 */
(PID.TID 0000.0001)                 5.597545074899420E+10,      /* I =134 */
(PID.TID 0000.0001)                 6.205603937791459E+10,      /* I =135 */
(PID.TID 0000.0001)                 6.758299971934573E+10,      /* I =136 */
(PID.TID 0000.0001)                 7.256155653843707E+10,      /* I =137 */
(PID.TID 0000.0001)                 7.698291833687604E+10,      /* I =138 */
(PID.TID 0000.0001)                 8.083005486272009E+10,      /* I =139 */
(PID.TID 0000.0001)                 8.408183191745641E+10,      /* I =140 */
(PID.TID 0000.0001)                 8.671615787312848E+10,      /* I =141 */
(PID.TID 0000.0001)                 8.871245486529788E+10,      /* I =142 */
(PID.TID 0000.0001)                 9.005359372079962E+10,      /* I =143 */
(PID.TID 0000.0001)     2 @  9.072735712796770E+10,             /* I =144:145 */
(PID.TID 0000.0001)                 9.005359372079962E+10,      /* I =146 */
(PID.TID 0000.0001)                 8.871245486529788E+10,      /* I =147 */
(PID.TID 0000.0001)                 8.671615787312848E+10,      /* I =148 */
(PID.TID 0000.0001)                 8.408183191745641E+10,      /* I =149 */
(PID.TID 0000.0001)                 8.083005486272009E+10,      /* I =150 */
(PID.TID 0000.0001)                 7.698291833687604E+10,      /* I =151 */
(PID.TID 0000.0001)                 7.256155653843707E+10,      /* I =152 */
(PID.TID 0000.0001)                 6.758299971934573E+10,      /* I =153 */
(PID.TID 0000.0001)                 6.205603937791459E+10,      /* I =154 */
(PID.TID 0000.0001)                 5.597545074899420E+10,      /* I =155 */
(PID.TID 0000.0001)                 4.931323764668228E+10,      /* I =156 */
(PID.TID 0000.0001)                 4.200427377313133E+10,      /* I =157 */
(PID.TID 0000.0001)                 3.392265412140352E+10,      /* I =158 */
(PID.TID 0000.0001)                 2.487202533723945E+10,      /* I =159 */
(PID.TID 0000.0001)     2 @  1.549786705672200E+10,             /* I =160:161 */
(PID.TID 0000.0001)                 2.487202533723945E+10,      /* I =162 */
(PID.TID 0000.0001)                 3.392265412140352E+10,      /* I =163 */
(PID.TID 0000.0001)                 4.200427377313133E+10,      /* I =164 */
(PID.TID 0000.0001)                 4.931323764668228E+10,      /* I =165 */
(PID.TID 0000.0001)                 5.597545074899420E+10,      /* I =166 */
(PID.TID 0000.0001)                 6.205603937791459E+10,      /* I =167 */
(PID.TID 0000.0001)                 6.758299971934573E+10,      /* I =168 */
(PID.TID 0000.0001)                 7.256155653843707E+10,      /* I =169 */
(PID.TID 0000.0001)                 7.698291833687604E+10,      /* I =170 */
(PID.TID 0000.0001)                 8.083005486272009E+10,      /* I =171 */
(PID.TID 0000.0001)                 8.408183191745641E+10,      /* I =172 */
(PID.TID 0000.0001)                 8.671615787312848E+10,      /* I =173 */
(PID.TID 0000.0001)                 8.871245486529788E+10,      /* I =174 */
(PID.TID 0000.0001)                 9.005359372079962E+10,      /* I =175 */
(PID.TID 0000.0001)     2 @  9.072735712796770E+10,             /* I =176:177 */
(PID.TID 0000.0001)                 9.005359372079962E+10,      /* I =178 */
(PID.TID 0000.0001)                 8.871245486529788E+10,      /* I =179 */
(PID.TID 0000.0001)                 8.671615787312848E+10,      /* I =180 */
(PID.TID 0000.0001)                 8.408183191745641E+10,      /* I =181 */
(PID.TID 0000.0001)                 8.083005486272009E+10,      /* I =182 */
(PID.TID 0000.0001)                 7.698291833687604E+10,      /* I =183 */
(PID.TID 0000.0001)                 7.256155653843707E+10,      /* I =184 */
(PID.TID 0000.0001)                 6.758299971934573E+10,      /* I =185 */
(PID.TID 0000.0001)                 6.205603937791459E+10,      /* I =186 */
(PID.TID 0000.0001)                 5.597545074899420E+10,      /* I =187 */
(PID.TID 0000.0001)                 4.931323764668228E+10,      /* I =188 */
(PID.TID 0000.0001)                 4.200427377313133E+10,      /* I =189 */
(PID.TID 0000.0001)                 3.392265412140352E+10,      /* I =190 */
(PID.TID 0000.0001)                 2.487202533723945E+10,      /* I =191 */
(PID.TID 0000.0001)                 1.549786705672200E+10       /* I =192 */
(PID.TID 0000.0001)     ;
(PID.TID 0000.0001) rA  =  /* rA (1,:,1,:) ( units: m^2 ) */
(PID.TID 0000.0001)                 1.549786705672200E+10,      /* J =  1 */
(PID.TID 0000.0001)                 2.487202533723945E+10,      /* J =  2 */
(PID.TID 0000.0001)                 3.392265412140352E+10,      /* J =  3 */
(PID.TID 0000.0001)                 4.200427377313133E+10,      /* J =  4 */
(PID.TID 0000.0001)                 4.931323764668228E+10,      /* J =  5 */
(PID.TID 0000.0001)                 5.597545074899419E+10,      /* J =  6 */
(PID.TID 0000.0001)                 6.205603937791459E+10,      /* J =  7 */
(PID.TID 0000.0001)                 6.758299971934573E+10,      /* J =  8 */
(PID.TID 0000.0001)                 7.256155653843707E+10,      /* J =  9 */
(PID.TID 0000.0001)                 7.698291833687604E+10,      /* J = 10 */
(PID.TID 0000.0001)                 8.083005486272011E+10,      /* J = 11 */
(PID.TID 0000.0001)                 8.408183191745641E+10,      /* J = 12 */
(PID.TID 0000.0001)                 8.671615787312848E+10,      /* J = 13 */
(PID.TID 0000.0001)                 8.871245486529788E+10,      /* J = 14 */
(PID.TID 0000.0001)                 9.005359372079964E+10,      /* J = 15 */
(PID.TID 0000.0001)     2 @  9.072735712796770E+10,             /* J = 16: 17 */
(PID.TID 0000.0001)                 9.005359372079964E+10,      /* J = 18 */
(PID.TID 0000.0001)                 8.871245486529788E+10,      /* J = 19 */
(PID.TID 0000.0001)                 8.671615787312848E+10,      /* J = 20 */
(PID.TID 0000.0001)                 8.408183191745641E+10,      /* J = 21 */
(PID.TID 0000.0001)                 8.083005486272011E+10,      /* J = 22 */
(PID.TID 0000.0001)                 7.698291833687604E+10,      /* J = 23 */
(PID.TID 0000.0001)                 7.256155653843707E+10,      /* J = 24 */
(PID.TID 0000.0001)                 6.758299971934573E+10,      /* J = 25 */
(PID.TID 0000.0001)                 6.205603937791459E+10,      /* J = 26 */
(PID.TID 0000.0001)                 5.597545074899419E+10,      /* J = 27 */
(PID.TID 0000.0001)                 4.931323764668228E+10,      /* J = 28 */
(PID.TID 0000.0001)                 4.200427377313133E+10,      /* J = 29 */
(PID.TID 0000.0001)                 3.392265412140352E+10,      /* J = 30 */
(PID.TID 0000.0001)                 2.487202533723945E+10,      /* J = 31 */
(PID.TID 0000.0001)                 1.549786705672200E+10       /* J = 32 */
(PID.TID 0000.0001)     ;
(PID.TID 0000.0001) rAw =  /* rAw(:,1,:,1) ( units: m^2 ) */
(PID.TID 0000.0001)                 1.146542574196578E+10,      /* I =  1 */
(PID.TID 0000.0001)                 1.953030837147821E+10,      /* I =  2 */
(PID.TID 0000.0001)                 2.933967873337320E+10,      /* I =  3 */
(PID.TID 0000.0001)                 3.796176706541101E+10,      /* I =  4 */
(PID.TID 0000.0001)                 4.567569462064098E+10,      /* I =  5 */
(PID.TID 0000.0001)                 5.267377164042021E+10,      /* I =  6 */
(PID.TID 0000.0001)                 5.905615583203223E+10,      /* I =  7 */
(PID.TID 0000.0001)                 6.487043381386549E+10,      /* I =  8 */
(PID.TID 0000.0001)                 7.013339442433482E+10,      /* I =  9 */
(PID.TID 0000.0001)                 7.484316069116351E+10,      /* I = 10 */
(PID.TID 0000.0001)                 7.898662143005907E+10,      /* I = 11 */
(PID.TID 0000.0001)                 8.254445101987663E+10,      /* I = 12 */
(PID.TID 0000.0001)                 8.549478360691351E+10,      /* I = 13 */
(PID.TID 0000.0001)                 8.781604517750543E+10,      /* I = 14 */
(PID.TID 0000.0001)                 8.948917519517891E+10,      /* I = 15 */
(PID.TID 0000.0001)                 9.049933392602551E+10,      /* I = 16 */
(PID.TID 0000.0001)                 9.083715262395342E+10,      /* I = 17 */
(PID.TID 0000.0001)                 9.049933392602551E+10,      /* I = 18 */
(PID.TID 0000.0001)                 8.948917519517891E+10,      /* I = 19 */
(PID.TID 0000.0001)                 8.781604517750543E+10,      /* I = 20 */
(PID.TID 0000.0001)                 8.549478360691351E+10,      /* I = 21 */
(PID.TID 0000.0001)                 8.254445101987663E+10,      /* I = 22 */
(PID.TID 0000.0001)                 7.898662143005907E+10,      /* I = 23 */
(PID.TID 0000.0001)                 7.484316069116351E+10,      /* I = 24 */
(PID.TID 0000.0001)                 7.013339442433482E+10,      /* I = 25 */
(PID.TID 0000.0001)                 6.487043381386549E+10,      /* I = 26 */
(PID.TID 0000.0001)                 5.905615583203223E+10,      /* I = 27 */
(PID.TID 0000.0001)                 5.267377164042021E+10,      /* I = 28 */
(PID.TID 0000.0001)                 4.567569462064098E+10,      /* I = 29 */
(PID.TID 0000.0001)                 3.796176706541101E+10,      /* I = 30 */
(PID.TID 0000.0001)                 2.933967873337320E+10,      /* I = 31 */
(PID.TID 0000.0001)                 1.953030837147821E+10,      /* I = 32 */
(PID.TID 0000.0001)                 1.146542574196578E+10,      /* I = 33 */
(PID.TID 0000.0001)                 1.953030837147821E+10,      /* I = 34 */
(PID.TID 0000.0001)                 2.933967873337320E+10,      /* I = 35 */
(PID.TID 0000.0001)                 3.796176706541101E+10,      /* I = 36 */
(PID.TID 0000.0001)                 4.567569462064098E+10,      /* I = 37 */
(PID.TID 0000.0001)                 5.267377164042021E+10,      /* I = 38 */
(PID.TID 0000.0001)                 5.905615583203223E+10,      /* I = 39 */
(PID.TID 0000.0001)                 6.487043381386549E+10,      /* I = 40 */
(PID.TID 0000.0001)                 7.013339442433482E+10,      /* I = 41 */
(PID.TID 0000.0001)                 7.484316069116351E+10,      /* I = 42 */
(PID.TID 0000.0001)                 7.898662143005907E+10,      /* I = 43 */
(PID.TID 0000.0001)                 8.254445101987663E+10,      /* I = 44 */
(PID.TID 0000.0001)                 8.549478360691351E+10,      /* I = 45 */
(PID.TID 0000.0001)                 8.781604517750543E+10,      /* I = 46 */
(PID.TID 0000.0001)                 8.948917519517891E+10,      /* I = 47 */
(PID.TID 0000.0001)                 9.049933392602551E+10,      /* I = 48 */
(PID.TID 0000.0001)                 9.083715262395342E+10,      /* I = 49 */
(PID.TID 0000.0001)                 9.049933392602551E+10,      /* I = 50 */
(PID.TID 0000.0001)                 8.948917519517891E+10,      /* I = 51 */
(PID.TID 0000.0001)                 8.781604517750543E+10,      /* I = 52 */
(PID.TID 0000.0001)                 8.549478360691351E+10,      /* I = 53 */
(PID.TID 0000.0001)                 8.254445101987663E+10,      /* I = 54 */
(PID.TID 0000.0001)                 7.898662143005907E+10,      /* I = 55 */
(PID.TID 0000.0001)                 7.484316069116351E+10,      /* I = 56 */
(PID.TID 0000.0001)                 7.013339442433482E+10,      /* I = 57 */
(PID.TID 0000.0001)                 6.487043381386549E+10,      /* I = 58 */
(PID.TID 0000.0001)                 5.905615583203223E+10,      /* I = 59 */
(PID.TID 0000.0001)                 5.267377164042021E+10,      /* I = 60 */
(PID.TID 0000.0001)                 4.567569462064098E+10,      /* I = 61 */
(PID.TID 0000.0001)                 3.796176706541101E+10,      /* I = 62 */
(PID.TID 0000.0001)                 2.933967873337320E+10,      /* I = 63 */
(PID.TID 0000.0001)                 1.953030837147821E+10,      /* I = 64 */
(PID.TID 0000.0001)                 1.146542574196578E+10,      /* I = 65 */
(PID.TID 0000.0001)                 1.953030837147821E+10,      /* I = 66 */
(PID.TID 0000.0001)                 2.933967873337320E+10,      /* I = 67 */
(PID.TID 0000.0001)                 3.796176706541101E+10,      /* I = 68 */
(PID.TID 0000.0001)                 4.567569462064098E+10,      /* I = 69 */
(PID.TID 0000.0001)                 5.267377164042021E+10,      /* I = 70 */
(PID.TID 0000.0001)                 5.905615583203223E+10,      /* I = 71 */
(PID.TID 0000.0001)                 6.487043381386549E+10,      /* I = 72 */
(PID.TID 0000.0001)                 7.013339442433482E+10,      /* I = 73 */
(PID.TID 0000.0001)                 7.484316069116351E+10,      /* I = 74 */
(PID.TID 0000.0001)                 7.898662143005907E+10,      /* I = 75 */
(PID.TID 0000.0001)                 8.254445101987663E+10,      /* I = 76 */
(PID.TID 0000.0001)                 8.549478360691351E+10,      /* I = 77 */
(PID.TID 0000.0001)                 8.781604517750543E+10,      /* I = 78 */
(PID.TID 0000.0001)                 8.948917519517891E+10,      /* I = 79 */
(PID.TID 0000.0001)                 9.049933392602551E+10,      /* I = 80 */
(PID.TID 0000.0001)                 9.083715262395342E+10,      /* I = 81 */
(PID.TID 0000.0001)                 9.049933392602551E+10,      /* I = 82 */
(PID.TID 0000.0001)                 8.948917519517891E+10,      /* I = 83 */
(PID.TID 0000.0001)                 8.781604517750543E+10,      /* I = 84 */
(PID.TID 0000.0001)                 8.549478360691351E+10,      /* I = 85 */
(PID.TID 0000.0001)                 8.254445101987663E+10,      /* I = 86 */
(PID.TID 0000.0001)                 7.898662143005907E+10,      /* I = 87 */
(PID.TID 0000.0001)                 7.484316069116351E+10,      /* I = 88 */
(PID.TID 0000.0001)                 7.013339442433482E+10,      /* I = 89 */
(PID.TID 0000.0001)                 6.487043381386549E+10,      /* I = 90 */
(PID.TID 0000.0001)                 5.905615583203223E+10,      /* I = 91 */
(PID.TID 0000.0001)                 5.267377164042021E+10,      /* I = 92 */
(PID.TID 0000.0001)                 4.567569462064098E+10,      /* I = 93 */
(PID.TID 0000.0001)                 3.796176706541101E+10,      /* I = 94 */
(PID.TID 0000.0001)                 2.933967873337320E+10,      /* I = 95 */
(PID.TID 0000.0001)                 1.953030837147821E+10,      /* I = 96 */
(PID.TID 0000.0001)                 1.146542574196578E+10,      /* I = 97 */
(PID.TID 0000.0001)                 1.953030837147821E+10,      /* I = 98 */
(PID.TID 0000.0001)                 2.933967873337320E+10,      /* I = 99 */
(PID.TID 0000.0001)                 3.796176706541101E+10,      /* I =100 */
(PID.TID 0000.0001)                 4.567569462064098E+10,      /* I =101 */
(PID.TID 0000.0001)                 5.267377164042021E+10,      /* I =102 */
(PID.TID 0000.0001)                 5.905615583203223E+10,      /* I =103 */
(PID.TID 0000.0001)                 6.487043381386549E+10,      /* I =104 */
(PID.TID 0000.0001)                 7.013339442433482E+10,      /* I =105 */
(PID.TID 0000.0001)                 7.484316069116351E+10,      /* I =106 */
(PID.TID 0000.0001)                 7.898662143005907E+10,      /* I =107 */
(PID.TID 0000.0001)                 8.254445101987663E+10,      /* I =108 */
(PID.TID 0000.0001)                 8.549478360691351E+10,      /* I =109 */
(PID.TID 0000.0001)                 8.781604517750543E+10,      /* I =110 */
(PID.TID 0000.0001)                 8.948917519517891E+10,      /* I =111 */
(PID.TID 0000.0001)                 9.049933392602551E+10,      /* I =112 */
(PID.TID 0000.0001)                 9.083715262395342E+10,      /* I =113 */
(PID.TID 0000.0001)                 9.049933392602551E+10,      /* I =114 */
(PID.TID 0000.0001)                 8.948917519517891E+10,      /* I =115 */
(PID.TID 0000.0001)                 8.781604517750543E+10,      /* I =116 */
(PID.TID 0000.0001)                 8.549478360691351E+10,      /* I =117 */
(PID.TID 0000.0001)                 8.254445101987663E+10,      /* I =118 */
(PID.TID 0000.0001)                 7.898662143005907E+10,      /* I =119 */
(PID.TID 0000.0001)                 7.484316069116351E+10,      /* I =120 */
(PID.TID 0000.0001)                 7.013339442433482E+10,      /* I =121 */
(PID.TID 0000.0001)                 6.487043381386549E+10,      /* I =122 */
(PID.TID 0000.0001)                 5.905615583203223E+10,      /* I =123 */
(PID.TID 0000.0001)                 5.267377164042021E+10,      /* I =124 */
(PID.TID 0000.0001)                 4.567569462064098E+10,      /* I =125 */
(PID.TID 0000.0001)                 3.796176706541101E+10,      /* I =126 */
(PID.TID 0000.0001)                 2.933967873337320E+10,      /* I =127 */
(PID.TID 0000.0001)                 1.953030837147821E+10,      /* I =128 */
(PID.TID 0000.0001)                 1.146542574196578E+10,      /* I =129 */
(PID.TID 0000.0001)                 1.953030837147821E+10,      /* I =130 */
(PID.TID 0000.0001)                 2.933967873337320E+10,      /* I =131 */
(PID.TID 0000.0001)                 3.796176706541101E+10,      /* I =132 */
(PID.TID 0000.0001)                 4.567569462064098E+10,      /* I =133 */
(PID.TID 0000.0001)                 5.267377164042021E+10,      /* I =134 */
(PID.TID 0000.0001)                 5.905615583203223E+10,      /* I =135 */
(PID.TID 0000.0001)                 6.487043381386549E+10,      /* I =136 */
(PID.TID 0000.0001)                 7.013339442433482E+10,      /* I =137 */
(PID.TID 0000.0001)                 7.484316069116351E+10,      /* I =138 */
(PID.TID 0000.0001)                 7.898662143005907E+10,      /* I =139 */
(PID.TID 0000.0001)                 8.254445101987663E+10,      /* I =140 */
(PID.TID 0000.0001)                 8.549478360691351E+10,      /* I =141 */
(PID.TID 0000.0001)                 8.781604517750543E+10,      /* I =142 */
(PID.TID 0000.0001)                 8.948917519517891E+10,      /* I =143 */
(PID.TID 0000.0001)                 9.049933392602551E+10,      /* I =144 */
(PID.TID 0000.0001)                 9.083715262395342E+10,      /* I =145 */
(PID.TID 0000.0001)                 9.049933392602551E+10,      /* I =146 */
(PID.TID 0000.0001)                 8.948917519517891E+10,      /* I =147 */
(PID.TID 0000.0001)                 8.781604517750543E+10,      /* I =148 */
(PID.TID 0000.0001)                 8.549478360691351E+10,      /* I =149 */
(PID.TID 0000.0001)                 8.254445101987663E+10,      /* I =150 */
(PID.TID 0000.0001)                 7.898662143005907E+10,      /* I =151 */
(PID.TID 0000.0001)                 7.484316069116351E+10,      /* I =152 */
(PID.TID 0000.0001)                 7.013339442433482E+10,      /* I =153 */
(PID.TID 0000.0001)                 6.487043381386549E+10,      /* I =154 */
(PID.TID 0000.0001)                 5.905615583203223E+10,      /* I =155 */
(PID.TID 0000.0001)                 5.267377164042021E+10,      /* I =156 */
(PID.TID 0000.0001)                 4.567569462064098E+10,      /* I =157 */
(PID.TID 0000.0001)                 3.796176706541101E+10,      /* I =158 */
(PID.TID 0000.0001)                 2.933967873337320E+10,      /* I =159 */
(PID.TID 0000.0001)                 1.953030837147821E+10,      /* I =160 */
(PID.TID 0000.0001)                 1.146542574196578E+10,      /* I =161 */
(PID.TID 0000.0001)                 1.953030837147821E+10,      /* I =162 */
(PID.TID 0000.0001)                 2.933967873337320E+10,      /* I =163 */
(PID.TID 0000.0001)                 3.796176706541101E+10,      /* I =164 */
(PID.TID 0000.0001)                 4.567569462064098E+10,      /* I =165 */
(PID.TID 0000.0001)                 5.267377164042021E+10,      /* I =166 */
(PID.TID 0000.0001)                 5.905615583203223E+10,      /* I =167 */
(PID.TID 0000.0001)                 6.487043381386549E+10,      /* I =168 */
(PID.TID 0000.0001)                 7.013339442433482E+10,      /* I =169 */
(PID.TID 0000.0001)                 7.484316069116351E+10,      /* I =170 */
(PID.TID 0000.0001)                 7.898662143005907E+10,      /* I =171 */
(PID.TID 0000.0001)                 8.254445101987663E+10,      /* I =172 */
(PID.TID 0000.0001)                 8.549478360691351E+10,      /* I =173 */
(PID.TID 0000.0001)                 8.781604517750543E+10,      /* I =174 */
(PID.TID 0000.0001)                 8.948917519517891E+10,      /* I =175 */
(PID.TID 0000.0001)                 9.049933392602551E+10,      /* I =176 */
(PID.TID 0000.0001)                 9.083715262395342E+10,      /* I =177 */
(PID.TID 0000.0001)                 9.049933392602551E+10,      /* I =178 */
(PID.TID 0000.0001)                 8.948917519517891E+10,      /* I =179 */
(PID.TID 0000.0001)                 8.781604517750543E+10,      /* I =180 */
(PID.TID 0000.0001)                 8.549478360691351E+10,      /* I =181 */
(PID.TID 0000.0001)                 8.254445101987663E+10,      /* I =182 */
(PID.TID 0000.0001)                 7.898662143005907E+10,      /* I =183 */
(PID.TID 0000.0001)                 7.484316069116351E+10,      /* I =184 */
(PID.TID 0000.0001)                 7.013339442433482E+10,      /* I =185 */
(PID.TID 0000.0001)                 6.487043381386549E+10,      /* I =186 */
(PID.TID 0000.0001)                 5.905615583203223E+10,      /* I =187 */
(PID.TID 0000.0001)                 5.267377164042021E+10,      /* I =188 */
(PID.TID 0000.0001)                 4.567569462064098E+10,      /* I =189 */
(PID.TID 0000.0001)                 3.796176706541101E+10,      /* I =190 */
(PID.TID 0000.0001)                 2.933967873337320E+10,      /* I =191 */
(PID.TID 0000.0001)                 1.953030837147821E+10       /* I =192 */
(PID.TID 0000.0001)     ;
(PID.TID 0000.0001) rAw =  /* rAw(1,:,1,:) ( units: m^2 ) */
(PID.TID 0000.0001)                 1.146542574196578E+10,      /* J =  1 */
(PID.TID 0000.0001)                 2.377787005983833E+10,      /* J =  2 */
(PID.TID 0000.0001)                 3.336273018972140E+10,      /* J =  3 */
(PID.TID 0000.0001)                 4.165099566747280E+10,      /* J =  4 */
(PID.TID 0000.0001)                 4.906782896008959E+10,      /* J =  5 */
(PID.TID 0000.0001)                 5.579613053300137E+10,      /* J =  6 */
(PID.TID 0000.0001)                 6.192151981164894E+10,      /* J =  7 */
(PID.TID 0000.0001)                 6.748097638954340E+10,      /* J =  8 */
(PID.TID 0000.0001)                 7.248418794208269E+10,      /* J =  9 */
(PID.TID 0000.0001)                 7.692477203447566E+10,      /* J = 10 */
(PID.TID 0000.0001)                 8.078707194826852E+10,      /* J = 11 */
(PID.TID 0000.0001)                 8.405076334249313E+10,      /* J = 12 */
(PID.TID 0000.0001)                 8.669423991218034E+10,      /* J = 13 */
(PID.TID 0000.0001)                 8.869721460381146E+10,      /* J = 14 */
(PID.TID 0000.0001)                 9.004272888354184E+10,      /* J = 15 */
(PID.TID 0000.0001)     2 @  9.071865929421040E+10,             /* J = 16: 17 */
(PID.TID 0000.0001)                 9.004272888354184E+10,      /* J = 18 */
(PID.TID 0000.0001)                 8.869721460381146E+10,      /* J = 19 */
(PID.TID 0000.0001)                 8.669423991218034E+10,      /* J = 20 */
(PID.TID 0000.0001)                 8.405076334249313E+10,      /* J = 21 */
(PID.TID 0000.0001)                 8.078707194826852E+10,      /* J = 22 */
(PID.TID 0000.0001)                 7.692477203447566E+10,      /* J = 23 */
(PID.TID 0000.0001)                 7.248418794208269E+10,      /* J = 24 */
(PID.TID 0000.0001)                 6.748097638954340E+10,      /* J = 25 */
(PID.TID 0000.0001)                 6.192151981164894E+10,      /* J = 26 */
(PID.TID 0000.0001)                 5.579613053300137E+10,      /* J = 27 */
(PID.TID 0000.0001)                 4.906782896008959E+10,      /* J = 28 */
(PID.TID 0000.0001)                 4.165099566747280E+10,      /* J = 29 */
(PID.TID 0000.0001)                 3.336273018972140E+10,      /* J = 30 */
(PID.TID 0000.0001)                 2.377787005983833E+10,      /* J = 31 */
(PID.TID 0000.0001)                 1.146542574196578E+10       /* J = 32 */
(PID.TID 0000.0001)     ;
(PID.TID 0000.0001) rAs =  /* rAs(:,1,:,1) ( units: m^2 ) */
(PID.TID 0000.0001)                 1.146542574196578E+10,      /* I =  1 */
(PID.TID 0000.0001)                 2.377787005983833E+10,      /* I =  2 */
(PID.TID 0000.0001)                 3.336273018972140E+10,      /* I =  3 */
(PID.TID 0000.0001)                 4.165099566747280E+10,      /* I =  4 */
(PID.TID 0000.0001)                 4.906782896008959E+10,      /* I =  5 */
(PID.TID 0000.0001)                 5.579613053300137E+10,      /* I =  6 */
(PID.TID 0000.0001)                 6.192151981164894E+10,      /* I =  7 */
(PID.TID 0000.0001)                 6.748097638954340E+10,      /* I =  8 */
(PID.TID 0000.0001)                 7.248418794208269E+10,      /* I =  9 */
(PID.TID 0000.0001)                 7.692477203447566E+10,      /* I = 10 */
(PID.TID 0000.0001)                 8.078707194826852E+10,      /* I = 11 */
(PID.TID 0000.0001)                 8.405076334249313E+10,      /* I = 12 */
(PID.TID 0000.0001)                 8.669423991218034E+10,      /* I = 13 */
(PID.TID 0000.0001)                 8.869721460381146E+10,      /* I = 14 */
(PID.TID 0000.0001)                 9.004272888354184E+10,      /* I = 15 */
(PID.TID 0000.0001)     2 @  9.071865929421040E+10,             /* I = 16: 17 */
(PID.TID 0000.0001)                 9.004272888354184E+10,      /* I = 18 */
(PID.TID 0000.0001)                 8.869721460381146E+10,      /* I = 19 */
(PID.TID 0000.0001)                 8.669423991218034E+10,      /* I = 20 */
(PID.TID 0000.0001)                 8.405076334249313E+10,      /* I = 21 */
(PID.TID 0000.0001)                 8.078707194826852E+10,      /* I = 22 */
(PID.TID 0000.0001)                 7.692477203447566E+10,      /* I = 23 */
(PID.TID 0000.0001)                 7.248418794208269E+10,      /* I = 24 */
(PID.TID 0000.0001)                 6.748097638954340E+10,      /* I = 25 */
(PID.TID 0000.0001)                 6.192151981164894E+10,      /* I = 26 */
(PID.TID 0000.0001)                 5.579613053300137E+10,      /* I = 27 */
(PID.TID 0000.0001)                 4.906782896008959E+10,      /* I = 28 */
(PID.TID 0000.0001)                 4.165099566747280E+10,      /* I = 29 */
(PID.TID 0000.0001)                 3.336273018972140E+10,      /* I = 30 */
(PID.TID 0000.0001)                 2.377787005983833E+10,      /* I = 31 */
(PID.TID 0000.0001)     2 @  1.146542574196578E+10,             /* I = 32: 33 */
(PID.TID 0000.0001)                 2.377787005983833E+10,      /* I = 34 */
(PID.TID 0000.0001)                 3.336273018972140E+10,      /* I = 35 */
(PID.TID 0000.0001)                 4.165099566747280E+10,      /* I = 36 */
(PID.TID 0000.0001)                 4.906782896008959E+10,      /* I = 37 */
(PID.TID 0000.0001)                 5.579613053300137E+10,      /* I = 38 */
(PID.TID 0000.0001)                 6.192151981164894E+10,      /* I = 39 */
(PID.TID 0000.0001)                 6.748097638954340E+10,      /* I = 40 */
(PID.TID 0000.0001)                 7.248418794208269E+10,      /* I = 41 */
(PID.TID 0000.0001)                 7.692477203447566E+10,      /* I = 42 */
(PID.TID 0000.0001)                 8.078707194826852E+10,      /* I = 43 */
(PID.TID 0000.0001)                 8.405076334249313E+10,      /* I = 44 */
(PID.TID 0000.0001)                 8.669423991218034E+10,      /* I = 45 */
(PID.TID 0000.0001)                 8.869721460381146E+10,      /* I = 46 */
(PID.TID 0000.0001)                 9.004272888354184E+10,      /* I = 47 */
(PID.TID 0000.0001)     2 @  9.071865929421040E+10,             /* I = 48: 49 */
(PID.TID 0000.0001)                 9.004272888354184E+10,      /* I = 50 */
(PID.TID 0000.0001)                 8.869721460381146E+10,      /* I = 51 */
(PID.TID 0000.0001)                 8.669423991218034E+10,      /* I = 52 */
(PID.TID 0000.0001)                 8.405076334249313E+10,      /* I = 53 */
(PID.TID 0000.0001)                 8.078707194826852E+10,      /* I = 54 */
(PID.TID 0000.0001)                 7.692477203447566E+10,      /* I = 55 */
(PID.TID 0000.0001)                 7.248418794208269E+10,      /* I = 56 */
(PID.TID 0000.0001)                 6.748097638954340E+10,      /* I = 57 */
(PID.TID 0000.0001)                 6.192151981164894E+10,      /* I = 58 */
(PID.TID 0000.0001)                 5.579613053300137E+10,      /* I = 59 */
(PID.TID 0000.0001)                 4.906782896008959E+10,      /* I = 60 */
(PID.TID 0000.0001)                 4.165099566747280E+10,      /* I = 61 */
(PID.TID 0000.0001)                 3.336273018972140E+10,      /* I = 62 */
(PID.TID 0000.0001)                 2.377787005983833E+10,      /* I = 63 */
(PID.TID 0000.0001)     2 @  1.146542574196578E+10,             /* I = 64: 65 */
(PID.TID 0000.0001)                 2.377787005983833E+10,      /* I = 66 */
(PID.TID 0000.0001)                 3.336273018972140E+10,      /* I = 67 */
(PID.TID 0000.0001)                 4.165099566747280E+10,      /* I = 68 */
(PID.TID 0000.0001)                 4.906782896008959E+10,      /* I = 69 */
(PID.TID 0000.0001)                 5.579613053300137E+10,      /* I = 70 */
(PID.TID 0000.0001)                 6.192151981164894E+10,      /* I = 71 */
(PID.TID 0000.0001)                 6.748097638954340E+10,      /* I = 72 */
(PID.TID 0000.0001)                 7.248418794208269E+10,      /* I = 73 */
(PID.TID 0000.0001)                 7.692477203447566E+10,      /* I = 74 */
(PID.TID 0000.0001)                 8.078707194826852E+10,      /* I = 75 */
(PID.TID 0000.0001)                 8.405076334249313E+10,      /* I = 76 */
(PID.TID 0000.0001)                 8.669423991218034E+10,      /* I = 77 */
(PID.TID 0000.0001)                 8.869721460381146E+10,      /* I = 78 */
(PID.TID 0000.0001)                 9.004272888354184E+10,      /* I = 79 */
(PID.TID 0000.0001)     2 @  9.071865929421040E+10,             /* I = 80: 81 */
(PID.TID 0000.0001)                 9.004272888354184E+10,      /* I = 82 */
(PID.TID 0000.0001)                 8.869721460381146E+10,      /* I = 83 */
(PID.TID 0000.0001)                 8.669423991218034E+10,      /* I = 84 */
(PID.TID 0000.0001)                 8.405076334249313E+10,      /* I = 85 */
(PID.TID 0000.0001)                 8.078707194826852E+10,      /* I = 86 */
(PID.TID 0000.0001)                 7.692477203447566E+10,      /* I = 87 */
(PID.TID 0000.0001)                 7.248418794208269E+10,      /* I = 88 */
(PID.TID 0000.0001)                 6.748097638954340E+10,      /* I = 89 */
(PID.TID 0000.0001)                 6.192151981164894E+10,      /* I = 90 */
(PID.TID 0000.0001)                 5.579613053300137E+10,      /* I = 91 */
(PID.TID 0000.0001)                 4.906782896008959E+10,      /* I = 92 */
(PID.TID 0000.0001)                 4.165099566747280E+10,      /* I = 93 */
(PID.TID 0000.0001)                 3.336273018972140E+10,      /* I = 94 */
(PID.TID 0000.0001)                 2.377787005983833E+10,      /* I = 95 */
(PID.TID 0000.0001)     2 @  1.146542574196578E+10,             /* I = 96: 97 */
(PID.TID 0000.0001)                 2.377787005983833E+10,      /* I = 98 */
(PID.TID 0000.0001)                 3.336273018972140E+10,      /* I = 99 */
(PID.TID 0000.0001)                 4.165099566747280E+10,      /* I =100 */
(PID.TID 0000.0001)                 4.906782896008959E+10,      /* I =101 */
(PID.TID 0000.0001)                 5.579613053300137E+10,      /* I =102 */
(PID.TID 0000.0001)                 6.192151981164894E+10,      /* I =103 */
(PID.TID 0000.0001)                 6.748097638954340E+10,      /* I =104 */
(PID.TID 0000.0001)                 7.248418794208269E+10,      /* I =105 */
(PID.TID 0000.0001)                 7.692477203447566E+10,      /* I =106 */
(PID.TID 0000.0001)                 8.078707194826852E+10,      /* I =107 */
(PID.TID 0000.0001)                 8.405076334249313E+10,      /* I =108 */
(PID.TID 0000.0001)                 8.669423991218034E+10,      /* I =109 */
(PID.TID 0000.0001)                 8.869721460381146E+10,      /* I =110 */
(PID.TID 0000.0001)                 9.004272888354184E+10,      /* I =111 */
(PID.TID 0000.0001)     2 @  9.071865929421040E+10,             /* I =112:113 */
(PID.TID 0000.0001)                 9.004272888354184E+10,      /* I =114 */
(PID.TID 0000.0001)                 8.869721460381146E+10,      /* I =115 */
(PID.TID 0000.0001)                 8.669423991218034E+10,      /* I =116 */
(PID.TID 0000.0001)                 8.405076334249313E+10,      /* I =117 */
(PID.TID 0000.0001)                 8.078707194826852E+10,      /* I =118 */
(PID.TID 0000.0001)                 7.692477203447566E+10,      /* I =119 */
(PID.TID 0000.0001)                 7.248418794208269E+10,      /* I =120 */
(PID.TID 0000.0001)                 6.748097638954340E+10,      /* I =121 */
(PID.TID 0000.0001)                 6.192151981164894E+10,      /* I =122 */
(PID.TID 0000.0001)                 5.579613053300137E+10,      /* I =123 */
(PID.TID 0000.0001)                 4.906782896008959E+10,      /* I =124 */
(PID.TID 0000.0001)                 4.165099566747280E+10,      /* I =125 */
(PID.TID 0000.0001)                 3.336273018972140E+10,      /* I =126 */
(PID.TID 0000.0001)                 2.377787005983833E+10,      /* I =127 */
(PID.TID 0000.0001)     2 @  1.146542574196578E+10,             /* I =128:129 */
(PID.TID 0000.0001)                 2.377787005983833E+10,      /* I =130 */
(PID.TID 0000.0001)                 3.336273018972140E+10,      /* I =131 */
(PID.TID 0000.0001)                 4.165099566747280E+10,      /* I =132 */
(PID.TID 0000.0001)                 4.906782896008959E+10,      /* I =133 */
(PID.TID 0000.0001)                 5.579613053300137E+10,      /* I =134 */
(PID.TID 0000.0001)                 6.192151981164894E+10,      /* I =135 */
(PID.TID 0000.0001)                 6.748097638954340E+10,      /* I =136 */
(PID.TID 0000.0001)                 7.248418794208269E+10,      /* I =137 */
(PID.TID 0000.0001)                 7.692477203447566E+10,      /* I =138 */
(PID.TID 0000.0001)                 8.078707194826852E+10,      /* I =139 */
(PID.TID 0000.0001)                 8.405076334249313E+10,      /* I =140 */
(PID.TID 0000.0001)                 8.669423991218034E+10,      /* I =141 */
(PID.TID 0000.0001)                 8.869721460381146E+10,      /* I =142 */
(PID.TID 0000.0001)                 9.004272888354184E+10,      /* I =143 */
(PID.TID 0000.0001)     2 @  9.071865929421040E+10,             /* I =144:145 */
(PID.TID 0000.0001)                 9.004272888354184E+10,      /* I =146 */
(PID.TID 0000.0001)                 8.869721460381146E+10,      /* I =147 */
(PID.TID 0000.0001)                 8.669423991218034E+10,      /* I =148 */
(PID.TID 0000.0001)                 8.405076334249313E+10,      /* I =149 */
(PID.TID 0000.0001)                 8.078707194826852E+10,      /* I =150 */
(PID.TID 0000.0001)                 7.692477203447566E+10,      /* I =151 */
(PID.TID 0000.0001)                 7.248418794208269E+10,      /* I =152 */
(PID.TID 0000.0001)                 6.748097638954340E+10,      /* I =153 */
(PID.TID 0000.0001)                 6.192151981164894E+10,      /* I =154 */
(PID.TID 0000.0001)                 5.579613053300137E+10,      /* I =155 */
(PID.TID 0000.0001)                 4.906782896008959E+10,      /* I =156 */
(PID.TID 0000.0001)                 4.165099566747280E+10,      /* I =157 */
(PID.TID 0000.0001)                 3.336273018972140E+10,      /* I =158 */
(PID.TID 0000.0001)                 2.377787005983833E+10,      /* I =159 */
(PID.TID 0000.0001)     2 @  1.146542574196578E+10,             /* I =160:161 */
(PID.TID 0000.0001)                 2.377787005983833E+10,      /* I =162 */
(PID.TID 0000.0001)                 3.336273018972140E+10,      /* I =163 */
(PID.TID 0000.0001)                 4.165099566747280E+10,      /* I =164 */
(PID.TID 0000.0001)                 4.906782896008959E+10,      /* I =165 */
(PID.TID 0000.0001)                 5.579613053300137E+10,      /* I =166 */
(PID.TID 0000.0001)                 6.192151981164894E+10,      /* I =167 */
(PID.TID 0000.0001)                 6.748097638954340E+10,      /* I =168 */
(PID.TID 0000.0001)                 7.248418794208269E+10,      /* I =169 */
(PID.TID 0000.0001)                 7.692477203447566E+10,      /* I =170 */
(PID.TID 0000.0001)                 8.078707194826852E+10,      /* I =171 */
(PID.TID 0000.0001)                 8.405076334249313E+10,      /* I =172 */
(PID.TID 0000.0001)                 8.669423991218034E+10,      /* I =173 */
(PID.TID 0000.0001)                 8.869721460381146E+10,      /* I =174 */
(PID.TID 0000.0001)                 9.004272888354184E+10,      /* I =175 */
(PID.TID 0000.0001)     2 @  9.071865929421040E+10,             /* I =176:177 */
(PID.TID 0000.0001)                 9.004272888354184E+10,      /* I =178 */
(PID.TID 0000.0001)                 8.869721460381146E+10,      /* I =179 */
(PID.TID 0000.0001)                 8.669423991218034E+10,      /* I =180 */
(PID.TID 0000.0001)                 8.405076334249313E+10,      /* I =181 */
(PID.TID 0000.0001)                 8.078707194826852E+10,      /* I =182 */
(PID.TID 0000.0001)                 7.692477203447566E+10,      /* I =183 */
(PID.TID 0000.0001)                 7.248418794208269E+10,      /* I =184 */
(PID.TID 0000.0001)                 6.748097638954340E+10,      /* I =185 */
(PID.TID 0000.0001)                 6.192151981164894E+10,      /* I =186 */
(PID.TID 0000.0001)                 5.579613053300137E+10,      /* I =187 */
(PID.TID 0000.0001)                 4.906782896008959E+10,      /* I =188 */
(PID.TID 0000.0001)                 4.165099566747280E+10,      /* I =189 */
(PID.TID 0000.0001)                 3.336273018972140E+10,      /* I =190 */
(PID.TID 0000.0001)                 2.377787005983833E+10,      /* I =191 */
(PID.TID 0000.0001)                 1.146542574196578E+10       /* I =192 */
(PID.TID 0000.0001)     ;
(PID.TID 0000.0001) rAs =  /* rAs(1,:,1,:) ( units: m^2 ) */
(PID.TID 0000.0001)                 1.146542574196578E+10,      /* J =  1 */
(PID.TID 0000.0001)                 1.953030837147821E+10,      /* J =  2 */
(PID.TID 0000.0001)                 2.933967873337320E+10,      /* J =  3 */
(PID.TID 0000.0001)                 3.796176706541101E+10,      /* J =  4 */
(PID.TID 0000.0001)                 4.567569462064098E+10,      /* J =  5 */
(PID.TID 0000.0001)                 5.267377164042021E+10,      /* J =  6 */
(PID.TID 0000.0001)                 5.905615583203223E+10,      /* J =  7 */
(PID.TID 0000.0001)                 6.487043381386549E+10,      /* J =  8 */
(PID.TID 0000.0001)                 7.013339442433482E+10,      /* J =  9 */
(PID.TID 0000.0001)                 7.484316069116351E+10,      /* J = 10 */
(PID.TID 0000.0001)                 7.898662143005907E+10,      /* J = 11 */
(PID.TID 0000.0001)                 8.254445101987663E+10,      /* J = 12 */
(PID.TID 0000.0001)                 8.549478360691351E+10,      /* J = 13 */
(PID.TID 0000.0001)                 8.781604517750543E+10,      /* J = 14 */
(PID.TID 0000.0001)                 8.948917519517891E+10,      /* J = 15 */
(PID.TID 0000.0001)                 9.049933392602551E+10,      /* J = 16 */
(PID.TID 0000.0001)                 9.083715262395342E+10,      /* J = 17 */
(PID.TID 0000.0001)                 9.049933392602551E+10,      /* J = 18 */
(PID.TID 0000.0001)                 8.948917519517891E+10,      /* J = 19 */
(PID.TID 0000.0001)                 8.781604517750543E+10,      /* J = 20 */
(PID.TID 0000.0001)                 8.549478360691351E+10,      /* J = 21 */
(PID.TID 0000.0001)                 8.254445101987663E+10,      /* J = 22 */
(PID.TID 0000.0001)                 7.898662143005907E+10,      /* J = 23 */
(PID.TID 0000.0001)                 7.484316069116351E+10,      /* J = 24 */
(PID.TID 0000.0001)                 7.013339442433482E+10,      /* J = 25 */
(PID.TID 0000.0001)                 6.487043381386549E+10,      /* J = 26 */
(PID.TID 0000.0001)                 5.905615583203223E+10,      /* J = 27 */
(PID.TID 0000.0001)                 5.267377164042021E+10,      /* J = 28 */
(PID.TID 0000.0001)                 4.567569462064098E+10,      /* J = 29 */
(PID.TID 0000.0001)                 3.796176706541101E+10,      /* J = 30 */
(PID.TID 0000.0001)                 2.933967873337320E+10,      /* J = 31 */
(PID.TID 0000.0001)                 1.953030837147821E+10       /* J = 32 */
(PID.TID 0000.0001)     ;
(PID.TID 0000.0001) globalArea = /* Integrated horizontal Area (m^2) */
(PID.TID 0000.0001)                 5.098642104278460E+14
(PID.TID 0000.0001)     ;
(PID.TID 0000.0001) // =======================================================
(PID.TID 0000.0001) // End of Model config. summary
(PID.TID 0000.0001) // =======================================================
(PID.TID 0000.0001) 
(PID.TID 0000.0001)  MDSREADFIELD: opening global file: uVel_cs32x10.d19930110z06.bin
(PID.TID 0000.0001)  MDSREADFIELD: opening global file: vVel_cs32x10.d19930110z06.bin
(PID.TID 0000.0001)  MDSREADFIELD: opening global file: TH_cs32x10.d19930110z06.bin
(PID.TID 0000.0001) // =======================================================
(PID.TID 0000.0001) // Field Initial Temperature at iteration          1
(PID.TID 0000.0001) // CMIN =          2.299906647659927E+02
(PID.TID 0000.0001) // CMAX =          3.168596344391663E+02
(PID.TID 0000.0001) // CINT =          3.217369247154575E+00
(PID.TID 0000.0001) // SYMBOLS (CMIN->CMAX): -abcdefghijklmnopqrstuvwxyz+
(PID.TID 0000.0001) //                  0.0: .
(PID.TID 0000.0001) // RANGE I (Lo:Hi:Step):(   1: 192:   1)
(PID.TID 0000.0001) // RANGE J (Lo:Hi:Step):(  32:   1:  -1)
(PID.TID 0000.0001) // RANGE K (Lo:Hi:Step):(   1:   1:   1)
(PID.TID 0000.0001) // =======================================================
(PID.TID 0000.0001) K =   1
(PID.TID 0000.0001)                I=10      I=20      I=30      I=40      I=50      I=60      I=70      I=80      I=90      I=100     I=110     I=120     I=130     I=140     I=150     I=160     I=170     I=180     I=190
(PID.TID 0000.0001) |--J--|123456789|123456789|123456789|123456789|123456789|123456789|123456789|123456789|123456789|123456789|123456789|123456789|123456789|123456789|123456789|123456789|123456789|123456789|123456789|12
(PID.TID 0000.0001)     32 rrrsssssssssrrqrqqqqqo.nn...ppqq....oomnnn..............lklnopppsssrqpnmkjiijjjjjii......pppppqqqrrttttttuuuuuuuuuuuvvvvuttssrrrrrrssstttttuuuuuuuuvvvvv..utttsssssrrrrrqqqrrrqppppppppppqqqrrrs
(PID.TID 0000.0001)     31 rrrssssssssrrrq.rrrrqqpoo..qqqqqq......oo..............nmlmnopqqssrqomlkihhhhiiiiiii...nnooopppqqqsttttttuuuuuuuuuuuvvvvutssrrrrsrrssstttttuuuuuuuuvvvvvvuutttsssrrrrqqqqpqqrqppoppooooppppqqrrr
(PID.TID 0000.0001)     30 rrssssssssrrrqqrssrrqqpppppq.qqqqq.....................nmmnopqrrsrromlkiiggggiijjjih....noooopppqqstttttuuuuuuuuuuuuvvvuttssrrrrsrrsssttttuuuuuuuuuvvvvvvvt.tsssrrqqqqqppppqqppoooooonoooooppqrr
(PID.TID 0000.0001)     29 sssssrrrsrrrqrqrrqrrqqqppqqqqqqqrr.....................nnnopqrsssrqnlkjhgfffgikjjjihi...noooooppqqstttttuuuuuuuuuuuuvvuuttssrrrrssssssttttuuuuuuuuvvvvvwwvuutssrrrqqqpppooppppoonoonnnnnnnooppqr
(PID.TID 0000.0001)     28 sssssrrrrrrrrr...qqrqqqqqqqq..qqrrs.......q............onopqrssssrpnljihfffffhkjiihgg...noooooopqqstttttuuvvvuuuuuuuvvuuttssrrrrsssssstttuuuuuuvvvvvvvvwvvvuttsrrrqqqpoooooooonnnnnnnmmnnnnoopqr
(PID.TID 0000.0001)     27 ssssssrrrrrrr.qqqqqqqqqqqqqqr..qrrstt....srr.........qoooprsstttrqpnlkjhgfeffgiijhhhij..nooooooppqrsttttuuvvuvuuuuuvvvuutttssrrrrssssttttuuuuuuvvvvvvvwwvvvvuusrqqqqpoonnnnnnnnnmmmmmmmnnnnooopq
(PID.TID 0000.0001)     26 ttsssssrrrrrqqqqrqqqqqrrqqrrst..ssttttuttssstt........rqrsttttttrqonlkjihgfeffhhhfgiih..nooooooopqrsstttuuuuuuuuuuuvvvuutttssrrrqssssttttuuuuuvvvvvvvvvvvvvvvvtrqqqppoonnnnmmnnmmmmmmmmnnnnooopq
(PID.TID 0000.0001)     25 tttsssssrssrrrrrs...qqqrqqrstt..tttutuuutuuutttuuu...utsttuuuuttrqonmkjjjifdefggggghj...ooooooooopqrssttutuuuuvuuuuvvvuutttssrrrpstttttttuuuuvwvvvwwvvw...vuvvusqqpppoonmmmmmmmmlmmmmnnnnnnnoopq
(PID.TID 0000.0001)     24 ttttssssssssrrrssr.qr..qrrrsttu.uuuutuuuuvvvuuuttu...uttuuvuuuuurqonmlkkjjgddefghhhhh...ooooonooopqrrrstuutuuuuuvvvvvvuuttsssssrnrttttttuuuuvvwvvvwwww......uvvtrqppponmmmmmmmmmmmmmnnnnnnnnoopq
(PID.TID 0000.0001)     23 ttttttttssssssssssrrssrrrrsttuu..uuttuuuvwwvvvuttvvwvutuuvvuuuuurqpnmllll..eedefgfgghh..onnnnnnoopqrrrsstuutuuvvvvvvvvvuttsssssrlosuutttuuuuuvwvvvvww...t......tsrqpponmmmlmmmmm..mnnnnnnnnnnopq
(PID.TID 0000.0001)     22 tttttttttttssssssssstts..sttu.v..uuuuuuuvvwwvutttuvwvvuuvvvvuuuusqpnmmmmmm..eeeffeffgicj.nnnnnnnopqqrrssttuuuuvvvvvvvvvuttssssrrknqtuutuuuuuvu..vvvwx..sstuuut...srqponnnmllmml.......nnnnnnnopq
(PID.TID 0000.0001)     21 uuuuttttuuuttttstttttttt.uvv..uuuuuuuuuuuvvwvutuuvvvvvuuvvvvvuuusrponnnmll...dceeddefh.fhlnnonnnopqqrrssttttuuuvvvvvvvvuttssssrrkmorttuuuuuvvvvv.vv...ttsttttssrrr.qqpononmmmm.........nnnnnnoop
(PID.TID 0000.0001)     20 uuuuuuuuuvvvuuuuuuutuuvvwvvw.....uuuuuuuuvvvvuuuvvvvvvuuvvvvvvvvrrqpppomkj.....-eccefgghkmnoooooppqqrrssstttuuvvvvvvvvvuuttssrrrklnprtuuuuvvvvuuu..utttttttttssrrqqqqpooooonmm.........nnnnnnoop
(PID.TID 0000.0001)     19 uuuuuuuuuuvvvuvvvvvu.vvwvwww...vvuuuvvuuvvvvvvvvvvvvvuuvvvvvvvvvrrqqqpomjfdh...ddcdfgggikmnooooppppqqrrsssttuuuvvvvvvvvutttssrrrlmnprstuuvvvvvuuuttttttttttttsssrqqpppppooo.nnm........mnnnnnopq
(PID.TID 0000.0001)     18 uuuuuuuuuuuuuuuvvuvvuwxwvw..y.vvvuuuuuuvvvvvvvvvvvvvvuvvwvvvvvvvrrqppponkfbcddccddefggfhkmnooooppqqqqqrsssttuuvvvvvvvvvutttsssrrlmnpqstvvvvvvuuuuutttttttttttsssrrqqpppppoommml.........nnnnoopq
(PID.TID 0000.0001)     17 uuuuuuuuuuuuuuuuuuuuvwwwvv...vvuuuuuuuuvuvvvvvvvvvvwvvvwwwvvvvvvrrqpooonmjecbbbddeeeeefhknnooooooppqqqrrssttuuvvvvvvvvvutttssssrklnpqrtuvvvvuuuuttttttttttttttsrrqqqqqppppm.............nnnnoppr
(PID.TID 0000.0001)     16 uuuuuuuuuuuuuuuuuuuuvvwvv.....vuuuuuuuvvvvvvvvvvvvvvvvvwwwwvvvvv.qqppooonmjebabdddccccefhloooonnoopqqrrrsstuuvvvvvvvvvvutttttttsjkloqrtuvvu.uuuuttttttttttttttsrqqppppppppln.............nnoppqr
(PID.TID 0000.0001)     15 uuuuuuuuuuuuuuuuuuuuvvvvv....vvvuuuvvvvvvvvvvvvvvvvvvvvvvvvvvvvwoqqponon.omhcbbbcbbbbbcefimnnnnnnoopqrrssttuuvvvvvvvvvvuutttstttjjkmoqtuvvvuuuuttttttttttttuutsrqppppppppppn..nm.........nooppqr
(PID.TID 0000.0001)     14 uvvuuuuuuuutuuttuuuuuv.v.v...vvvvvvvvvvvvvvvvvvvvvvvvvvvvvvvvvvvp.pppnmnmknkdbaaba-abcdeegjlmmmmnnopqrssttuuvvvvvvvvvvvuuuttssssjkllnorttv.uuuutttttttttttuuutsrqqppppppoonm..lnn.......nooopqrr
(PID.TID 0000.0001)     13 vvvuuuuuutttttttttuuu........vvvvvvvvvvvvvvvvvvuuuuuuuvvvvvvvvvvpoppponnlkmmecbaba--bdfef.ikllmmnnopqrssttuuuvvvvvvvvvvuuuttttts.....oqq...uuuuutttttttuuuuuutsrqpppooonnnnnnnmnm......nnoooopqr
(PID.TID 0000.0001)     12 vvuuuuuuttttttttttttu.......vvvvvvvuuvuuuvvvvvuuuuuuuuvvvvvvvwww.ppponmlkklnjgedcbabcde...jkklmmnnopqrstttuuuuvvuuvvvuuuuuutttts..........uuuuuuuttutttuuuuuttsrqpppoonnnnmmnnnmmm.....oooooppqr
(PID.TID 0000.0001)     11 vuuuuuuutttttttttttt........vvvvvvvuuuuuuuuuuuuuuutttuuvvvvwwxxx...ponmmmlklkihfddcedd...hjkklmmnoppqrsttuuuuuvvuvvvvvuvvuutttts........uuuuuuuuuutuuuuuuuuutssrqppponnnnnmnnmmmnm....noooopppqr
(PID.TID 0000.0001)     10 vuuuuuuutttttttttttt.......wwwvvvvuuuuuuuuuuuuuutttttuuvvwwxyyyymnnoonnmmlkkjjgffefge..d.ijjklmnnopqqrtttuuuuuvvvvvvvvuuuuuuuutr......uuuuuuuuuuuuuuuuuuuuvutsrrqqppoonnnmnnnnmmnn..mnnnnoopppqr
(PID.TID 0000.0001)      9 .vuuuuuuuutuuuutttttt......wwwvv.vvuuuuuuuuuuuttttttttuvwxyzzzzznnnnnnnmllkjjjigfgfhgfgfghhijlnnopqqrstttuuuuuvvvvvvvvuvuuuuutsr....rsttttuuuuuuuuuuuuuuuvvutsrrqqppooonnnnoonmmnnnnnnnnnooppqqr
(PID.TID 0000.0001)      8 vvvuuuuuuuuuuuuuttstt.....vwwwvv.vvuuuuuuuuuutttttttttuvyz+++++z.nnnnmlkllllkjiggfggggeb.hhijlnoqqrrrsttuuuuuvvvvvvvvvvvuuvvvtss....qrstttuuuuuuuuuuuuuuvvvtssrrrqqppoonnnoooonnnoooonnoooopqqqr
(PID.TID 0000.0001)      7 vvvuuuuuutttuuuutssst.....vvwwvvvvvuuuuuuuuuutttttttsttwz+++++yy.nnmmlkkllllkjgghhhgggd...hiklnpqrrsstttuuuuuvvvvvvvvvvvuuvwxwut.qqqqssttttuuuuuuuuuuuuuvvutssrrrrqpppoooooooooooopoonnoooppqqrr
(PID.TID 0000.0001)      6 uvvuuuuuuttttuuttsssss....vvvvvvvvvuuuuuuuuuttttttttsstvz+zzzyyy.onmmkklmllkkighiiihi..gfgghjlnopqrsstttuuuuvvvvvvvvvvvvuuwxxxvtpqqrstttttttuuuuuuuuuuuuvvutssrrrrqqpppppppppopppppponnooppqqqrr
(PID.TID 0000.0001)      5 ttuuuuuuuutttttttsssss....uvvvvvvvuuuuuuuuuuutttttsssssuyzyyyyxx....lllmmllljiiijiij...gffggikmopqssstttuuuuvvvvvvwwvvvvvwxxxwvtpqrrttttuttuuuuuuuuuuuuuvvutsssrrqqqqqpqqqqqppppppqqpoooppqqqrrr
(PID.TID 0000.0001)      4 ttttuuuuuuuttttssssssstttuuuuuuuvuuuuuuuuuuuttttttssssstwyxwwvwx....mmmmmmnmkkkjk.kj....gghhikmopqssstttuuuuuvvvvww.vwwwwxyyxwvtqqrstuttuuuuuuuuuuuuuuuvvvutsssrrqqqqqqqqqqqppqqqqqqpoopppqqqrrr
(PID.TID 0000.0001)      3 ssstttttuuutttsrrqrrrssssttttttuuuuutttttttttttsssssssrstvuttsuvp...nmmmmnnnmml.......i.hhijjlnopqssttttuuuuuvvvvwwvvwwxxyyxxwvsqqrstuttuuuuuuuuuuuuuuuuvuttsssrrrrqqqqqrrqqqqqqrrrqpppppqqqqrrr
(PID.TID 0000.0001)      2 sssssstsssttttrqppqrrrrrrsssssstttttsssssssssssssssrrrrrrssssrstp..onmlmmnomlm..........iij.lmnopqssttttuuuuvvvvvw.vvwxyyyyxxwvsqqrsttttuuuuuuuuuuuuuuuuuuttsssrrrrrrqqrrrqqqqqrrrrrqpqqqrqqrrrr
(PID.TID 0000.0001)      1 ssssssssrrrsssrpppqqqqqqqrrrrsssssssrrrrrrrrrrssssrrrrrrrrrrrrss...oommmmnomo..m........jjkmnnoopqssstttuuuuvvvvvwvvwxyyyyyxxwutqrrstttttuuuuuuuuuuuuvvvuttsssrrrrrrrrrrrrrqqrrrstsrrqqrrsrrrrrs
(PID.TID 0000.0001) // =======================================================
(PID.TID 0000.0001) // END OF FIELD                                          =
(PID.TID 0000.0001) // =======================================================
(PID.TID 0000.0001) 
(PID.TID 0000.0001)  MDSREADFIELD: opening global file: SH_cs32x10.d19930110z06.bin
(PID.TID 0000.0001) // =======================================================
(PID.TID 0000.0001) // Field Initial Salinity at iteration          1
(PID.TID 0000.0001) // CMIN =          1.495374967847958E-05
(PID.TID 0000.0001) // CMAX =          1.838201712222059E-02
(PID.TID 0000.0001) // CINT =          6.802616063904483E-04
(PID.TID 0000.0001) // SYMBOLS (CMIN->CMAX): -abcdefghijklmnopqrstuvwxyz+
(PID.TID 0000.0001) //                  0.0: .
(PID.TID 0000.0001) // RANGE I (Lo:Hi:Step):(   1: 192:   1)
(PID.TID 0000.0001) // RANGE J (Lo:Hi:Step):(  32:   1:  -1)
(PID.TID 0000.0001) // RANGE K (Lo:Hi:Step):(   1:   1:   1)
(PID.TID 0000.0001) // =======================================================
(PID.TID 0000.0001) K =   1
(PID.TID 0000.0001)                I=10      I=20      I=30      I=40      I=50      I=60      I=70      I=80      I=90      I=100     I=110     I=120     I=130     I=140     I=150     I=160     I=170     I=180     I=190
(PID.TID 0000.0001) |--J--|123456789|123456789|123456789|123456789|123456789|123456789|123456789|123456789|123456789|123456789|123456789|123456789|123456789|123456789|123456789|123456789|123456789|123456789|123456789|12
(PID.TID 0000.0001)     32 llkklmnnooomkjihihhige.dd...hhgg....feddee..............aabdegghlmnmjhfcbaaaa-aaaaa......eeffgghijllmoqqrrqsvwwsrtuvwxxxtqpnmllklkklnoppqrropsvvuuuvwvww..vqnmllllllljhhhijlmligeefggggghhijklmn
(PID.TID 0000.0001)     31 klkllnnnnmljiih.hghhggfee..ehhggf......de..............bbbcdfhiimnmjfdcbaaaa--aaa-aa...ccddeffghiklklnpqqrqruvvsqsuvwwvvsponmlkklkklmnopqrsqqtvvuutttwwyyxurnmllkkjjjjhgghijkjhfeeeffffffgghikln
(PID.TID 0000.0001)     30 llmmmmmlkjjiihfgeeggffggffff.hgfff.....................cccdegikmmnkgdcbaaaaa------aa....cdeefgghikkjkmprrrrsuvvtstvwxxvuqonmlllkmlklmnoprstsstuutttssvyxxys.nmllkjiiiihggghiihhfeeeeeeeedefghikm
(PID.TID 0000.0001)     29 mmmmmlkjiijiigfgeeghhghhhghgggfffe.....................dddegilnomniecbaaaa----aa---aa...ceeffgghikkjknprtsstvwwuuuvwxyxuqommllkknmmmnopqrsutstttsssstvwvwvqpnmlkjihhhhhhgfghhhgfeeeddddddeffghjk
(PID.TID 0000.0001)     28 nnnmmlljiiiiig...dghiihhghhh..ffffg.......e............eefhjmnonmlhdcbaaa----aaaaaaaa...deeeffghijkklopruutuwwvustvwxxxuronmllkjnnmnopqsttutsuutrrrtvvvuuronnmljihgggggffffggfeeeedddddddeeffgik
(PID.TID 0000.0001)     27 oonnnmlkjjhff.bbbcdfhiihhhhhh..ffggjn....eef.........feefhknppnmmkgdbbaaa----aaaaaaaab..edeeeffghikllnoqtvuvwvvtrtwxyxwusponmkjimnmnpqrstttttuutrstuwwurpnmmmmlkihhggfeeeeeeeeeeddddddddeeeefghj
(PID.TID 0000.0001)     26 poonnmkjjifdddcbcccdfghghhhhij..gghlnpqmffhhii........ighkoqromnljfdbbaaaa----aaaaaaaa..efffffffghjlmnnqttvwxwvtsuwxxxvtroonmkjiknlkmpqsttuuuvsttuuvyxvqnlkjiikkihhgfeeeeeeddeedddddddddeeeffghi
(PID.TID 0000.0001)     25 pponnmkkjiddedccc...fffgfgghkm..hiknprqkfgijkklnnm...okknoppponolifcbbaaaaa---aaaaaaa...ffffeeffghjllmnosttvxxursuwwwxtrqponmlllhnnjknprtuuuuuvuuvuvxxv...kiffijihggffeeddddddddcdddddddeeeefghi
(PID.TID 0000.0001)     24 qppoonmlkhddddcccd.fe..eeefgjmm.jknpqtrjghijlnoooo...popstqopqqqlhecbbaaaaa----aaaaaa...fdceeeffghjkllmnpsstwwvqqtwwxwsrqponmnmmelqomnprtuvvutvwvuuuwv......fehjjhgggfeddcddddcccccdcccdddedefhi
(PID.TID 0000.0001)     23 ponnnnnnlfdcccccdddeddeeddefjqs..opqruuqkjkmopqpoorpprrrtvssttttmifcbbbbb..-----a-aaaa..ecbcdeefghijjkkmoqrsvwurqtwwxxtrpnnmnmlkcgospoqrtuvvutvxwtrtu...o......iiihggfecccccddcc..cccbbdeedeefgi
(PID.TID 0000.0001)     22 ommnqppplfcccbccccddddd..ddek.t..qqrstvurppprqqqqqtrqstqsvttuuuvnjfdbbbbbb..--------aaaa.cbcddefghijjjkkmpqrtwvsruwxyyvsommlllkibejpqooqrsttuu..vrqpr..oooppol...hhhggeddcccccc.......cdeeeeefgh
(PID.TID 0000.0001)     21 nmmorsrqjfccdccccccddddd.cff..prrqqqtuvvusrqttsssuvuutustuuutvxxnkeccccbbb...--------a.-abbcdddefhiiikkjlnpqrvwutwxyyyxtnlllllkjbcglqqqqrtttuwwy.rq...ppqpmmlkkkkh.iigeeedcccc.........ddeeeefgh
(PID.TID 0000.0001)     20 ppqqrutrkfdfffccccccdddddcci.....qrtvwwvutsuxxwvwxwwvvwvuvvvuvyymlifffecba.....------aaabbccffefghiiikjjkmoprvxwwxzzxywsomllmmkjabdhmqrstuuuvvwus..spqpprrolkkklkjjiihffeeddcc.........dddddefgh
(PID.TID 0000.0001)     19 sssttuuurmiimomjikid.deegefi...opstuwwwvtttvyyyyyxxyxwxxxywwvwyylkjiihecba--...-----aaaabccdfffgghghijjkmnoprvxxxxyzyxwspommmmkjabdfkortuutttvvpmprpoopqrrollmmmlkjihhgffed.cca........ddddeefgh
(PID.TID 0000.0001)     18 uuvvutuvvurnoqqqpruyphfink..l.ppruvvvwwvttvxxzzyyyyyyxyyyyxwxyxykkjhhfdcba-----------a-abddefffghiihghklmnoprvxxxxxyyxusqonnmlkjacdfjmqsrsrqsuuqnprqonpqrrppppnllljiiihhffecccb.........eedeffgi
(PID.TID 0000.0001)     17 vvutuutttvustvvvvwxyxposz+...oquvwwwwxxxwvxyxxyxyyyyyyyyxxxxyyyyikkhfecccb-------------acefffffffghjigjlmnoqswyyyxxwvvusrponmlkjbcdgjmprsttstusrqpqpnnopqrrrqomllkjiiiihgge.............eedegghi
(PID.TID 0000.0001)     16 vusssrrrtuutuvuvvwxyyvswz.....svxxxxxxwxyyyxwxyyyyyyywvwxxxzyyyy.jjgfedddcb-------------acffffeeeefhjhgkmnprtxyyywwwwwvsqqqnlkkjbbcfjmqrrtt.vurppponnnnoqrssromljhhhhhhgggdc.............eefghii
(PID.TID 0000.0001)     15 vvtssrrsuuuuuuuuuuwxzzzz+....ssuwxxxxxxyzyyxwyzzyyyyywvuxxzzxxyxfiigfedd.eca------------aadeeeddddegjkjlnoqruxxyxwwxxxvtrsrpmmlkabbdfjqrrrqrtusqqponnnnoqsssspmkjhgggggggffd..cc.........effhihh
(PID.TID 0000.0001)     14 wwtqrqqrtttttttsssuwxy.y.y...wvvuuvwxxyyyyyxyzyyxxyyyyyyyyyxwxxxg.hhfddddcdb--------------bccccccdegilllopqsuwxxxvvxwvvtrrqpnlmmbbbbcejnpq.sstsrsqoonnooqrsssqljihggggggfeed..cdc.......deffgiih
(PID.TID 0000.0001)     13 vtrqrqrssrrssrqqqqsuw........wwvuuvwxyxwxyxxyxwwvvwxxxy+zzyxyxxxgggggeddcbdda------------.abbcccddeghkmmoqrtuwxxwuuvvvtrponmlmnn.....egi...uttrprronoooopqrstpljihggggfedccdddccc......ddefggijk
(PID.TID 0000.0001)     12 trrrssttsrrrqqpppqrsu.......wwvuvxyyxxvuwxxxwvvvutttuuwxxxxyyxxz.ffggedcbbceba---------...abbcccdeeghkmnprrstwxxwuvwwvsomlmmmnol..........tuttrooqpoppooqrstspljihggfeedddddddcccb.....dddfgghjj
(PID.TID 0000.0001)     11 vusrssssssrrrqpopqrq........yxvvxxxwvvutuwwwvuuuttssrrttstvwxxuu...dddccbbbcbaa-------...aabbccddefghknoqsttuwwxxvvwwvtnlnopqonj........nqtuttsnloqqpppqsstusnkjihgffeededdddddddb....dddefggghi
(PID.TID 0000.0001)     10 wsrrrrrrrrrrrqqqqqpq.......utttvxwvututtttttttutsssrqoqrqrtsqokjccccccccbbbbaaa----a-..-.aabbcdddefgilmnqtuuvwwxywuwwxvqppppqpmi......hjlqttttsmknrrqqrsttuuqmjiihggfeeedddeddddcd..dedeeefggghi
(PID.TID 0000.0001)      9 .rrrrtsrrrrrrtutqppqq......tsrsv.vvusrrssrqqqstssrqqpooqppojhgfgccdddcbbbbbaaaa-aa-aa-aaaaaabceefggikmmnqtuuvwwxyxvxxyvqqqpqrplj....gffhmsttttsmknrsrpsttuvsoljihhggffeddeeeeeddddeeeeeeeefgiiii
(PID.TID 0000.0001)      8 vtrrsttsrrrqruttrpopq.....xwtrtw.xvussrrrqpoopqqqpopppnokiifeeee.ddddcbbbbbbaaaaa-aaaa--.aaabcegijjkmoporutvwwwwxywwyxvssssrpnkj....hggjpssttttoknrtspprsuurnljiihgggffeeeeeeeeddefffeeffffhijjj
(PID.TID 0000.0001)      7 vtrqrstsqqqqsutrqpnop.....xwusuwwvussrrrqpooonnnoonooomlhghfeefd.edddbbbbbbbaa-aaaaaa--...aabcdgikllmoqqsutwxxxwxyyvtvwwvvupjiji.hijihhkpsrstuuqmknrtroqtuuqnmkjiihggggggfffeffeefggfeeeffghijkk
(PID.TID 0000.0001)      6 vutsrrssrrrrsttqpomnno....xwvtuuutsqpoponnnonmmmmnnmnnmlgefffhgf.dddcbbbabbbaaaaaaaaa..--aaabccegjlmnprsrrsvvwxxyyyyttxyxvslgfgigijkllklpssstvuqljlrutsttutqomlkjihghhhhhggfeefffghhfeeefghhiikk
(PID.TID 0000.0001)      5 rstttsssrrrrqsspoommno....vuusstttspnmmlmnonmlmnmmmmllmlhffggiih....ccbbabbbbaaabaaa...a-aa-abdegjmnoprtrstuuwwwxxxxxyzywtoiffgighjlnoopqrstuvuplkpsuuuututqnmlkjihhhhhijihggfgggiiigfefgghhiijj
(PID.TID 0000.0001)      4 opqstusrqpppoqqomlmmlmmosusqqqqrtttqonnmmoomllmnmllllkkkiijjjjki....dcbbbbbbbbbbb.aa....aaaaabdegkmmmnpstuuuwxxwwyw.zzxurojgffhhghjlmnprrrtuuvuqopqstuuuuutqmllkkihghhhjkjhgggghijjihffgghhhiijj
(PID.TID 0000.0001)      3 mnoprssrrqpomppmjjjkklmmopnmnnoqrssqooponnmlkllmlkjkkkjjklmkjjkjh...dccccbabbbb.......a.aaaabcdfgknmllostuvvxyxxwyxxzyvqnkgefghhgijklmpqqrtuvwuqprrrtuvvvuspmlkkjihhhhikkjihhhiijkjihggghihghhii
(PID.TID 0000.0001)      2 mnnnoopoopppmnmjhhihillkkllllmnopqqonnnmlkjijklkkjjjkkjjklljiiiig..fecbccbbccc..........aaa.cdefhjnnmmorttvwwyyyyx.zyxtnkgeefhihhikllnqqrsuuwwvrpsstvvwwvtqomllkkjiiiijkljiiijihjlljhgghiihggggh
(PID.TID 0000.0001)      1 lmmmllkkklmonmjgfghghjjijkkkklmnoonmllkkjjiiijkjjiikjjjijkkjiiii...fedccddccb..b........aaaceefghjnommoqrsvwxyyyywxzzwojgeefgiihijklmoqqrsstwxwrqsuvwwxxvspomllkkjjjiijlljiijjiihkmlihhhhihggggh
(PID.TID 0000.0001) // =======================================================
(PID.TID 0000.0001) // END OF FIELD                                          =
(PID.TID 0000.0001) // =======================================================
(PID.TID 0000.0001) 
(PID.TID 0000.0001) Start initial hydrostatic pressure computation
(PID.TID 0000.0001) Pressure is predetermined for buoyancyRelation ATMOSPHERIC
(PID.TID 0000.0001) 
(PID.TID 0000.0001)  write diagnostics summary to file ioUnit:      6
Iter.Nb:         0 ; Time(s):  0.0000000000000E+00
------------------------------------------------------------------------
2D/3D diagnostics: Number of lists:     4
------------------------------------------------------------------------
listId=   1 ; file name: surface
 nFlds, nActive,       freq     &   phase        , nLev                 
   3  |   3  |         0.003000         0.000000 |   1
 levels:   1
 diag#| name   | ipt  | iMate| kLev| count | mate.C|                    
  289 |TCANOPY |    1 |    0 |   1 |     0 |
  198 |OLR     |    2 |    0 |   1 |     0 |
   85 |RSURF   |    3 |    0 |   1 |     0 |
------------------------------------------------------------------------
listId=   2 ; file name: upperfiz
 nFlds, nActive,       freq     &   phase        , nLev                 
   2  |   2  |         0.003000         0.000000 |  20
 levels:   1   2   3   4   5   6   7   8   9  10  11  12  13  14  15  16  17  18  19  20
 diag#| name   | ipt  | iMate| kLev| count | mate.C|                    
  159 |DPPHYS  |    4 |    0 |  21 |     0 |
  372 |FIZPRES |   25 |    0 |  21 |     0 |
------------------------------------------------------------------------
listId=   3 ; file name: uVeltave
 nFlds, nActive,       freq     &   phase        , nLev                 
   2  |   2  |         0.003000         0.000000 |  10
 levels:   1   2   3   4   5   6   7   8   9  10
 diag#| name   | ipt  | iMate| kLev| count | mate.C|                    
   29 |UVEL    |   46 |    0 |  10 |     0 |
   84 |RCENTER |   56 |    0 |  10 |     0 |
------------------------------------------------------------------------
listId=   4 ; file name: uVelpres
 nFlds, nActive,       freq     &   phase        , nLev                 
   1  |   1  |         0.003000         0.000000 |  10
 levels:   1   2   3   4   5   6   7   8   9  10
 diag#| name   | ipt  | iMate| kLev| count | mate.C|                    
   29 |UVEL    |  -46 |    0 |  10 |     0 |
------------------------------------------------------------------------
Global & Regional Statistics diagnostics: Number of lists:     0
------------------------------------------------------------------------
  In fizhi_init_vars: Beginning of New Experiment 
  Cold Start: Zero out Turb second moments 
  Initialize fizhi arrays that will be on pickup 
  Cold Start: Zero out Turb second moments 
  Initialize fizhi arrays that will be on pickup 
  Cold Start: Zero out Turb second moments 
  Initialize fizhi arrays that will be on pickup 
  Cold Start: Zero out Turb second moments 
  Initialize fizhi arrays that will be on pickup 
  Cold Start: Zero out Turb second moments 
  Initialize fizhi arrays that will be on pickup 
  Cold Start: Zero out Turb second moments 
  Initialize fizhi arrays that will be on pickup 
(PID.TID 0000.0001) // =======================================================
(PID.TID 0000.0001) // Model current state
(PID.TID 0000.0001) // =======================================================
(PID.TID 0000.0001) 
(PID.TID 0000.0001) // =======================================================
(PID.TID 0000.0001) // Begin MONITOR dynamic field statistics
(PID.TID 0000.0001) // =======================================================
(PID.TID 0000.0001) %MON time_tsnumber                =                     0
(PID.TID 0000.0001) %MON time_secondsf                =   0.0000000000000E+00
(PID.TID 0000.0001) %MON dynstat_eta_max              =   0.0000000000000E+00
(PID.TID 0000.0001) %MON dynstat_eta_min              =   0.0000000000000E+00
(PID.TID 0000.0001) %MON dynstat_eta_mean             =   0.0000000000000E+00
(PID.TID 0000.0001) %MON dynstat_eta_sd               =   0.0000000000000E+00
(PID.TID 0000.0001) %MON dynstat_eta_del2             =   0.0000000000000E+00
(PID.TID 0000.0001) %MON dynstat_uvel_max             =   7.2309779864169E+01
(PID.TID 0000.0001) %MON dynstat_uvel_min             =  -7.8610179924155E+01
(PID.TID 0000.0001) %MON dynstat_uvel_mean            =   1.7718346246702E+00
(PID.TID 0000.0001) %MON dynstat_uvel_sd              =   1.2863798003487E+01
(PID.TID 0000.0001) %MON dynstat_uvel_del2            =   8.8022879050078E-01
(PID.TID 0000.0001) %MON dynstat_vvel_max             =   7.0053180267013E+01
(PID.TID 0000.0001) %MON dynstat_vvel_min             =  -7.4948164374724E+01
(PID.TID 0000.0001) %MON dynstat_vvel_mean            =   1.8707720419414E+00
(PID.TID 0000.0001) %MON dynstat_vvel_sd              =   1.2842625988314E+01
(PID.TID 0000.0001) %MON dynstat_vvel_del2            =   8.6240420373085E-01
(PID.TID 0000.0001) %MON dynstat_wvel_max             =   6.7127324804130E-01
(PID.TID 0000.0001) %MON dynstat_wvel_min             =  -1.2073279940261E+00
(PID.TID 0000.0001) %MON dynstat_wvel_mean            =   6.6042447629591E-05
(PID.TID 0000.0001) %MON dynstat_wvel_sd              =   9.8742509181246E-02
(PID.TID 0000.0001) %MON dynstat_wvel_del2            =   3.1524934564661E-02
(PID.TID 0000.0001) %MON dynstat_theta_max            =   4.5377600020667E+02
(PID.TID 0000.0001) %MON dynstat_theta_min            =   2.2999066476599E+02
(PID.TID 0000.0001) %MON dynstat_theta_mean           =   3.2422662527214E+02
(PID.TID 0000.0001) %MON dynstat_theta_sd             =   3.6159309458473E+01
(PID.TID 0000.0001) %MON dynstat_theta_del2           =   4.1280190103474E-01
(PID.TID 0000.0001) %MON dynstat_salt_max             =   1.8382017122221E-02
(PID.TID 0000.0001) %MON dynstat_salt_min             =   1.2660769781545E-07
(PID.TID 0000.0001) %MON dynstat_salt_mean            =   2.1607665435526E-03
(PID.TID 0000.0001) %MON dynstat_salt_sd              =   3.4382952929775E-03
(PID.TID 0000.0001) %MON dynstat_salt_del2            =   1.3037159919022E-04
(PID.TID 0000.0001) %MON dynstat_sst_max              =   3.3249180904969E+02
(PID.TID 0000.0001) %MON dynstat_sst_min              =   2.7463821833757E+02
(PID.TID 0000.0001) %MON dynstat_sst_mean             =   3.0976506793867E+02
(PID.TID 0000.0001) %MON dynstat_sst_sd               =   1.1778043762590E+01
(PID.TID 0000.0001) %MON dynstat_sst_del2             =   3.0224775625387E-01
(PID.TID 0000.0001) %MON dynstat_sss_max              =   1.8382017122221E-02
(PID.TID 0000.0001) %MON dynstat_sss_min              =   8.8854689507388E-06
(PID.TID 0000.0001) %MON dynstat_sss_mean             =   4.3427533499833E-03
(PID.TID 0000.0001) %MON dynstat_sss_sd               =   3.8037149538014E-03
(PID.TID 0000.0001) %MON dynstat_sss_del2             =   2.7289362172350E-04
(PID.TID 0000.0001) %MON extforcing_qnet_max          =   0.0000000000000E+00
(PID.TID 0000.0001) %MON extforcing_qnet_min          =   0.0000000000000E+00
(PID.TID 0000.0001) %MON extforcing_qnet_mean         =   0.0000000000000E+00
(PID.TID 0000.0001) %MON extforcing_qnet_sd           =   0.0000000000000E+00
(PID.TID 0000.0001) %MON extforcing_qnet_del2         =   0.0000000000000E+00
(PID.TID 0000.0001) %MON extforcing_qsw_max           =   0.0000000000000E+00
(PID.TID 0000.0001) %MON extforcing_qsw_min           =   0.0000000000000E+00
(PID.TID 0000.0001) %MON extforcing_qsw_mean          =   0.0000000000000E+00
(PID.TID 0000.0001) %MON extforcing_qsw_sd            =   0.0000000000000E+00
(PID.TID 0000.0001) %MON extforcing_qsw_del2          =   0.0000000000000E+00
(PID.TID 0000.0001) %MON extforcing_empmr_max         =   0.0000000000000E+00
(PID.TID 0000.0001) %MON extforcing_empmr_min         =   0.0000000000000E+00
(PID.TID 0000.0001) %MON extforcing_empmr_mean        =   0.0000000000000E+00
(PID.TID 0000.0001) %MON extforcing_empmr_sd          =   0.0000000000000E+00
(PID.TID 0000.0001) %MON extforcing_empmr_del2        =   0.0000000000000E+00
(PID.TID 0000.0001) %MON extforcing_fu_max            =   0.0000000000000E+00
(PID.TID 0000.0001) %MON extforcing_fu_min            =   0.0000000000000E+00
(PID.TID 0000.0001) %MON extforcing_fu_mean           =   0.0000000000000E+00
(PID.TID 0000.0001) %MON extforcing_fu_sd             =   0.0000000000000E+00
(PID.TID 0000.0001) %MON extforcing_fu_del2           =   0.0000000000000E+00
(PID.TID 0000.0001) %MON extforcing_fv_max            =   0.0000000000000E+00
(PID.TID 0000.0001) %MON extforcing_fv_min            =   0.0000000000000E+00
(PID.TID 0000.0001) %MON extforcing_fv_mean           =   0.0000000000000E+00
(PID.TID 0000.0001) %MON extforcing_fv_sd             =   0.0000000000000E+00
(PID.TID 0000.0001) %MON extforcing_fv_del2           =   0.0000000000000E+00
(PID.TID 0000.0001) %MON advcfl_uvel_max              =   1.3904210789366E-01
(PID.TID 0000.0001) %MON advcfl_vvel_max              =   1.6395291837173E-01
(PID.TID 0000.0001) %MON advcfl_wvel_max              =   3.6219839820782E-02
(PID.TID 0000.0001) %MON advcfl_W_hf_max              =   3.6219839820782E-02
(PID.TID 0000.0001) %MON pe_b_mean                    =   0.0000000000000E+00
(PID.TID 0000.0001) %MON ke_max                       =   4.6694632543945E+03
(PID.TID 0000.0001) %MON ke_mean                      =   1.6749520987575E+02
(PID.TID 0000.0001) %MON ke_vol                       =   4.9640571943565E+19
(PID.TID 0000.0001) %MON vort_r_min                   =  -1.4007167191606E-04
(PID.TID 0000.0001) %MON vort_r_max                   =   2.0146134745066E-04
(PID.TID 0000.0001) %MON vort_a_mean                  =   7.8414871108886E-08
(PID.TID 0000.0001) %MON vort_a_sd                    =   8.8924455125370E-05
(PID.TID 0000.0001) %MON vort_p_mean                  =   8.0087619342586E-08
(PID.TID 0000.0001) %MON vort_p_sd                    =   9.4328832108828E-05
(PID.TID 0000.0001) %MON surfExpan_theta_mean         =   6.1149347178349E-19
(PID.TID 0000.0001) %MON surfExpan_salt_mean          =  -1.0421976198049E-21
(PID.TID 0000.0001) %MON surfExpan_Heat_mean          =  -1.7280799030272E-16
(PID.TID 0000.0001) %MON En_Budget_T2PE_mean          =   6.0471044232906E-01
(PID.TID 0000.0001) // =======================================================
(PID.TID 0000.0001) // End MONITOR dynamic field statistics
(PID.TID 0000.0001) // =======================================================

 Climatological Dataset is being used.
 Current model year is used to fill Header Dates
  Updated boundary condition data
  ---------------------------------
  Variable: SST     
  Description: 
 Sea surf temp (K) NASA TM 104606 Vol. 1 lat0/lon0 center of first grid box      
  Resolution: x=          192 y=           32 Undefined value = 
    999999986991104.0     
  Starting latitude =   -90.00000000000000      longitude =
   -180.0000000000000     
  Data valid at these times: 
    1:19921228         0    2:19930104         0    3:19930111         0
    4:19930118         0    5:19930125         0    6:19930201         0
    7:19930208         0    8:19930215         0    9:19930222         0
   10:19930301         0   11:19930308         0   12:19930315         0
   13:19930322         0   14:19930329         0   15:19930405         0
   16:19930412         0   17:19930419         0   18:19930426         0
   19:19930503         0   20:19930510         0   21:19930517         0
   22:19930524         0   23:19930531         0   24:19930607         0
   25:19930614         0   26:19930621         0   27:19930628         0
   28:19930705         0   29:19930712         0   30:19930719         0
   31:19930726         0   32:19930802         0   33:19930809         0
   34:19930816         0   35:19930823         0   36:19930830         0
   37:19930906         0   38:19930913         0   39:19930920         0
   40:19930927         0   41:19931004         0   42:19931011         0
   43:19931018         0   44:19931025         0   45:19931101         0
   46:19931108         0   47:19931115         0   48:19931122         0
   49:19931129         0   50:19931206         0   51:19931213         0
   52:19931220         0   53:19931227         0   54:19940103         0


 Climatological Dataset is being used.
 Current model year to be used to fill Header Dates
  Updated boundary condition data
  ---------------------------------
  Variable: SICE    
  Description: 
 NCEP Sea ice mask 0=no sea ice 1=sea ice lat0/lon0 center of first grid box     
  Resolution: x=          192 y=           32 Undefined value = 
    999999986991104.0     
  Starting latitude =   -90.00000000000000      longitude =
   -180.0000000000000     
  Data valid at these times: 
    1:19921228         0    2:19930104         0    3:19930111         0
    4:19930118         0    5:19930125         0    6:19930201         0
    7:19930208         0    8:19930215         0    9:19930222         0
   10:19930301         0   11:19930308         0   12:19930315         0
   13:19930322         0   14:19930329         0   15:19930405         0
   16:19930412         0   17:19930419         0   18:19930426         0
   19:19930503         0   20:19930510         0   21:19930517         0
   22:19930524         0   23:19930531         0   24:19930607         0
   25:19930614         0   26:19930621         0   27:19930628         0
   28:19930705         0   29:19930712         0   30:19930719         0
   31:19930726         0   32:19930802         0   33:19930809         0
   34:19930816         0   35:19930823         0   36:19930830         0
   37:19930906         0   38:19930913         0   39:19930920         0
   40:19930927         0   41:19931004         0   42:19931011         0
   43:19931018         0   44:19931025         0   45:19931101         0
   46:19931108         0   47:19931115         0   48:19931122         0
   49:19931129         0   50:19931206         0   51:19931213         0
   52:19931220         0   53:19931227         0   54:19940103         0


 Climatological Dataset is being used.
 Current model year is used to fill Header Dates
  Updated boundary condition data
  ---------------------------------
  Variable: SST     
  Description: 
 Sea surf temp (K) NASA TM 104606 Vol. 1 lat0/lon0 center of first grid box      
  Resolution: x=          192 y=           32 Undefined value = 
    999999986991104.0     
  Starting latitude =   -90.00000000000000      longitude =
   -180.0000000000000     
  Data valid at these times: 
    1:19921228         0    2:19930104         0    3:19930111         0
    4:19930118         0    5:19930125         0    6:19930201         0
    7:19930208         0    8:19930215         0    9:19930222         0
   10:19930301         0   11:19930308         0   12:19930315         0
   13:19930322         0   14:19930329         0   15:19930405         0
   16:19930412         0   17:19930419         0   18:19930426         0
   19:19930503         0   20:19930510         0   21:19930517         0
   22:19930524         0   23:19930531         0   24:19930607         0
   25:19930614         0   26:19930621         0   27:19930628         0
   28:19930705         0   29:19930712         0   30:19930719         0
   31:19930726         0   32:19930802         0   33:19930809         0
   34:19930816         0   35:19930823         0   36:19930830         0
   37:19930906         0   38:19930913         0   39:19930920         0
   40:19930927         0   41:19931004         0   42:19931011         0
   43:19931018         0   44:19931025         0   45:19931101         0
   46:19931108         0   47:19931115         0   48:19931122         0
   49:19931129         0   50:19931206         0   51:19931213         0
   52:19931220         0   53:19931227         0   54:19940103         0


 Climatological Dataset is being used.
 Current model year to be used to fill Header Dates
  Updated boundary condition data
  ---------------------------------
  Variable: SICE    
  Description: 
 NCEP Sea ice mask 0=no sea ice 1=sea ice lat0/lon0 center of first grid box     
  Resolution: x=          192 y=           32 Undefined value = 
    999999986991104.0     
  Starting latitude =   -90.00000000000000      longitude =
   -180.0000000000000     
  Data valid at these times: 
    1:19921228         0    2:19930104         0    3:19930111         0
    4:19930118         0    5:19930125         0    6:19930201         0
    7:19930208         0    8:19930215         0    9:19930222         0
   10:19930301         0   11:19930308         0   12:19930315         0
   13:19930322         0   14:19930329         0   15:19930405         0
   16:19930412         0   17:19930419         0   18:19930426         0
   19:19930503         0   20:19930510         0   21:19930517         0
   22:19930524         0   23:19930531         0   24:19930607         0
   25:19930614         0   26:19930621         0   27:19930628         0
   28:19930705         0   29:19930712         0   30:19930719         0
   31:19930726         0   32:19930802         0   33:19930809         0
   34:19930816         0   35:19930823         0   36:19930830         0
   37:19930906         0   38:19930913         0   39:19930920         0
   40:19930927         0   41:19931004         0   42:19931011         0
   43:19931018         0   44:19931025         0   45:19931101         0
   46:19931108         0   47:19931115         0   48:19931122         0
   49:19931129         0   50:19931206         0   51:19931213         0
   52:19931220         0   53:19931227         0   54:19940103         0


 Climatological Dataset is being used.
 Current model year is used to fill Header Dates
  Updated boundary condition data
  ---------------------------------
  Variable: SST     
  Description: 
 Sea surf temp (K) NASA TM 104606 Vol. 1 lat0/lon0 center of first grid box      
  Resolution: x=          192 y=           32 Undefined value = 
    999999986991104.0     
  Starting latitude =   -90.00000000000000      longitude =
   -180.0000000000000     
  Data valid at these times: 
    1:19921228         0    2:19930104         0    3:19930111         0
    4:19930118         0    5:19930125         0    6:19930201         0
    7:19930208         0    8:19930215         0    9:19930222         0
   10:19930301         0   11:19930308         0   12:19930315         0
   13:19930322         0   14:19930329         0   15:19930405         0
   16:19930412         0   17:19930419         0   18:19930426         0
   19:19930503         0   20:19930510         0   21:19930517         0
   22:19930524         0   23:19930531         0   24:19930607         0
   25:19930614         0   26:19930621         0   27:19930628         0
   28:19930705         0   29:19930712         0   30:19930719         0
   31:19930726         0   32:19930802         0   33:19930809         0
   34:19930816         0   35:19930823         0   36:19930830         0
   37:19930906         0   38:19930913         0   39:19930920         0
   40:19930927         0   41:19931004         0   42:19931011         0
   43:19931018         0   44:19931025         0   45:19931101         0
   46:19931108         0   47:19931115         0   48:19931122         0
   49:19931129         0   50:19931206         0   51:19931213         0
   52:19931220         0   53:19931227         0   54:19940103         0


 Climatological Dataset is being used.
 Current model year to be used to fill Header Dates
  Updated boundary condition data
  ---------------------------------
  Variable: SICE    
  Description: 
 NCEP Sea ice mask 0=no sea ice 1=sea ice lat0/lon0 center of first grid box     
  Resolution: x=          192 y=           32 Undefined value = 
    999999986991104.0     
  Starting latitude =   -90.00000000000000      longitude =
   -180.0000000000000     
  Data valid at these times: 
    1:19921228         0    2:19930104         0    3:19930111         0
    4:19930118         0    5:19930125         0    6:19930201         0
    7:19930208         0    8:19930215         0    9:19930222         0
   10:19930301         0   11:19930308         0   12:19930315         0
   13:19930322         0   14:19930329         0   15:19930405         0
   16:19930412         0   17:19930419         0   18:19930426         0
   19:19930503         0   20:19930510         0   21:19930517         0
   22:19930524         0   23:19930531         0   24:19930607         0
   25:19930614         0   26:19930621         0   27:19930628         0
   28:19930705         0   29:19930712         0   30:19930719         0
   31:19930726         0   32:19930802         0   33:19930809         0
   34:19930816         0   35:19930823         0   36:19930830         0
   37:19930906         0   38:19930913         0   39:19930920         0
   40:19930927         0   41:19931004         0   42:19931011         0
   43:19931018         0   44:19931025         0   45:19931101         0
   46:19931108         0   47:19931115         0   48:19931122         0
   49:19931129         0   50:19931206         0   51:19931213         0
   52:19931220         0   53:19931227         0   54:19940103         0


 Climatological Dataset is being used.
 Current model year is used to fill Header Dates
  Updated boundary condition data
  ---------------------------------
  Variable: SST     
  Description: 
 Sea surf temp (K) NASA TM 104606 Vol. 1 lat0/lon0 center of first grid box      
  Resolution: x=          192 y=           32 Undefined value = 
    999999986991104.0     
  Starting latitude =   -90.00000000000000      longitude =
   -180.0000000000000     
  Data valid at these times: 
    1:19921228         0    2:19930104         0    3:19930111         0
    4:19930118         0    5:19930125         0    6:19930201         0
    7:19930208         0    8:19930215         0    9:19930222         0
   10:19930301         0   11:19930308         0   12:19930315         0
   13:19930322         0   14:19930329         0   15:19930405         0
   16:19930412         0   17:19930419         0   18:19930426         0
   19:19930503         0   20:19930510         0   21:19930517         0
   22:19930524         0   23:19930531         0   24:19930607         0
   25:19930614         0   26:19930621         0   27:19930628         0
   28:19930705         0   29:19930712         0   30:19930719         0
   31:19930726         0   32:19930802         0   33:19930809         0
   34:19930816         0   35:19930823         0   36:19930830         0
   37:19930906         0   38:19930913         0   39:19930920         0
   40:19930927         0   41:19931004         0   42:19931011         0
   43:19931018         0   44:19931025         0   45:19931101         0
   46:19931108         0   47:19931115         0   48:19931122         0
   49:19931129         0   50:19931206         0   51:19931213         0
   52:19931220         0   53:19931227         0   54:19940103         0


 Climatological Dataset is being used.
 Current model year to be used to fill Header Dates
  Updated boundary condition data
  ---------------------------------
  Variable: SICE    
  Description: 
 NCEP Sea ice mask 0=no sea ice 1=sea ice lat0/lon0 center of first grid box     
  Resolution: x=          192 y=           32 Undefined value = 
    999999986991104.0     
  Starting latitude =   -90.00000000000000      longitude =
   -180.0000000000000     
  Data valid at these times: 
    1:19921228         0    2:19930104         0    3:19930111         0
    4:19930118         0    5:19930125         0    6:19930201         0
    7:19930208         0    8:19930215         0    9:19930222         0
   10:19930301         0   11:19930308         0   12:19930315         0
   13:19930322         0   14:19930329         0   15:19930405         0
   16:19930412         0   17:19930419         0   18:19930426         0
   19:19930503         0   20:19930510         0   21:19930517         0
   22:19930524         0   23:19930531         0   24:19930607         0
   25:19930614         0   26:19930621         0   27:19930628         0
   28:19930705         0   29:19930712         0   30:19930719         0
   31:19930726         0   32:19930802         0   33:19930809         0
   34:19930816         0   35:19930823         0   36:19930830         0
   37:19930906         0   38:19930913         0   39:19930920         0
   40:19930927         0   41:19931004         0   42:19931011         0
   43:19931018         0   44:19931025         0   45:19931101         0
   46:19931108         0   47:19931115         0   48:19931122         0
   49:19931129         0   50:19931206         0   51:19931213         0
   52:19931220         0   53:19931227         0   54:19940103         0


 Climatological Dataset is being used.
 Current model year is used to fill Header Dates
  Updated boundary condition data
  ---------------------------------
  Variable: SST     
  Description: 
 Sea surf temp (K) NASA TM 104606 Vol. 1 lat0/lon0 center of first grid box      
  Resolution: x=          192 y=           32 Undefined value = 
    999999986991104.0     
  Starting latitude =   -90.00000000000000      longitude =
   -180.0000000000000     
  Data valid at these times: 
    1:19921228         0    2:19930104         0    3:19930111         0
    4:19930118         0    5:19930125         0    6:19930201         0
    7:19930208         0    8:19930215         0    9:19930222         0
   10:19930301         0   11:19930308         0   12:19930315         0
   13:19930322         0   14:19930329         0   15:19930405         0
   16:19930412         0   17:19930419         0   18:19930426         0
   19:19930503         0   20:19930510         0   21:19930517         0
   22:19930524         0   23:19930531         0   24:19930607         0
   25:19930614         0   26:19930621         0   27:19930628         0
   28:19930705         0   29:19930712         0   30:19930719         0
   31:19930726         0   32:19930802         0   33:19930809         0
   34:19930816         0   35:19930823         0   36:19930830         0
   37:19930906         0   38:19930913         0   39:19930920         0
   40:19930927         0   41:19931004         0   42:19931011         0
   43:19931018         0   44:19931025         0   45:19931101         0
   46:19931108         0   47:19931115         0   48:19931122         0
   49:19931129         0   50:19931206         0   51:19931213         0
   52:19931220         0   53:19931227         0   54:19940103         0


 Climatological Dataset is being used.
 Current model year to be used to fill Header Dates
  Updated boundary condition data
  ---------------------------------
  Variable: SICE    
  Description: 
 NCEP Sea ice mask 0=no sea ice 1=sea ice lat0/lon0 center of first grid box     
  Resolution: x=          192 y=           32 Undefined value = 
    999999986991104.0     
  Starting latitude =   -90.00000000000000      longitude =
   -180.0000000000000     
  Data valid at these times: 
    1:19921228         0    2:19930104         0    3:19930111         0
    4:19930118         0    5:19930125         0    6:19930201         0
    7:19930208         0    8:19930215         0    9:19930222         0
   10:19930301         0   11:19930308         0   12:19930315         0
   13:19930322         0   14:19930329         0   15:19930405         0
   16:19930412         0   17:19930419         0   18:19930426         0
   19:19930503         0   20:19930510         0   21:19930517         0
   22:19930524         0   23:19930531         0   24:19930607         0
   25:19930614         0   26:19930621         0   27:19930628         0
   28:19930705         0   29:19930712         0   30:19930719         0
   31:19930726         0   32:19930802         0   33:19930809         0
   34:19930816         0   35:19930823         0   36:19930830         0
   37:19930906         0   38:19930913         0   39:19930920         0
   40:19930927         0   41:19931004         0   42:19931011         0
   43:19931018         0   44:19931025         0   45:19931101         0
   46:19931108         0   47:19931115         0   48:19931122         0
   49:19931129         0   50:19931206         0   51:19931213         0
   52:19931220         0   53:19931227         0   54:19940103         0


 Climatological Dataset is being used.
 Current model year is used to fill Header Dates
  Updated boundary condition data
  ---------------------------------
  Variable: SST     
  Description: 
 Sea surf temp (K) NASA TM 104606 Vol. 1 lat0/lon0 center of first grid box      
  Resolution: x=          192 y=           32 Undefined value = 
    999999986991104.0     
  Starting latitude =   -90.00000000000000      longitude =
   -180.0000000000000     
  Data valid at these times: 
    1:19921228         0    2:19930104         0    3:19930111         0
    4:19930118         0    5:19930125         0    6:19930201         0
    7:19930208         0    8:19930215         0    9:19930222         0
   10:19930301         0   11:19930308         0   12:19930315         0
   13:19930322         0   14:19930329         0   15:19930405         0
   16:19930412         0   17:19930419         0   18:19930426         0
   19:19930503         0   20:19930510         0   21:19930517         0
   22:19930524         0   23:19930531         0   24:19930607         0
   25:19930614         0   26:19930621         0   27:19930628         0
   28:19930705         0   29:19930712         0   30:19930719         0
   31:19930726         0   32:19930802         0   33:19930809         0
   34:19930816         0   35:19930823         0   36:19930830         0
   37:19930906         0   38:19930913         0   39:19930920         0
   40:19930927         0   41:19931004         0   42:19931011         0
   43:19931018         0   44:19931025         0   45:19931101         0
   46:19931108         0   47:19931115         0   48:19931122         0
   49:19931129         0   50:19931206         0   51:19931213         0
   52:19931220         0   53:19931227         0   54:19940103         0


 Climatological Dataset is being used.
 Current model year to be used to fill Header Dates
  Updated boundary condition data
  ---------------------------------
  Variable: SICE    
  Description: 
 NCEP Sea ice mask 0=no sea ice 1=sea ice lat0/lon0 center of first grid box     
  Resolution: x=          192 y=           32 Undefined value = 
    999999986991104.0     
  Starting latitude =   -90.00000000000000      longitude =
   -180.0000000000000     
  Data valid at these times: 
    1:19921228         0    2:19930104         0    3:19930111         0
    4:19930118         0    5:19930125         0    6:19930201         0
    7:19930208         0    8:19930215         0    9:19930222         0
   10:19930301         0   11:19930308         0   12:19930315         0
   13:19930322         0   14:19930329         0   15:19930405         0
   16:19930412         0   17:19930419         0   18:19930426         0
   19:19930503         0   20:19930510         0   21:19930517         0
   22:19930524         0   23:19930531         0   24:19930607         0
   25:19930614         0   26:19930621         0   27:19930628         0
   28:19930705         0   29:19930712         0   30:19930719         0
   31:19930726         0   32:19930802         0   33:19930809         0
   34:19930816         0   35:19930823         0   36:19930830         0
   37:19930906         0   38:19930913         0   39:19930920         0
   40:19930927         0   41:19931004         0   42:19931011         0
   43:19931018         0   44:19931025         0   45:19931101         0
   46:19931108         0   47:19931115         0   48:19931122         0
   49:19931129         0   50:19931206         0   51:19931213         0
   52:19931220         0   53:19931227         0   54:19940103         0


 Low-Level Clouds are Grouped between levels:           21 and           10
 Mid-Level Clouds are Grouped between levels:            9 and            7


 Warning!
 Turbulent Kinetic Energy has not been initialized.
 Cold-Start will use Level 2.0 Turbulence.


 Top Level Allowed for Convection :            3
           Highest Sub-Cloud Level:           13
           Lowest  Sub-Cloud Level:           17
     Total Number of Random Clouds:            9

 Creating Rand Numb Array in RNDCLOUD, iseed=           0
 IRAS:            1  IRAS0:            0 indx:            0
 Current Date     19930110 Current Time        60500
 cg2d: Sum(rhs),rhsMax =  -2.18278728425503E-11  5.77981072487097E+03
(PID.TID 0000.0001)                    cg2d_init_res =    3.93615661295953E+04
(PID.TID 0000.0001)                       cg2d_iters =    13
(PID.TID 0000.0001)                         cg2d_res =    1.73561443870038E-11
(PID.TID 0000.0001) // =======================================================
(PID.TID 0000.0001) // Begin MONITOR dynamic field statistics
(PID.TID 0000.0001) // =======================================================
(PID.TID 0000.0001) %MON time_tsnumber                =                     1
(PID.TID 0000.0001) %MON time_secondsf                =   3.0000000000000E+02
(PID.TID 0000.0001) %MON dynstat_eta_max              =   4.2322169761593E+02
(PID.TID 0000.0001) %MON dynstat_eta_min              =  -3.6033670986948E+02
(PID.TID 0000.0001) %MON dynstat_eta_mean             =   1.0041889380123E-15
(PID.TID 0000.0001) %MON dynstat_eta_sd               =   4.3671655282766E+01
(PID.TID 0000.0001) %MON dynstat_eta_del2             =   2.0516318339164E+01
(PID.TID 0000.0001) %MON dynstat_uvel_max             =   7.2244586264456E+01
(PID.TID 0000.0001) %MON dynstat_uvel_min             =  -7.8447757690588E+01
(PID.TID 0000.0001) %MON dynstat_uvel_mean            =   1.7584964265535E+00
(PID.TID 0000.0001) %MON dynstat_uvel_sd              =   1.2867352674091E+01
(PID.TID 0000.0001) %MON dynstat_uvel_del2            =   8.8080669548162E-01
(PID.TID 0000.0001) %MON dynstat_vvel_max             =   6.9694112603019E+01
(PID.TID 0000.0001) %MON dynstat_vvel_min             =  -7.4429724599518E+01
(PID.TID 0000.0001) %MON dynstat_vvel_mean            =   1.8839665428752E+00
(PID.TID 0000.0001) %MON dynstat_vvel_sd              =   1.2838062020204E+01
(PID.TID 0000.0001) %MON dynstat_vvel_del2            =   8.6255778640518E-01
(PID.TID 0000.0001) %MON dynstat_wvel_max             =   6.7320622587940E-01
(PID.TID 0000.0001) %MON dynstat_wvel_min             =  -1.2218848744770E+00
(PID.TID 0000.0001) %MON dynstat_wvel_mean            =   3.2871396874041E-04
(PID.TID 0000.0001) %MON dynstat_wvel_sd              =   9.9032371200875E-02
(PID.TID 0000.0001) %MON dynstat_wvel_del2            =   3.1614424105610E-02
(PID.TID 0000.0001) %MON dynstat_theta_max            =   4.5419322835702E+02
(PID.TID 0000.0001) %MON dynstat_theta_min            =   2.3002799604232E+02
(PID.TID 0000.0001) %MON dynstat_theta_mean           =   3.2428846686456E+02
(PID.TID 0000.0001) %MON dynstat_theta_sd             =   3.6266321957814E+01
(PID.TID 0000.0001) %MON dynstat_theta_del2           =   4.1268186839273E-01
(PID.TID 0000.0001) %MON dynstat_salt_max             =   1.8028261625646E-02
(PID.TID 0000.0001) %MON dynstat_salt_min             =   6.6439015212904E-08
(PID.TID 0000.0001) %MON dynstat_salt_mean            =   2.1587801072331E-03
(PID.TID 0000.0001) %MON dynstat_salt_sd              =   3.4272740512800E-03
(PID.TID 0000.0001) %MON dynstat_salt_del2            =   1.2923773028875E-04
(PID.TID 0000.0001) %MON dynstat_sst_max              =   3.3250072337932E+02
(PID.TID 0000.0001) %MON dynstat_sst_min              =   2.7468735739677E+02
(PID.TID 0000.0001) %MON dynstat_sst_mean             =   3.0977013097612E+02
(PID.TID 0000.0001) %MON dynstat_sst_sd               =   1.1765526743479E+01
(PID.TID 0000.0001) %MON dynstat_sst_del2             =   2.9993774817450E-01
(PID.TID 0000.0001) %MON dynstat_sss_max              =   1.7830424056731E-02
(PID.TID 0000.0001) %MON dynstat_sss_min              =   8.9308259413646E-06
(PID.TID 0000.0001) %MON dynstat_sss_mean             =   4.3405066160719E-03
(PID.TID 0000.0001) %MON dynstat_sss_sd               =   3.7918282624992E-03
(PID.TID 0000.0001) %MON dynstat_sss_del2             =   2.6977780632997E-04
(PID.TID 0000.0001) %MON extforcing_qnet_max          =   0.0000000000000E+00
(PID.TID 0000.0001) %MON extforcing_qnet_min          =   0.0000000000000E+00
(PID.TID 0000.0001) %MON extforcing_qnet_mean         =   0.0000000000000E+00
(PID.TID 0000.0001) %MON extforcing_qnet_sd           =   0.0000000000000E+00
(PID.TID 0000.0001) %MON extforcing_qnet_del2         =   0.0000000000000E+00
(PID.TID 0000.0001) %MON extforcing_qsw_max           =   0.0000000000000E+00
(PID.TID 0000.0001) %MON extforcing_qsw_min           =   0.0000000000000E+00
(PID.TID 0000.0001) %MON extforcing_qsw_mean          =   0.0000000000000E+00
(PID.TID 0000.0001) %MON extforcing_qsw_sd            =   0.0000000000000E+00
(PID.TID 0000.0001) %MON extforcing_qsw_del2          =   0.0000000000000E+00
(PID.TID 0000.0001) %MON extforcing_empmr_max         =   0.0000000000000E+00
(PID.TID 0000.0001) %MON extforcing_empmr_min         =   0.0000000000000E+00
(PID.TID 0000.0001) %MON extforcing_empmr_mean        =   0.0000000000000E+00
(PID.TID 0000.0001) %MON extforcing_empmr_sd          =   0.0000000000000E+00
(PID.TID 0000.0001) %MON extforcing_empmr_del2        =   0.0000000000000E+00
(PID.TID 0000.0001) %MON extforcing_fu_max            =   0.0000000000000E+00
(PID.TID 0000.0001) %MON extforcing_fu_min            =   0.0000000000000E+00
(PID.TID 0000.0001) %MON extforcing_fu_mean           =   0.0000000000000E+00
(PID.TID 0000.0001) %MON extforcing_fu_sd             =   0.0000000000000E+00
(PID.TID 0000.0001) %MON extforcing_fu_del2           =   0.0000000000000E+00
(PID.TID 0000.0001) %MON extforcing_fv_max            =   0.0000000000000E+00
(PID.TID 0000.0001) %MON extforcing_fv_min            =   0.0000000000000E+00
(PID.TID 0000.0001) %MON extforcing_fv_mean           =   0.0000000000000E+00
(PID.TID 0000.0001) %MON extforcing_fv_sd             =   0.0000000000000E+00
(PID.TID 0000.0001) %MON extforcing_fv_del2           =   0.0000000000000E+00
(PID.TID 0000.0001) %MON advcfl_uvel_max              =   1.3877755275850E-01
(PID.TID 0000.0001) %MON advcfl_vvel_max              =   1.6538269580833E-01
(PID.TID 0000.0001) %MON advcfl_wvel_max              =   3.6656546234311E-02
(PID.TID 0000.0001) %MON advcfl_W_hf_max              =   3.6656546234311E-02
(PID.TID 0000.0001) %MON pe_b_mean                    =   8.6072873413520E-03
(PID.TID 0000.0001) %MON ke_max                       =   4.6561420391997E+03
(PID.TID 0000.0001) %MON ke_mean                      =   1.6748363557656E+02
(PID.TID 0000.0001) %MON ke_vol                       =   4.9640571943565E+19
(PID.TID 0000.0001) %MON vort_r_min                   =  -1.3997295850583E-04
(PID.TID 0000.0001) %MON vort_r_max                   =   1.9977988072279E-04
(PID.TID 0000.0001) %MON vort_a_mean                  =   7.8414871108995E-08
(PID.TID 0000.0001) %MON vort_a_sd                    =   8.8917949054886E-05
(PID.TID 0000.0001) %MON vort_p_mean                  =   8.0087619342697E-08
(PID.TID 0000.0001) %MON vort_p_sd                    =   9.4309007537975E-05
(PID.TID 0000.0001) %MON surfExpan_theta_mean         =  -3.2791406614507E-02
(PID.TID 0000.0001) %MON surfExpan_salt_mean          =  -7.6920093886957E-06
(PID.TID 0000.0001) %MON surfExpan_Heat_mean          =   2.9169207833535E+00
(PID.TID 0000.0001) %MON En_Budget_T2PE_mean          =  -2.3535532197638E+00
(PID.TID 0000.0001) // =======================================================
(PID.TID 0000.0001) // End MONITOR dynamic field statistics
(PID.TID 0000.0001) // =======================================================
 Current Date     19930110 Current Time        61000
 cg2d: Sum(rhs),rhsMax =  -8.73114913702011E-11  1.09454210080305E+04
(PID.TID 0000.0001)                    cg2d_init_res =    4.87398979863667E+04
(PID.TID 0000.0001)                       cg2d_iters =    13
(PID.TID 0000.0001)                         cg2d_res =    2.10238621169336E-11
(PID.TID 0000.0001) // =======================================================
(PID.TID 0000.0001) // Begin MONITOR dynamic field statistics
(PID.TID 0000.0001) // =======================================================
(PID.TID 0000.0001) %MON time_tsnumber                =                     2
(PID.TID 0000.0001) %MON time_secondsf                =   6.0000000000000E+02
(PID.TID 0000.0001) %MON dynstat_eta_max              =   7.9571191901117E+02
(PID.TID 0000.0001) %MON dynstat_eta_min              =  -6.4636889353197E+02
(PID.TID 0000.0001) %MON dynstat_eta_mean             =   4.0167557520491E-15
(PID.TID 0000.0001) %MON dynstat_eta_sd               =   9.6125707015981E+01
(PID.TID 0000.0001) %MON dynstat_eta_del2             =   3.9569395798435E+01
(PID.TID 0000.0001) %MON dynstat_uvel_max             =   7.2176269062298E+01
(PID.TID 0000.0001) %MON dynstat_uvel_min             =  -7.8266941390352E+01
(PID.TID 0000.0001) %MON dynstat_uvel_mean            =   1.7451923461526E+00
(PID.TID 0000.0001) %MON dynstat_uvel_sd              =   1.2869104844775E+01
(PID.TID 0000.0001) %MON dynstat_uvel_del2            =   8.8303378323377E-01
(PID.TID 0000.0001) %MON dynstat_vvel_max             =   6.9313775590685E+01
(PID.TID 0000.0001) %MON dynstat_vvel_min             =  -7.3916723670995E+01
(PID.TID 0000.0001) %MON dynstat_vvel_mean            =   1.8971673229402E+00
(PID.TID 0000.0001) %MON dynstat_vvel_sd              =   1.2832858512868E+01
(PID.TID 0000.0001) %MON dynstat_vvel_del2            =   8.6498464087675E-01
(PID.TID 0000.0001) %MON dynstat_wvel_max             =   7.0642978724222E-01
(PID.TID 0000.0001) %MON dynstat_wvel_min             =  -1.2376079991737E+00
(PID.TID 0000.0001) %MON dynstat_wvel_mean            =   5.1293022538762E-04
(PID.TID 0000.0001) %MON dynstat_wvel_sd              =   9.9793379499734E-02
(PID.TID 0000.0001) %MON dynstat_wvel_del2            =   3.1982092906940E-02
(PID.TID 0000.0001) %MON dynstat_theta_max            =   4.5459233910497E+02
(PID.TID 0000.0001) %MON dynstat_theta_min            =   2.3006728735034E+02
(PID.TID 0000.0001) %MON dynstat_theta_mean           =   3.2435036723514E+02
(PID.TID 0000.0001) %MON dynstat_theta_sd             =   3.6373880156452E+01
(PID.TID 0000.0001) %MON dynstat_theta_del2           =   4.1407043106636E-01
(PID.TID 0000.0001) %MON dynstat_salt_max             =   1.7974166225753E-02
(PID.TID 0000.0001) %MON dynstat_salt_min             =   4.8844729948579E-08
(PID.TID 0000.0001) %MON dynstat_salt_mean            =   2.1567966023183E-03
(PID.TID 0000.0001) %MON dynstat_salt_sd              =   3.4178788727942E-03
(PID.TID 0000.0001) %MON dynstat_salt_del2            =   1.3111863601112E-04
(PID.TID 0000.0001) %MON dynstat_sst_max              =   3.3251004234879E+02
(PID.TID 0000.0001) %MON dynstat_sst_min              =   2.7473853871248E+02
(PID.TID 0000.0001) %MON dynstat_sst_mean             =   3.0977526426428E+02
(PID.TID 0000.0001) %MON dynstat_sst_sd               =   1.1753450372590E+01
(PID.TID 0000.0001) %MON dynstat_sst_del2             =   3.0139080396521E-01
(PID.TID 0000.0001) %MON dynstat_sss_max              =   1.7658179394441E-02
(PID.TID 0000.0001) %MON dynstat_sss_min              =   8.8542432186542E-06
(PID.TID 0000.0001) %MON dynstat_sss_mean             =   4.3382068103323E-03
(PID.TID 0000.0001) %MON dynstat_sss_sd               =   3.7811634322135E-03
(PID.TID 0000.0001) %MON dynstat_sss_del2             =   2.7016239634921E-04
(PID.TID 0000.0001) %MON extforcing_qnet_max          =   0.0000000000000E+00
(PID.TID 0000.0001) %MON extforcing_qnet_min          =   0.0000000000000E+00
(PID.TID 0000.0001) %MON extforcing_qnet_mean         =   0.0000000000000E+00
(PID.TID 0000.0001) %MON extforcing_qnet_sd           =   0.0000000000000E+00
(PID.TID 0000.0001) %MON extforcing_qnet_del2         =   0.0000000000000E+00
(PID.TID 0000.0001) %MON extforcing_qsw_max           =   0.0000000000000E+00
(PID.TID 0000.0001) %MON extforcing_qsw_min           =   0.0000000000000E+00
(PID.TID 0000.0001) %MON extforcing_qsw_mean          =   0.0000000000000E+00
(PID.TID 0000.0001) %MON extforcing_qsw_sd            =   0.0000000000000E+00
(PID.TID 0000.0001) %MON extforcing_qsw_del2          =   0.0000000000000E+00
(PID.TID 0000.0001) %MON extforcing_empmr_max         =   0.0000000000000E+00
(PID.TID 0000.0001) %MON extforcing_empmr_min         =   0.0000000000000E+00
(PID.TID 0000.0001) %MON extforcing_empmr_mean        =   0.0000000000000E+00
(PID.TID 0000.0001) %MON extforcing_empmr_sd          =   0.0000000000000E+00
(PID.TID 0000.0001) %MON extforcing_empmr_del2        =   0.0000000000000E+00
(PID.TID 0000.0001) %MON extforcing_fu_max            =   0.0000000000000E+00
(PID.TID 0000.0001) %MON extforcing_fu_min            =   0.0000000000000E+00
(PID.TID 0000.0001) %MON extforcing_fu_mean           =   0.0000000000000E+00
(PID.TID 0000.0001) %MON extforcing_fu_sd             =   0.0000000000000E+00
(PID.TID 0000.0001) %MON extforcing_fu_del2           =   0.0000000000000E+00
(PID.TID 0000.0001) %MON extforcing_fv_max            =   0.0000000000000E+00
(PID.TID 0000.0001) %MON extforcing_fv_min            =   0.0000000000000E+00
(PID.TID 0000.0001) %MON extforcing_fv_mean           =   0.0000000000000E+00
(PID.TID 0000.0001) %MON extforcing_fv_sd             =   0.0000000000000E+00
(PID.TID 0000.0001) %MON extforcing_fv_del2           =   0.0000000000000E+00
(PID.TID 0000.0001) %MON advcfl_uvel_max              =   1.3845923821976E-01
(PID.TID 0000.0001) %MON advcfl_vvel_max              =   1.6686765883268E-01
(PID.TID 0000.0001) %MON advcfl_wvel_max              =   3.7128239975212E-02
(PID.TID 0000.0001) %MON advcfl_W_hf_max              =   3.7256450625925E-02
(PID.TID 0000.0001) %MON pe_b_mean                    =   4.1994445944351E-02
(PID.TID 0000.0001) %MON ke_max                       =   4.6396390343942E+03
(PID.TID 0000.0001) %MON ke_mean                      =   1.6744130235393E+02
(PID.TID 0000.0001) %MON ke_vol                       =   4.9640571943565E+19
(PID.TID 0000.0001) %MON vort_r_min                   =  -1.3961365309462E-04
(PID.TID 0000.0001) %MON vort_r_max                   =   1.9739990198333E-04
(PID.TID 0000.0001) %MON vort_a_mean                  =   7.8414871108948E-08
(PID.TID 0000.0001) %MON vort_a_sd                    =   8.8908797150489E-05
(PID.TID 0000.0001) %MON vort_p_mean                  =   8.0087617829496E-08
(PID.TID 0000.0001) %MON vort_p_sd                    =   9.4290671530919E-05
(PID.TID 0000.0001) %MON surfExpan_theta_mean         =  -6.6017755405903E-02
(PID.TID 0000.0001) %MON surfExpan_salt_mean          =  -1.3021644138948E-05
(PID.TID 0000.0001) %MON surfExpan_Heat_mean          =   3.3923386846299E+00
(PID.TID 0000.0001) %MON En_Budget_T2PE_mean          =  -4.3489467492534E+00
(PID.TID 0000.0001) // =======================================================
(PID.TID 0000.0001) // End MONITOR dynamic field statistics
(PID.TID 0000.0001) // =======================================================
 Current Date     19930110 Current Time        61500
 cg2d: Sum(rhs),rhsMax =  -5.82076609134674E-11  1.74867051480707E+04
(PID.TID 0000.0001)                    cg2d_init_res =    5.42084474643514E+04
(PID.TID 0000.0001)                       cg2d_iters =    13
(PID.TID 0000.0001)                         cg2d_res =    2.45006571504195E-11
(PID.TID 0000.0001) // =======================================================
(PID.TID 0000.0001) // Begin MONITOR dynamic field statistics
(PID.TID 0000.0001) // =======================================================
(PID.TID 0000.0001) %MON time_tsnumber                =                     3
(PID.TID 0000.0001) %MON time_secondsf                =   9.0000000000000E+02
(PID.TID 0000.0001) %MON dynstat_eta_max              =   1.3036738523887E+03
(PID.TID 0000.0001) %MON dynstat_eta_min              =  -1.0943052060128E+03
(PID.TID 0000.0001) %MON dynstat_eta_mean             =  -4.0167557520491E-15
(PID.TID 0000.0001) %MON dynstat_eta_sd               =   1.5515371619287E+02
(PID.TID 0000.0001) %MON dynstat_eta_del2             =   5.5155993693227E+01
(PID.TID 0000.0001) %MON dynstat_uvel_max             =   7.2153779053279E+01
(PID.TID 0000.0001) %MON dynstat_uvel_min             =  -7.8093389471792E+01
(PID.TID 0000.0001) %MON dynstat_uvel_mean            =   1.7323266423771E+00
(PID.TID 0000.0001) %MON dynstat_uvel_sd              =   1.2871773035547E+01
(PID.TID 0000.0001) %MON dynstat_uvel_del2            =   8.8340816104864E-01
(PID.TID 0000.0001) %MON dynstat_vvel_max             =   6.8968551626082E+01
(PID.TID 0000.0001) %MON dynstat_vvel_min             =  -7.3414146230630E+01
(PID.TID 0000.0001) %MON dynstat_vvel_mean            =   1.9098687374525E+00
(PID.TID 0000.0001) %MON dynstat_vvel_sd              =   1.2829152289910E+01
(PID.TID 0000.0001) %MON dynstat_vvel_del2            =   8.6599006776303E-01
(PID.TID 0000.0001) %MON dynstat_wvel_max             =   7.3495928474062E-01
(PID.TID 0000.0001) %MON dynstat_wvel_min             =  -1.2544984706292E+00
(PID.TID 0000.0001) %MON dynstat_wvel_mean            =   6.2193911876488E-04
(PID.TID 0000.0001) %MON dynstat_wvel_sd              =   1.0077740785113E-01
(PID.TID 0000.0001) %MON dynstat_wvel_del2            =   3.2343053261631E-02
(PID.TID 0000.0001) %MON dynstat_theta_max            =   4.5497436800796E+02
(PID.TID 0000.0001) %MON dynstat_theta_min            =   2.3010703865109E+02
(PID.TID 0000.0001) %MON dynstat_theta_mean           =   3.2440472596002E+02
(PID.TID 0000.0001) %MON dynstat_theta_sd             =   3.6488491342716E+01
(PID.TID 0000.0001) %MON dynstat_theta_del2           =   4.1238013178443E-01
(PID.TID 0000.0001) %MON dynstat_salt_max             =   1.8009465389757E-02
(PID.TID 0000.0001) %MON dynstat_salt_min             =  -8.6081879028926E-08
(PID.TID 0000.0001) %MON dynstat_salt_mean            =   2.1575974368420E-03
(PID.TID 0000.0001) %MON dynstat_salt_sd              =   3.4191462055403E-03
(PID.TID 0000.0001) %MON dynstat_salt_del2            =   1.3066170413360E-04
(PID.TID 0000.0001) %MON dynstat_sst_max              =   3.3251958996621E+02
(PID.TID 0000.0001) %MON dynstat_sst_min              =   2.7476335640220E+02
(PID.TID 0000.0001) %MON dynstat_sst_mean             =   3.0977029907661E+02
(PID.TID 0000.0001) %MON dynstat_sst_sd               =   1.1752602635032E+01
(PID.TID 0000.0001) %MON dynstat_sst_del2             =   2.9993915407591E-01
(PID.TID 0000.0001) %MON dynstat_sss_max              =   1.7654838271688E-02
(PID.TID 0000.0001) %MON dynstat_sss_min              =   7.0300990818344E-06
(PID.TID 0000.0001) %MON dynstat_sss_mean             =   4.3395483571563E-03
(PID.TID 0000.0001) %MON dynstat_sss_sd               =   3.7828279234993E-03
(PID.TID 0000.0001) %MON dynstat_sss_del2             =   2.6908763426998E-04
(PID.TID 0000.0001) %MON extforcing_qnet_max          =   0.0000000000000E+00
(PID.TID 0000.0001) %MON extforcing_qnet_min          =   0.0000000000000E+00
(PID.TID 0000.0001) %MON extforcing_qnet_mean         =   0.0000000000000E+00
(PID.TID 0000.0001) %MON extforcing_qnet_sd           =   0.0000000000000E+00
(PID.TID 0000.0001) %MON extforcing_qnet_del2         =   0.0000000000000E+00
(PID.TID 0000.0001) %MON extforcing_qsw_max           =   0.0000000000000E+00
(PID.TID 0000.0001) %MON extforcing_qsw_min           =   0.0000000000000E+00
(PID.TID 0000.0001) %MON extforcing_qsw_mean          =   0.0000000000000E+00
(PID.TID 0000.0001) %MON extforcing_qsw_sd            =   0.0000000000000E+00
(PID.TID 0000.0001) %MON extforcing_qsw_del2          =   0.0000000000000E+00
(PID.TID 0000.0001) %MON extforcing_empmr_max         =   0.0000000000000E+00
(PID.TID 0000.0001) %MON extforcing_empmr_min         =   0.0000000000000E+00
(PID.TID 0000.0001) %MON extforcing_empmr_mean        =   0.0000000000000E+00
(PID.TID 0000.0001) %MON extforcing_empmr_sd          =   0.0000000000000E+00
(PID.TID 0000.0001) %MON extforcing_empmr_del2        =   0.0000000000000E+00
(PID.TID 0000.0001) %MON extforcing_fu_max            =   0.0000000000000E+00
(PID.TID 0000.0001) %MON extforcing_fu_min            =   0.0000000000000E+00
(PID.TID 0000.0001) %MON extforcing_fu_mean           =   0.0000000000000E+00
(PID.TID 0000.0001) %MON extforcing_fu_sd             =   0.0000000000000E+00
(PID.TID 0000.0001) %MON extforcing_fu_del2           =   0.0000000000000E+00
(PID.TID 0000.0001) %MON extforcing_fv_max            =   0.0000000000000E+00
(PID.TID 0000.0001) %MON extforcing_fv_min            =   0.0000000000000E+00
(PID.TID 0000.0001) %MON extforcing_fv_mean           =   0.0000000000000E+00
(PID.TID 0000.0001) %MON extforcing_fv_sd             =   0.0000000000000E+00
(PID.TID 0000.0001) %MON extforcing_fv_del2           =   0.0000000000000E+00
(PID.TID 0000.0001) %MON advcfl_uvel_max              =   1.3837197091700E-01
(PID.TID 0000.0001) %MON advcfl_vvel_max              =   1.6724042520867E-01
(PID.TID 0000.0001) %MON advcfl_wvel_max              =   3.7634954118877E-02
(PID.TID 0000.0001) %MON advcfl_W_hf_max              =   3.8137192318245E-02
(PID.TID 0000.0001) %MON pe_b_mean                    =   1.0963348812323E-01
(PID.TID 0000.0001) %MON ke_max                       =   4.6215942929440E+03
(PID.TID 0000.0001) %MON ke_mean                      =   1.6742996387374E+02
(PID.TID 0000.0001) %MON ke_vol                       =   4.9640571943565E+19
(PID.TID 0000.0001) %MON vort_r_min                   =  -1.3916064105556E-04
(PID.TID 0000.0001) %MON vort_r_max                   =   1.9920397102278E-04
(PID.TID 0000.0001) %MON vort_a_mean                  =   7.8414871108749E-08
(PID.TID 0000.0001) %MON vort_a_sd                    =   8.8900603708962E-05
(PID.TID 0000.0001) %MON vort_p_mean                  =   8.0087615601129E-08
(PID.TID 0000.0001) %MON vort_p_sd                    =   9.4283500828838E-05
(PID.TID 0000.0001) %MON surfExpan_theta_mean         =  -8.2526025219652E-02
(PID.TID 0000.0001) %MON surfExpan_salt_mean          =  -1.5920070692158E-05
(PID.TID 0000.0001) %MON surfExpan_Heat_mean          =   4.2561021457175E+00
(PID.TID 0000.0001) %MON En_Budget_T2PE_mean          =  -5.4518281531636E+00
(PID.TID 0000.0001) // =======================================================
(PID.TID 0000.0001) // End MONITOR dynamic field statistics
(PID.TID 0000.0001) // =======================================================
 Current Date     19930110 Current Time        62000
 cg2d: Sum(rhs),rhsMax =   0.00000000000000E+00  2.53635763538689E+04
(PID.TID 0000.0001)                    cg2d_init_res =    5.63090394011500E+04
(PID.TID 0000.0001)                       cg2d_iters =    13
(PID.TID 0000.0001)                         cg2d_res =    2.60587992053601E-11
(PID.TID 0000.0001) // =======================================================
(PID.TID 0000.0001) // Begin MONITOR dynamic field statistics
(PID.TID 0000.0001) // =======================================================
(PID.TID 0000.0001) %MON time_tsnumber                =                     4
(PID.TID 0000.0001) %MON time_secondsf                =   1.2000000000000E+03
(PID.TID 0000.0001) %MON dynstat_eta_max              =   1.9113690927424E+03
(PID.TID 0000.0001) %MON dynstat_eta_min              =  -1.6250430063258E+03
(PID.TID 0000.0001) %MON dynstat_eta_mean             =  -2.5707236813114E-14
(PID.TID 0000.0001) %MON dynstat_eta_sd               =   2.1734208102962E+02
(PID.TID 0000.0001) %MON dynstat_eta_del2             =   6.6280810320181E+01
(PID.TID 0000.0001) %MON dynstat_uvel_max             =   7.2191748055816E+01
(PID.TID 0000.0001) %MON dynstat_uvel_min             =  -7.7932212715457E+01
(PID.TID 0000.0001) %MON dynstat_uvel_mean            =   1.7192949903645E+00
(PID.TID 0000.0001) %MON dynstat_uvel_sd              =   1.2872542453677E+01
(PID.TID 0000.0001) %MON dynstat_uvel_del2            =   8.8245825916913E-01
(PID.TID 0000.0001) %MON dynstat_vvel_max             =   6.8664550281031E+01
(PID.TID 0000.0001) %MON dynstat_vvel_min             =  -7.2957638189807E+01
(PID.TID 0000.0001) %MON dynstat_vvel_mean            =   1.9227154633029E+00
(PID.TID 0000.0001) %MON dynstat_vvel_sd              =   1.2823958383286E+01
(PID.TID 0000.0001) %MON dynstat_vvel_del2            =   8.6580842747080E-01
(PID.TID 0000.0001) %MON dynstat_wvel_max             =   7.5792372553756E-01
(PID.TID 0000.0001) %MON dynstat_wvel_min             =  -1.2713459164117E+00
(PID.TID 0000.0001) %MON dynstat_wvel_mean            =   6.6555198406570E-04
(PID.TID 0000.0001) %MON dynstat_wvel_sd              =   1.0180046342951E-01
(PID.TID 0000.0001) %MON dynstat_wvel_del2            =   3.2685568379792E-02
(PID.TID 0000.0001) %MON dynstat_theta_max            =   4.5534488171623E+02
(PID.TID 0000.0001) %MON dynstat_theta_min            =   2.3014693188734E+02
(PID.TID 0000.0001) %MON dynstat_theta_mean           =   3.2445900678814E+02
(PID.TID 0000.0001) %MON dynstat_theta_sd             =   3.6603603775871E+01
(PID.TID 0000.0001) %MON dynstat_theta_del2           =   4.1059181248734E-01
(PID.TID 0000.0001) %MON dynstat_salt_max             =   1.8044684424285E-02
(PID.TID 0000.0001) %MON dynstat_salt_min             =  -2.0346517985016E-07
(PID.TID 0000.0001) %MON dynstat_salt_mean            =   2.1583867522254E-03
(PID.TID 0000.0001) %MON dynstat_salt_sd              =   3.4204136489384E-03
(PID.TID 0000.0001) %MON dynstat_salt_del2            =   1.3028958167369E-04
(PID.TID 0000.0001) %MON dynstat_sst_max              =   3.3252933289344E+02
(PID.TID 0000.0001) %MON dynstat_sst_min              =   2.7478797760671E+02
(PID.TID 0000.0001) %MON dynstat_sst_mean             =   3.0976545262355E+02
(PID.TID 0000.0001) %MON dynstat_sst_sd               =   1.1751874297423E+01
(PID.TID 0000.0001) %MON dynstat_sst_del2             =   2.9862318929905E-01
(PID.TID 0000.0001) %MON dynstat_sss_max              =   1.7651472630699E-02
(PID.TID 0000.0001) %MON dynstat_sss_min              =   5.2864793611705E-06
(PID.TID 0000.0001) %MON dynstat_sss_mean             =   4.3408500987398E-03
(PID.TID 0000.0001) %MON dynstat_sss_sd               =   3.7844747112677E-03
(PID.TID 0000.0001) %MON dynstat_sss_del2             =   2.6811556072853E-04
(PID.TID 0000.0001) %MON extforcing_qnet_max          =   0.0000000000000E+00
(PID.TID 0000.0001) %MON extforcing_qnet_min          =   0.0000000000000E+00
(PID.TID 0000.0001) %MON extforcing_qnet_mean         =   0.0000000000000E+00
(PID.TID 0000.0001) %MON extforcing_qnet_sd           =   0.0000000000000E+00
(PID.TID 0000.0001) %MON extforcing_qnet_del2         =   0.0000000000000E+00
(PID.TID 0000.0001) %MON extforcing_qsw_max           =   0.0000000000000E+00
(PID.TID 0000.0001) %MON extforcing_qsw_min           =   0.0000000000000E+00
(PID.TID 0000.0001) %MON extforcing_qsw_mean          =   0.0000000000000E+00
(PID.TID 0000.0001) %MON extforcing_qsw_sd            =   0.0000000000000E+00
(PID.TID 0000.0001) %MON extforcing_qsw_del2          =   0.0000000000000E+00
(PID.TID 0000.0001) %MON extforcing_empmr_max         =   0.0000000000000E+00
(PID.TID 0000.0001) %MON extforcing_empmr_min         =   0.0000000000000E+00
(PID.TID 0000.0001) %MON extforcing_empmr_mean        =   0.0000000000000E+00
(PID.TID 0000.0001) %MON extforcing_empmr_sd          =   0.0000000000000E+00
(PID.TID 0000.0001) %MON extforcing_empmr_del2        =   0.0000000000000E+00
(PID.TID 0000.0001) %MON extforcing_fu_max            =   0.0000000000000E+00
(PID.TID 0000.0001) %MON extforcing_fu_min            =   0.0000000000000E+00
(PID.TID 0000.0001) %MON extforcing_fu_mean           =   0.0000000000000E+00
(PID.TID 0000.0001) %MON extforcing_fu_sd             =   0.0000000000000E+00
(PID.TID 0000.0001) %MON extforcing_fu_del2           =   0.0000000000000E+00
(PID.TID 0000.0001) %MON extforcing_fv_max            =   0.0000000000000E+00
(PID.TID 0000.0001) %MON extforcing_fv_min            =   0.0000000000000E+00
(PID.TID 0000.0001) %MON extforcing_fv_mean           =   0.0000000000000E+00
(PID.TID 0000.0001) %MON extforcing_fv_sd             =   0.0000000000000E+00
(PID.TID 0000.0001) %MON extforcing_fv_del2           =   0.0000000000000E+00
(PID.TID 0000.0001) %MON advcfl_uvel_max              =   1.3842896369084E-01
(PID.TID 0000.0001) %MON advcfl_vvel_max              =   1.6702079401562E-01
(PID.TID 0000.0001) %MON advcfl_wvel_max              =   3.8140377492352E-02
(PID.TID 0000.0001) %MON advcfl_W_hf_max              =   3.8957454727183E-02
(PID.TID 0000.0001) %MON pe_b_mean                    =   2.1487083670732E-01
(PID.TID 0000.0001) %MON ke_max                       =   4.6033515402448E+03
(PID.TID 0000.0001) %MON ke_mean                      =   1.6737570828201E+02
(PID.TID 0000.0001) %MON ke_vol                       =   4.9640571943565E+19
(PID.TID 0000.0001) %MON vort_r_min                   =  -1.3864475596357E-04
(PID.TID 0000.0001) %MON vort_r_max                   =   1.9892233237073E-04
(PID.TID 0000.0001) %MON vort_a_mean                  =   7.8414871108988E-08
(PID.TID 0000.0001) %MON vort_a_sd                    =   8.8890545812610E-05
(PID.TID 0000.0001) %MON vort_p_mean                  =   8.0087613553758E-08
(PID.TID 0000.0001) %MON vort_p_sd                    =   9.4274739896346E-05
(PID.TID 0000.0001) %MON surfExpan_theta_mean         =  -8.3694050364347E-02
(PID.TID 0000.0001) %MON surfExpan_salt_mean          =  -1.6366955857783E-05
(PID.TID 0000.0001) %MON surfExpan_Heat_mean          =   5.4954501725015E+00
(PID.TID 0000.0001) %MON En_Budget_T2PE_mean          =  -5.7600803097947E+00
(PID.TID 0000.0001) // =======================================================
(PID.TID 0000.0001) // End MONITOR dynamic field statistics
(PID.TID 0000.0001) // =======================================================
 Current Date     19930110 Current Time        62500
 cg2d: Sum(rhs),rhsMax =   0.00000000000000E+00  3.24306395260588E+04
(PID.TID 0000.0001)                    cg2d_init_res =    5.69016754621763E+04
(PID.TID 0000.0001)                       cg2d_iters =    13
(PID.TID 0000.0001)                         cg2d_res =    2.60596137044993E-11
(PID.TID 0000.0001) // =======================================================
(PID.TID 0000.0001) // Begin MONITOR dynamic field statistics
(PID.TID 0000.0001) // =======================================================
(PID.TID 0000.0001) %MON time_tsnumber                =                     5
(PID.TID 0000.0001) %MON time_secondsf                =   1.5000000000000E+03
(PID.TID 0000.0001) %MON dynstat_eta_max              =   2.4686341950699E+03
(PID.TID 0000.0001) %MON dynstat_eta_min              =  -2.1983768511596E+03
(PID.TID 0000.0001) %MON dynstat_eta_mean             =  -1.6067023008196E-15
(PID.TID 0000.0001) %MON dynstat_eta_sd               =   2.8021174074612E+02
(PID.TID 0000.0001) %MON dynstat_eta_del2             =   7.3124676540088E+01
(PID.TID 0000.0001) %MON dynstat_uvel_max             =   7.2281566113102E+01
(PID.TID 0000.0001) %MON dynstat_uvel_min             =  -7.7787851160886E+01
(PID.TID 0000.0001) %MON dynstat_uvel_mean            =   1.7064398947953E+00
(PID.TID 0000.0001) %MON dynstat_uvel_sd              =   1.2872172981847E+01
(PID.TID 0000.0001) %MON dynstat_uvel_del2            =   8.8166503391397E-01
(PID.TID 0000.0001) %MON dynstat_vvel_max             =   6.8395866232602E+01
(PID.TID 0000.0001) %MON dynstat_vvel_min             =  -7.2510985238145E+01
(PID.TID 0000.0001) %MON dynstat_vvel_mean            =   1.9353478104962E+00
(PID.TID 0000.0001) %MON dynstat_vvel_sd              =   1.2817879915189E+01
(PID.TID 0000.0001) %MON dynstat_vvel_del2            =   8.6552061232816E-01
(PID.TID 0000.0001) %MON dynstat_wvel_max             =   7.7433166694308E-01
(PID.TID 0000.0001) %MON dynstat_wvel_min             =  -1.2883812638655E+00
(PID.TID 0000.0001) %MON dynstat_wvel_mean            =   6.5655457340957E-04
(PID.TID 0000.0001) %MON dynstat_wvel_sd              =   1.0282927470458E-01
(PID.TID 0000.0001) %MON dynstat_wvel_del2            =   3.2997793201365E-02
(PID.TID 0000.0001) %MON dynstat_theta_max            =   4.5570482182774E+02
(PID.TID 0000.0001) %MON dynstat_theta_min            =   2.3018612882761E+02
(PID.TID 0000.0001) %MON dynstat_theta_mean           =   3.2451396233861E+02
(PID.TID 0000.0001) %MON dynstat_theta_sd             =   3.6719035894967E+01
(PID.TID 0000.0001) %MON dynstat_theta_del2           =   4.0896019703797E-01
(PID.TID 0000.0001) %MON dynstat_salt_max             =   1.7995733085731E-02
(PID.TID 0000.0001) %MON dynstat_salt_min             =  -8.4210485579638E-06
(PID.TID 0000.0001) %MON dynstat_salt_mean            =   2.1590354140921E-03
(PID.TID 0000.0001) %MON dynstat_salt_sd              =   3.4220000737969E-03
(PID.TID 0000.0001) %MON dynstat_salt_del2            =   1.2988659085896E-04
(PID.TID 0000.0001) %MON dynstat_sst_max              =   3.3253910855753E+02
(PID.TID 0000.0001) %MON dynstat_sst_min              =   2.7480634212589E+02
(PID.TID 0000.0001) %MON dynstat_sst_mean             =   3.0976130916051E+02
(PID.TID 0000.0001) %MON dynstat_sst_sd               =   1.1751471969263E+01
(PID.TID 0000.0001) %MON dynstat_sst_del2             =   2.9753591697829E-01
(PID.TID 0000.0001) %MON dynstat_sss_max              =   1.7661629415676E-02
(PID.TID 0000.0001) %MON dynstat_sss_min              =   3.6243565945757E-06
(PID.TID 0000.0001) %MON dynstat_sss_mean             =   4.3420103395864E-03
(PID.TID 0000.0001) %MON dynstat_sss_sd               =   3.7864138756412E-03
(PID.TID 0000.0001) %MON dynstat_sss_del2             =   2.6718344660998E-04
(PID.TID 0000.0001) %MON extforcing_qnet_max          =   0.0000000000000E+00
(PID.TID 0000.0001) %MON extforcing_qnet_min          =   0.0000000000000E+00
(PID.TID 0000.0001) %MON extforcing_qnet_mean         =   0.0000000000000E+00
(PID.TID 0000.0001) %MON extforcing_qnet_sd           =   0.0000000000000E+00
(PID.TID 0000.0001) %MON extforcing_qnet_del2         =   0.0000000000000E+00
(PID.TID 0000.0001) %MON extforcing_qsw_max           =   0.0000000000000E+00
(PID.TID 0000.0001) %MON extforcing_qsw_min           =   0.0000000000000E+00
(PID.TID 0000.0001) %MON extforcing_qsw_mean          =   0.0000000000000E+00
(PID.TID 0000.0001) %MON extforcing_qsw_sd            =   0.0000000000000E+00
(PID.TID 0000.0001) %MON extforcing_qsw_del2          =   0.0000000000000E+00
(PID.TID 0000.0001) %MON extforcing_empmr_max         =   0.0000000000000E+00
(PID.TID 0000.0001) %MON extforcing_empmr_min         =   0.0000000000000E+00
(PID.TID 0000.0001) %MON extforcing_empmr_mean        =   0.0000000000000E+00
(PID.TID 0000.0001) %MON extforcing_empmr_sd          =   0.0000000000000E+00
(PID.TID 0000.0001) %MON extforcing_empmr_del2        =   0.0000000000000E+00
(PID.TID 0000.0001) %MON extforcing_fu_max            =   0.0000000000000E+00
(PID.TID 0000.0001) %MON extforcing_fu_min            =   0.0000000000000E+00
(PID.TID 0000.0001) %MON extforcing_fu_mean           =   0.0000000000000E+00
(PID.TID 0000.0001) %MON extforcing_fu_sd             =   0.0000000000000E+00
(PID.TID 0000.0001) %MON extforcing_fu_del2           =   0.0000000000000E+00
(PID.TID 0000.0001) %MON extforcing_fv_max            =   0.0000000000000E+00
(PID.TID 0000.0001) %MON extforcing_fv_min            =   0.0000000000000E+00
(PID.TID 0000.0001) %MON extforcing_fv_mean           =   0.0000000000000E+00
(PID.TID 0000.0001) %MON extforcing_fv_sd             =   0.0000000000000E+00
(PID.TID 0000.0001) %MON extforcing_fv_del2           =   0.0000000000000E+00
(PID.TID 0000.0001) %MON advcfl_uvel_max              =   1.3846640963396E-01
(PID.TID 0000.0001) %MON advcfl_vvel_max              =   1.6689377354930E-01
(PID.TID 0000.0001) %MON advcfl_wvel_max              =   3.8651437915965E-02
(PID.TID 0000.0001) %MON advcfl_W_hf_max              =   3.9883712279544E-02
(PID.TID 0000.0001) %MON pe_b_mean                    =   3.5595620055894E-01
(PID.TID 0000.0001) %MON ke_max                       =   4.5862300974100E+03
(PID.TID 0000.0001) %MON ke_mean                      =   1.6729585970406E+02
(PID.TID 0000.0001) %MON ke_vol                       =   4.9640571943565E+19
(PID.TID 0000.0001) %MON vort_r_min                   =  -1.3809224428520E-04
(PID.TID 0000.0001) %MON vort_r_max                   =   1.9891265736779E-04
(PID.TID 0000.0001) %MON vort_a_mean                  =   7.8414871108990E-08
(PID.TID 0000.0001) %MON vort_a_sd                    =   8.8880722638466E-05
(PID.TID 0000.0001) %MON vort_p_mean                  =   8.0087611316132E-08
(PID.TID 0000.0001) %MON vort_p_sd                    =   9.4272952553661E-05
(PID.TID 0000.0001) %MON surfExpan_theta_mean         =  -7.2490159718464E-02
(PID.TID 0000.0001) %MON surfExpan_salt_mean          =  -1.4797977016028E-05
(PID.TID 0000.0001) %MON surfExpan_Heat_mean          =   7.0028001112976E+00
(PID.TID 0000.0001) %MON En_Budget_T2PE_mean          =  -5.4116274098759E+00
(PID.TID 0000.0001) // =======================================================
(PID.TID 0000.0001) // End MONITOR dynamic field statistics
(PID.TID 0000.0001) // =======================================================
 Current Date     19930110 Current Time        63000
 cg2d: Sum(rhs),rhsMax =  -1.16415321826935E-10  3.81106686083672E+04
(PID.TID 0000.0001)                    cg2d_init_res =    5.70057342805861E+04
(PID.TID 0000.0001)                       cg2d_iters =    13
(PID.TID 0000.0001)                         cg2d_res =    2.52044641197055E-11
(PID.TID 0000.0001) // =======================================================
(PID.TID 0000.0001) // Begin MONITOR dynamic field statistics
(PID.TID 0000.0001) // =======================================================
(PID.TID 0000.0001) %MON time_tsnumber                =                     6
(PID.TID 0000.0001) %MON time_secondsf                =   1.8000000000000E+03
(PID.TID 0000.0001) %MON dynstat_eta_max              =   2.9293742446159E+03
(PID.TID 0000.0001) %MON dynstat_eta_min              =  -2.7891161564407E+03
(PID.TID 0000.0001) %MON dynstat_eta_mean             =   4.8201069024589E-15
(PID.TID 0000.0001) %MON dynstat_eta_sd               =   3.4238280560915E+02
(PID.TID 0000.0001) %MON dynstat_eta_del2             =   7.6442474978112E+01
(PID.TID 0000.0001) %MON dynstat_uvel_max             =   7.2401748238014E+01
(PID.TID 0000.0001) %MON dynstat_uvel_min             =  -7.7664944238751E+01
(PID.TID 0000.0001) %MON dynstat_uvel_mean            =   1.6935489208788E+00
(PID.TID 0000.0001) %MON dynstat_uvel_sd              =   1.2869764030023E+01
(PID.TID 0000.0001) %MON dynstat_uvel_del2            =   8.8134432452972E-01
(PID.TID 0000.0001) %MON dynstat_vvel_max             =   6.8150855977010E+01
(PID.TID 0000.0001) %MON dynstat_vvel_min             =  -7.2065422182080E+01
(PID.TID 0000.0001) %MON dynstat_vvel_mean            =   1.9479081475112E+00
(PID.TID 0000.0001) %MON dynstat_vvel_sd              =   1.2810134970584E+01
(PID.TID 0000.0001) %MON dynstat_vvel_del2            =   8.6546084260357E-01
(PID.TID 0000.0001) %MON dynstat_wvel_max             =   7.8317859678559E-01
(PID.TID 0000.0001) %MON dynstat_wvel_min             =  -1.3563933357497E+00
(PID.TID 0000.0001) %MON dynstat_wvel_mean            =   6.0806553762446E-04
(PID.TID 0000.0001) %MON dynstat_wvel_sd              =   1.0382023147539E-01
(PID.TID 0000.0001) %MON dynstat_wvel_del2            =   3.3270558049548E-02
(PID.TID 0000.0001) %MON dynstat_theta_max            =   4.5605451494561E+02
(PID.TID 0000.0001) %MON dynstat_theta_min            =   2.3022521832328E+02
(PID.TID 0000.0001) %MON dynstat_theta_mean           =   3.2456887115321E+02
(PID.TID 0000.0001) %MON dynstat_theta_sd             =   3.6834943230616E+01
(PID.TID 0000.0001) %MON dynstat_theta_del2           =   4.0747327979135E-01
(PID.TID 0000.0001) %MON dynstat_salt_max             =   1.7949131640023E-02
(PID.TID 0000.0001) %MON dynstat_salt_min             =  -2.0523247821245E-05
(PID.TID 0000.0001) %MON dynstat_salt_mean            =   2.1596779213533E-03
(PID.TID 0000.0001) %MON dynstat_salt_sd              =   3.4235924000138E-03
(PID.TID 0000.0001) %MON dynstat_salt_del2            =   1.2953712470975E-04
(PID.TID 0000.0001) %MON dynstat_sst_max              =   3.3254878420521E+02
(PID.TID 0000.0001) %MON dynstat_sst_min              =   2.7482456596107E+02
(PID.TID 0000.0001) %MON dynstat_sst_mean             =   3.0975729306720E+02
(PID.TID 0000.0001) %MON dynstat_sst_sd               =   1.1751191370977E+01
(PID.TID 0000.0001) %MON dynstat_sst_del2             =   2.9671115198668E-01
(PID.TID 0000.0001) %MON dynstat_sss_max              =   1.7670918939138E-02
(PID.TID 0000.0001) %MON dynstat_sss_min              =   2.0410621941614E-06
(PID.TID 0000.0001) %MON dynstat_sss_mean             =   4.3431416912681E-03
(PID.TID 0000.0001) %MON dynstat_sss_sd               =   3.7883523332354E-03
(PID.TID 0000.0001) %MON dynstat_sss_del2             =   2.6632220977637E-04
(PID.TID 0000.0001) %MON extforcing_qnet_max          =   0.0000000000000E+00
(PID.TID 0000.0001) %MON extforcing_qnet_min          =   0.0000000000000E+00
(PID.TID 0000.0001) %MON extforcing_qnet_mean         =   0.0000000000000E+00
(PID.TID 0000.0001) %MON extforcing_qnet_sd           =   0.0000000000000E+00
(PID.TID 0000.0001) %MON extforcing_qnet_del2         =   0.0000000000000E+00
(PID.TID 0000.0001) %MON extforcing_qsw_max           =   0.0000000000000E+00
(PID.TID 0000.0001) %MON extforcing_qsw_min           =   0.0000000000000E+00
(PID.TID 0000.0001) %MON extforcing_qsw_mean          =   0.0000000000000E+00
(PID.TID 0000.0001) %MON extforcing_qsw_sd            =   0.0000000000000E+00
(PID.TID 0000.0001) %MON extforcing_qsw_del2          =   0.0000000000000E+00
(PID.TID 0000.0001) %MON extforcing_empmr_max         =   0.0000000000000E+00
(PID.TID 0000.0001) %MON extforcing_empmr_min         =   0.0000000000000E+00
(PID.TID 0000.0001) %MON extforcing_empmr_mean        =   0.0000000000000E+00
(PID.TID 0000.0001) %MON extforcing_empmr_sd          =   0.0000000000000E+00
(PID.TID 0000.0001) %MON extforcing_empmr_del2        =   0.0000000000000E+00
(PID.TID 0000.0001) %MON extforcing_fu_max            =   0.0000000000000E+00
(PID.TID 0000.0001) %MON extforcing_fu_min            =   0.0000000000000E+00
(PID.TID 0000.0001) %MON extforcing_fu_mean           =   0.0000000000000E+00
(PID.TID 0000.0001) %MON extforcing_fu_sd             =   0.0000000000000E+00
(PID.TID 0000.0001) %MON extforcing_fu_del2           =   0.0000000000000E+00
(PID.TID 0000.0001) %MON extforcing_fv_max            =   0.0000000000000E+00
(PID.TID 0000.0001) %MON extforcing_fv_min            =   0.0000000000000E+00
(PID.TID 0000.0001) %MON extforcing_fv_mean           =   0.0000000000000E+00
(PID.TID 0000.0001) %MON extforcing_fv_sd             =   0.0000000000000E+00
(PID.TID 0000.0001) %MON extforcing_fv_del2           =   0.0000000000000E+00
(PID.TID 0000.0001) %MON advcfl_uvel_max              =   1.3840728222605E-01
(PID.TID 0000.0001) %MON advcfl_vvel_max              =   1.6709593740479E-01
(PID.TID 0000.0001) %MON advcfl_wvel_max              =   4.0691800072491E-02
(PID.TID 0000.0001) %MON advcfl_W_hf_max              =   4.1724243980221E-02
(PID.TID 0000.0001) %MON pe_b_mean                    =   5.2893901579497E-01
(PID.TID 0000.0001) %MON ke_max                       =   4.5711719334994E+03
(PID.TID 0000.0001) %MON ke_mean                      =   1.6716886319323E+02
(PID.TID 0000.0001) %MON ke_vol                       =   4.9640571943565E+19
(PID.TID 0000.0001) %MON vort_r_min                   =  -1.3752122675892E-04
(PID.TID 0000.0001) %MON vort_r_max                   =   1.9867858866818E-04
(PID.TID 0000.0001) %MON vort_a_mean                  =   7.8414871108807E-08
(PID.TID 0000.0001) %MON vort_a_sd                    =   8.8869964388690E-05
(PID.TID 0000.0001) %MON vort_p_mean                  =   8.0087608354431E-08
(PID.TID 0000.0001) %MON vort_p_sd                    =   9.4271181483439E-05
(PID.TID 0000.0001) %MON surfExpan_theta_mean         =  -5.1530912754817E-02
(PID.TID 0000.0001) %MON surfExpan_salt_mean          =  -1.1912395867242E-05
(PID.TID 0000.0001) %MON surfExpan_Heat_mean          =   8.7134259407842E+00
(PID.TID 0000.0001) %MON En_Budget_T2PE_mean          =  -4.5503626859190E+00
(PID.TID 0000.0001) // =======================================================
(PID.TID 0000.0001) // End MONITOR dynamic field statistics
(PID.TID 0000.0001) // =======================================================
 Computing Diagnostic # 289  TCANOPY      Counter:       3   Parms: SM      L1      
 Computing Diagnostic # 198  OLR          Counter:       1   Parms: SM      U1      
 Computing Diagnostic #  85  RSURF        Counter:       6   Parms: SM      M1      
 Computing Diagnostic # 159  DPPHYS       Counter:       7   Parms: SM      ML      
 Computing Diagnostic # 372  FIZPRES      Counter:       6   Parms: SM      ML      
 Computing Diagnostic #  29  UVEL         Counter:       6   Parms: UU   030MR      
           Vector  Mate for  UVEL         Diagnostic #  30  VVEL     not enabled
 Computing Diagnostic #  84  RCENTER      Counter:       6   Parms: SM      MR      
 Computing Diagnostic #  29  UVEL         Counter:       6   Parms: UU   030MR      
           Vector  Mate for  UVEL         Diagnostic #  30  VVEL     not enabled
  Writing datetime file: NYMD =     19930110 NHMS =        63000
(PID.TID 0000.0001) %CHECKPOINT         6 ckptA
(PID.TID 0000.0001)  Seconds in section "ALL                    [THE_MODEL_MAIN]":
(PID.TID 0000.0001)          User time:   23.97999954223633
(PID.TID 0000.0001)        System time:   4.299999713897705
(PID.TID 0000.0001)    Wall clock time:   43.69216680526733
(PID.TID 0000.0001)         No. starts:           1
(PID.TID 0000.0001)          No. stops:           1
(PID.TID 0000.0001)  Seconds in section "INITIALISE_FIXED       [THE_MODEL_MAIN]":
(PID.TID 0000.0001)          User time:  0.1499999910593033
(PID.TID 0000.0001)        System time:  0.1099999994039536
(PID.TID 0000.0001)    Wall clock time:   2.412787914276123
(PID.TID 0000.0001)         No. starts:           1
(PID.TID 0000.0001)          No. stops:           1
(PID.TID 0000.0001)  Seconds in section "GRIDALT_INITIALISE  [PACKAGES_INIT_F]":
(PID.TID 0000.0001)          User time:  0.0000000000000000E+000
(PID.TID 0000.0001)        System time:  0.0000000000000000E+000
(PID.TID 0000.0001)    Wall clock time:  8.8789463043212891E-003
(PID.TID 0000.0001)         No. starts:           1
(PID.TID 0000.0001)          No. stops:           1
(PID.TID 0000.0001)  Seconds in section "THE_MAIN_LOOP          [THE_MODEL_MAIN]":
(PID.TID 0000.0001)          User time:   23.30999909341335
(PID.TID 0000.0001)        System time:   3.939999714493752
(PID.TID 0000.0001)    Wall clock time:   32.61667609214783
(PID.TID 0000.0001)         No. starts:           1
(PID.TID 0000.0001)          No. stops:           1
(PID.TID 0000.0001)  Seconds in section "INITIALISE_VARIA    [THE_MAIN_LOOP]":
(PID.TID 0000.0001)          User time:  0.2799999862909317
(PID.TID 0000.0001)        System time:  0.2799999862909317
(PID.TID 0000.0001)    Wall clock time:  0.8412311077117920
(PID.TID 0000.0001)         No. starts:           1
(PID.TID 0000.0001)          No. stops:           1
(PID.TID 0000.0001)  Seconds in section "GRIDALT_UPDATE  [INITIALISE_VARIA]":
(PID.TID 0000.0001)          User time:  9.9999904632568359E-003
(PID.TID 0000.0001)        System time:  9.9999904632568359E-003
(PID.TID 0000.0001)    Wall clock time:  7.5259208679199219E-003
(PID.TID 0000.0001)         No. starts:           1
(PID.TID 0000.0001)          No. stops:           1
(PID.TID 0000.0001)  Seconds in section "MAIN LOOP           [THE_MAIN_LOOP]":
(PID.TID 0000.0001)          User time:   22.94999909400940
(PID.TID 0000.0001)        System time:   3.609999716281891
(PID.TID 0000.0001)    Wall clock time:   30.39136719703674
(PID.TID 0000.0001)         No. starts:           1
(PID.TID 0000.0001)          No. stops:           1
(PID.TID 0000.0001)  Seconds in section "FORWARD_STEP        [THE_MAIN_LOOP]":
(PID.TID 0000.0001)          User time:   22.94999909400940
(PID.TID 0000.0001)        System time:   3.609999716281891
(PID.TID 0000.0001)    Wall clock time:   30.39064526557922
(PID.TID 0000.0001)         No. starts:           6
(PID.TID 0000.0001)          No. stops:           6
(PID.TID 0000.0001)  Seconds in section "DO_STATEVARS_DIAGS  [FORWARD_STEP]":
(PID.TID 0000.0001)          User time:  2.0000219345092773E-002
(PID.TID 0000.0001)        System time:  0.0000000000000000E+000
(PID.TID 0000.0001)    Wall clock time:  1.8524169921875000E-002
(PID.TID 0000.0001)         No. starts:          18
(PID.TID 0000.0001)          No. stops:          18
(PID.TID 0000.0001)  Seconds in section "LOAD_FIELDS_DRIVER  [FORWARD_STEP]":
(PID.TID 0000.0001)          User time:  0.0000000000000000E+000
(PID.TID 0000.0001)        System time:  0.0000000000000000E+000
(PID.TID 0000.0001)    Wall clock time:  9.2339515686035156E-004
(PID.TID 0000.0001)         No. starts:           6
(PID.TID 0000.0001)          No. stops:           6
(PID.TID 0000.0001)  Seconds in section "EXTERNAL_FLDS_LOAD [LOAD_FLDS_DRIVER]":
(PID.TID 0000.0001)          User time:  0.0000000000000000E+000
(PID.TID 0000.0001)        System time:  0.0000000000000000E+000
(PID.TID 0000.0001)    Wall clock time:  3.2782554626464844E-004
(PID.TID 0000.0001)         No. starts:           6
(PID.TID 0000.0001)          No. stops:           6
(PID.TID 0000.0001)  Seconds in section "DO_ATMOSPHERIC_PHYS [FORWARD_STEP]":
(PID.TID 0000.0001)          User time:   20.09000062942505
(PID.TID 0000.0001)        System time:   3.369999706745148
(PID.TID 0000.0001)    Wall clock time:   23.51777887344360
(PID.TID 0000.0001)         No. starts:           6
(PID.TID 0000.0001)          No. stops:           6
(PID.TID 0000.0001)  Seconds in section "FIZHI          [DO_ATMOSPHERIC_PHYS]":
(PID.TID 0000.0001)          User time:   20.09000062942505
(PID.TID 0000.0001)        System time:   3.369999706745148
(PID.TID 0000.0001)    Wall clock time:   23.51715612411499
(PID.TID 0000.0001)         No. starts:           6
(PID.TID 0000.0001)          No. stops:           6
(PID.TID 0000.0001)  Seconds in section "DO_FIZHI          [FIZHI_WRAPPER]":
(PID.TID 0000.0001)          User time:   19.57999861240387
(PID.TID 0000.0001)        System time:   3.339999705553055
(PID.TID 0000.0001)    Wall clock time:   22.93157911300659
(PID.TID 0000.0001)         No. starts:           6
(PID.TID 0000.0001)          No. stops:           6
(PID.TID 0000.0001)  Seconds in section "PHYS2DYN          [FIZHI_WRAPPER]":
(PID.TID 0000.0001)          User time:  0.1800003051757813
(PID.TID 0000.0001)        System time:  0.0000000000000000E+000
(PID.TID 0000.0001)    Wall clock time:  0.1735532283782959
(PID.TID 0000.0001)         No. starts:           6
(PID.TID 0000.0001)          No. stops:           6
(PID.TID 0000.0001)  Seconds in section "ATOC              [FIZHI_WRAPPER]":
(PID.TID 0000.0001)          User time:  6.0001373291015625E-002
(PID.TID 0000.0001)        System time:  0.0000000000000000E+000
(PID.TID 0000.0001)    Wall clock time:  5.8832883834838867E-002
(PID.TID 0000.0001)         No. starts:           6
(PID.TID 0000.0001)          No. stops:           6
(PID.TID 0000.0001)  Seconds in section "EXCHANGES         [FIZHI_WRAPPER]":
(PID.TID 0000.0001)          User time:  5.9997558593750000E-002
(PID.TID 0000.0001)        System time:  0.0000000000000000E+000
(PID.TID 0000.0001)    Wall clock time:  7.4055194854736328E-002
(PID.TID 0000.0001)         No. starts:           6
(PID.TID 0000.0001)          No. stops:           6
(PID.TID 0000.0001)  Seconds in section "DO_OCEANIC_PHYS     [FORWARD_STEP]":
(PID.TID 0000.0001)          User time:  0.0000000000000000E+000
(PID.TID 0000.0001)        System time:  0.0000000000000000E+000
(PID.TID 0000.0001)    Wall clock time:  4.6682357788085938E-003
(PID.TID 0000.0001)         No. starts:           6
(PID.TID 0000.0001)          No. stops:           6
(PID.TID 0000.0001)  Seconds in section "DYNAMICS            [FORWARD_STEP]":
(PID.TID 0000.0001)          User time:  0.6800003051757813
(PID.TID 0000.0001)        System time:  0.0000000000000000E+000
(PID.TID 0000.0001)    Wall clock time:  0.6789426803588867
(PID.TID 0000.0001)         No. starts:           6
(PID.TID 0000.0001)          No. stops:           6
(PID.TID 0000.0001)  Seconds in section "UPDATE_R_STAR       [FORWARD_STEP]":
(PID.TID 0000.0001)          User time:  4.9997329711914063E-002
(PID.TID 0000.0001)        System time:  0.0000000000000000E+000
(PID.TID 0000.0001)    Wall clock time:  5.5931806564331055E-002
(PID.TID 0000.0001)         No. starts:           6
(PID.TID 0000.0001)          No. stops:           6
(PID.TID 0000.0001)  Seconds in section "UPDATE_CG2D         [FORWARD_STEP]":
(PID.TID 0000.0001)          User time:  1.0000228881835938E-002
(PID.TID 0000.0001)        System time:  0.0000000000000000E+000
(PID.TID 0000.0001)    Wall clock time:  1.1534690856933594E-002
(PID.TID 0000.0001)         No. starts:           6
(PID.TID 0000.0001)          No. stops:           6
(PID.TID 0000.0001)  Seconds in section "SOLVE_FOR_PRESSURE  [FORWARD_STEP]":
(PID.TID 0000.0001)          User time:  8.0001831054687500E-002
(PID.TID 0000.0001)        System time:  0.0000000000000000E+000
(PID.TID 0000.0001)    Wall clock time:  8.4117889404296875E-002
(PID.TID 0000.0001)         No. starts:           6
(PID.TID 0000.0001)          No. stops:           6
(PID.TID 0000.0001)  Seconds in section "MOM_CORRECTION_STEP [FORWARD_STEP]":
(PID.TID 0000.0001)          User time:  0.3499984741210938
(PID.TID 0000.0001)        System time:  9.9999904632568359E-003
(PID.TID 0000.0001)    Wall clock time:  0.3498206138610840
(PID.TID 0000.0001)         No. starts:           6
(PID.TID 0000.0001)          No. stops:           6
(PID.TID 0000.0001)  Seconds in section "SHAP_FILT_UV       [MOM_CORR_STEP]":
(PID.TID 0000.0001)          User time:  0.3200016021728516
(PID.TID 0000.0001)        System time:  0.0000000000000000E+000
(PID.TID 0000.0001)    Wall clock time:  0.3079221248626709
(PID.TID 0000.0001)         No. starts:           6
(PID.TID 0000.0001)          No. stops:           6
(PID.TID 0000.0001)  Seconds in section "UPDATE_ETAH         [FORWARD_STEP]":
(PID.TID 0000.0001)          User time:  0.0000000000000000E+000
(PID.TID 0000.0001)        System time:  0.0000000000000000E+000
(PID.TID 0000.0001)    Wall clock time:  7.8773498535156250E-004
(PID.TID 0000.0001)         No. starts:           6
(PID.TID 0000.0001)          No. stops:           6
(PID.TID 0000.0001)  Seconds in section "CALC_R_STAR         [FORWARD_STEP]":
(PID.TID 0000.0001)          User time:  1.0000228881835938E-002
(PID.TID 0000.0001)        System time:  0.0000000000000000E+000
(PID.TID 0000.0001)    Wall clock time:  1.6157865524291992E-002
(PID.TID 0000.0001)         No. starts:           6
(PID.TID 0000.0001)          No. stops:           6
(PID.TID 0000.0001)  Seconds in section "BLOCKING_EXCHANGES  [FORWARD_STEP]":
(PID.TID 0000.0001)          User time:  0.1000003814697266
(PID.TID 0000.0001)        System time:  0.0000000000000000E+000
(PID.TID 0000.0001)    Wall clock time:  8.7745904922485352E-002
(PID.TID 0000.0001)         No. starts:          12
(PID.TID 0000.0001)          No. stops:          12
(PID.TID 0000.0001)  Seconds in section "THERMODYNAMICS      [FORWARD_STEP]":
(PID.TID 0000.0001)          User time:  0.2299995422363281
(PID.TID 0000.0001)        System time:  0.0000000000000000E+000
(PID.TID 0000.0001)    Wall clock time:  0.2300078868865967
(PID.TID 0000.0001)         No. starts:           6
(PID.TID 0000.0001)          No. stops:           6
(PID.TID 0000.0001)  Seconds in section "TRC_CORRECTION_STEP [FORWARD_STEP]":
(PID.TID 0000.0001)          User time:  0.1900024414062500
(PID.TID 0000.0001)        System time:  0.0000000000000000E+000
(PID.TID 0000.0001)    Wall clock time:  0.1933927536010742
(PID.TID 0000.0001)         No. starts:           6
(PID.TID 0000.0001)          No. stops:           6
(PID.TID 0000.0001)  Seconds in section "SHAP_FILT_TS       [TRC_CORR_STEP]":
(PID.TID 0000.0001)          User time:  0.1800022125244141
(PID.TID 0000.0001)        System time:  0.0000000000000000E+000
(PID.TID 0000.0001)    Wall clock time:  0.1827888488769531
(PID.TID 0000.0001)         No. starts:           6
(PID.TID 0000.0001)          No. stops:           6
(PID.TID 0000.0001)  Seconds in section "FIZHI               [FORWARD_STEP]":
(PID.TID 0000.0001)          User time:  0.7299995422363281
(PID.TID 0000.0001)        System time:  0.1200001239776611
(PID.TID 0000.0001)    Wall clock time:  0.8472433090209961
(PID.TID 0000.0001)         No. starts:           6
(PID.TID 0000.0001)          No. stops:           6
(PID.TID 0000.0001)  Seconds in section "PHYS2DYN          [STEP_FIZHI_CORR]":
(PID.TID 0000.0001)          User time:  0.1700000762939453
(PID.TID 0000.0001)        System time:  9.9999904632568359E-003
(PID.TID 0000.0001)    Wall clock time:  0.1707971096038818
(PID.TID 0000.0001)         No. starts:           6
(PID.TID 0000.0001)          No. stops:           6
(PID.TID 0000.0001)  Seconds in section "ATOC              [STEP_FIZHI_CORR]":
(PID.TID 0000.0001)          User time:  6.0001373291015625E-002
(PID.TID 0000.0001)        System time:  0.0000000000000000E+000
(PID.TID 0000.0001)    Wall clock time:  5.5106163024902344E-002
(PID.TID 0000.0001)         No. starts:           6
(PID.TID 0000.0001)          No. stops:           6
(PID.TID 0000.0001)  Seconds in section "CTOA              [STEP_FIZHI_CORR]":
(PID.TID 0000.0001)          User time:  6.9999694824218750E-002
(PID.TID 0000.0001)        System time:  0.0000000000000000E+000
(PID.TID 0000.0001)    Wall clock time:  7.4959754943847656E-002
(PID.TID 0000.0001)         No. starts:           6
(PID.TID 0000.0001)          No. stops:           6
(PID.TID 0000.0001)  Seconds in section "DYN2PHYS          [STEP_FIZHI_CORR]":
(PID.TID 0000.0001)          User time:  0.3399982452392578
(PID.TID 0000.0001)        System time:  0.1000001430511475
(PID.TID 0000.0001)    Wall clock time:  0.4344871044158936
(PID.TID 0000.0001)         No. starts:           6
(PID.TID 0000.0001)          No. stops:           6
(PID.TID 0000.0001)  Seconds in section "DO_STATEVARS_TAVE   [FORWARD_STEP]":
(PID.TID 0000.0001)          User time:  0.0000000000000000E+000
(PID.TID 0000.0001)        System time:  0.0000000000000000E+000
(PID.TID 0000.0001)    Wall clock time:  3.7527084350585938E-004
(PID.TID 0000.0001)         No. starts:           6
(PID.TID 0000.0001)          No. stops:           6
(PID.TID 0000.0001)  Seconds in section "MONITOR             [FORWARD_STEP]":
(PID.TID 0000.0001)          User time:  0.2700004577636719
(PID.TID 0000.0001)        System time:  0.0000000000000000E+000
(PID.TID 0000.0001)    Wall clock time:  0.2561373710632324
(PID.TID 0000.0001)         No. starts:           6
(PID.TID 0000.0001)          No. stops:           6
(PID.TID 0000.0001)  Seconds in section "DO_THE_MODEL_IO     [FORWARD_STEP]":
(PID.TID 0000.0001)          User time:  0.1099987030029297
(PID.TID 0000.0001)        System time:  0.1099998950958252
(PID.TID 0000.0001)    Wall clock time:   3.998878955841064
(PID.TID 0000.0001)         No. starts:           6
(PID.TID 0000.0001)          No. stops:           6
(PID.TID 0000.0001)  Seconds in section "DO_WRITE_PICKUP     [FORWARD_STEP]":
(PID.TID 0000.0001)          User time:  0.0000000000000000E+000
(PID.TID 0000.0001)        System time:  0.0000000000000000E+000
(PID.TID 0000.0001)    Wall clock time:  3.0326843261718750E-004
(PID.TID 0000.0001)         No. starts:           6
(PID.TID 0000.0001)          No. stops:           6
(PID.TID 0000.0001)  Seconds in section "DO_WRITE_PICKUP        [THE_MODEL_MAIN]":
(PID.TID 0000.0001)          User time:  0.5200004577636719
(PID.TID 0000.0001)        System time:  0.2500000000000000
(PID.TID 0000.0001)    Wall clock time:   8.662351131439209
(PID.TID 0000.0001)         No. starts:           1
(PID.TID 0000.0001)          No. stops:           1
(PID.TID 0000.0001) // ======================================================
(PID.TID 0000.0001) // Tile <-> Tile communication statistics
(PID.TID 0000.0001) // ======================================================
(PID.TID 0000.0001) // o Tile number: 000001
(PID.TID 0000.0001) //         No. X exchanges =              0
(PID.TID 0000.0001) //            Max. X spins =              0
(PID.TID 0000.0001) //            Min. X spins =     1000000000
(PID.TID 0000.0001) //          Total. X spins =              0
(PID.TID 0000.0001) //            Avg. X spins =       0.00E+00
(PID.TID 0000.0001) //         No. Y exchanges =              0
(PID.TID 0000.0001) //            Max. Y spins =              0
(PID.TID 0000.0001) //            Min. Y spins =     1000000000
(PID.TID 0000.0001) //          Total. Y spins =              0
(PID.TID 0000.0001) //            Avg. Y spins =       0.00E+00
(PID.TID 0000.0001) // o Tile number: 000002
(PID.TID 0000.0001) //         No. X exchanges =              0
(PID.TID 0000.0001) //            Max. X spins =              0
(PID.TID 0000.0001) //            Min. X spins =     1000000000
(PID.TID 0000.0001) //          Total. X spins =              0
(PID.TID 0000.0001) //            Avg. X spins =       0.00E+00
(PID.TID 0000.0001) //         No. Y exchanges =              0
(PID.TID 0000.0001) //            Max. Y spins =              0
(PID.TID 0000.0001) //            Min. Y spins =     1000000000
(PID.TID 0000.0001) //          Total. Y spins =              0
(PID.TID 0000.0001) //            Avg. Y spins =       0.00E+00
(PID.TID 0000.0001) // o Tile number: 000003
(PID.TID 0000.0001) //         No. X exchanges =              0
(PID.TID 0000.0001) //            Max. X spins =              0
(PID.TID 0000.0001) //            Min. X spins =     1000000000
(PID.TID 0000.0001) //          Total. X spins =              0
(PID.TID 0000.0001) //            Avg. X spins =       0.00E+00
(PID.TID 0000.0001) //         No. Y exchanges =              0
(PID.TID 0000.0001) //            Max. Y spins =              0
(PID.TID 0000.0001) //            Min. Y spins =     1000000000
(PID.TID 0000.0001) //          Total. Y spins =              0
(PID.TID 0000.0001) //            Avg. Y spins =       0.00E+00
(PID.TID 0000.0001) // o Tile number: 000004
(PID.TID 0000.0001) //         No. X exchanges =              0
(PID.TID 0000.0001) //            Max. X spins =              0
(PID.TID 0000.0001) //            Min. X spins =     1000000000
(PID.TID 0000.0001) //          Total. X spins =              0
(PID.TID 0000.0001) //            Avg. X spins =       0.00E+00
(PID.TID 0000.0001) //         No. Y exchanges =              0
(PID.TID 0000.0001) //            Max. Y spins =              0
(PID.TID 0000.0001) //            Min. Y spins =     1000000000
(PID.TID 0000.0001) //          Total. Y spins =              0
(PID.TID 0000.0001) //            Avg. Y spins =       0.00E+00
(PID.TID 0000.0001) // o Tile number: 000005
(PID.TID 0000.0001) //         No. X exchanges =              0
(PID.TID 0000.0001) //            Max. X spins =              0
(PID.TID 0000.0001) //            Min. X spins =     1000000000
(PID.TID 0000.0001) //          Total. X spins =              0
(PID.TID 0000.0001) //            Avg. X spins =       0.00E+00
(PID.TID 0000.0001) //         No. Y exchanges =              0
(PID.TID 0000.0001) //            Max. Y spins =              0
(PID.TID 0000.0001) //            Min. Y spins =     1000000000
(PID.TID 0000.0001) //          Total. Y spins =              0
(PID.TID 0000.0001) //            Avg. Y spins =       0.00E+00
(PID.TID 0000.0001) // o Tile number: 000006
(PID.TID 0000.0001) //         No. X exchanges =              0
(PID.TID 0000.0001) //            Max. X spins =              0
(PID.TID 0000.0001) //            Min. X spins =     1000000000
(PID.TID 0000.0001) //          Total. X spins =              0
(PID.TID 0000.0001) //            Avg. X spins =       0.00E+00
(PID.TID 0000.0001) //         No. Y exchanges =              0
(PID.TID 0000.0001) //            Max. Y spins =              0
(PID.TID 0000.0001) //            Min. Y spins =     1000000000
(PID.TID 0000.0001) //          Total. Y spins =              0
(PID.TID 0000.0001) //            Avg. Y spins =       0.00E+00
(PID.TID 0000.0001) // o Thread number: 000001
(PID.TID 0000.0001) //            No. barriers =           7612
(PID.TID 0000.0001) //      Max. barrier spins =              1
(PID.TID 0000.0001) //      Min. barrier spins =              1
(PID.TID 0000.0001) //     Total barrier spins =           7612
(PID.TID 0000.0001) //      Avg. barrier spins =       1.00E+00
