(PID.TID 0000.0001) 
(PID.TID 0000.0001) // ======================================================
(PID.TID 0000.0001) //                      MITgcm UV
(PID.TID 0000.0001) //                      =========
(PID.TID 0000.0001) // ======================================================
(PID.TID 0000.0001) // execution environment starting up...
(PID.TID 0000.0001) 
(PID.TID 0000.0001) // MITgcmUV version:  checkpoint57p_post
(PID.TID 0000.0001) // Build user:        jmc
(PID.TID 0000.0001) // Build host:        myrinet-4-24
(PID.TID 0000.0001) // Build date:        Sat Aug 13 13:13:02 EDT 2005
(PID.TID 0000.0001) 
(PID.TID 0000.0001) // =======================================================
(PID.TID 0000.0001) // Execution Environment parameter file "eedata"
(PID.TID 0000.0001) // =======================================================
(PID.TID 0000.0001) ># Example "eedata" file
(PID.TID 0000.0001) ># Lines beginning "#" are comments
(PID.TID 0000.0001) ># nTx - No. threads per process in X
(PID.TID 0000.0001) ># nTy - No. threads per process in Y
(PID.TID 0000.0001) > &EEPARMS
(PID.TID 0000.0001) > useCubedSphereExchange=.TRUE.,
(PID.TID 0000.0001) ># Activate one line below to support 2, 3 or 6 way multi-threading
(PID.TID 0000.0001) >#nTx=2,
(PID.TID 0000.0001) >#nTx=3,
(PID.TID 0000.0001) >#nTx=6,
(PID.TID 0000.0001) > &
(PID.TID 0000.0001) ># Note: Some systems use & as the
(PID.TID 0000.0001) ># namelist terminator. Other systems
(PID.TID 0000.0001) ># use a / character (as shown here).
(PID.TID 0000.0001) 
(PID.TID 0000.0001) // =======================================================
(PID.TID 0000.0001) // Computational Grid Specification ( see files "SIZE.h" )
(PID.TID 0000.0001) //                                  ( and "eedata"       )
(PID.TID 0000.0001) // =======================================================
(PID.TID 0000.0001)      nPx =    6 ; /* No. processes in X */
(PID.TID 0000.0001)      nPy =    1 ; /* No. processes in Y */
(PID.TID 0000.0001)      nSx =    1 ; /* No. tiles in X per process */
(PID.TID 0000.0001)      nSy =    1 ; /* No. tiles in Y per process */
(PID.TID 0000.0001)      sNx =   32 ; /* Tile size in X */
(PID.TID 0000.0001)      sNy =   32 ; /* Tile size in Y */
(PID.TID 0000.0001)      OLx =    2 ; /* Tile overlap distance in X */
(PID.TID 0000.0001)      OLy =    2 ; /* Tile overlap distance in Y */
(PID.TID 0000.0001)      nTx =    1 ; /* No. threads in X per process */
(PID.TID 0000.0001)      nTy =    1 ; /* No. threads in Y per process */
(PID.TID 0000.0001)       Nr =   10 ; /* No. levels in the vertical   */
(PID.TID 0000.0001)       nX =  192 ; /* Total domain size in X ( = nPx*nSx*sNx ) */
(PID.TID 0000.0001)       nY =   32 ; /* Total domain size in Y ( = nPy*nSy*sNy ) */
(PID.TID 0000.0001)   nTiles =    1 ; /* Total no. tiles per process ( = nSx*nSy ) */
(PID.TID 0000.0001)   nProcs =    6 ; /* Total no. processes ( = nPx*nPy ) */
(PID.TID 0000.0001) nThreads =    1 ; /* Total no. threads per process ( = nTx*nTy ) */
(PID.TID 0000.0001) usingMPI =    F ; /* Flag used to control whether MPI is in use */
(PID.TID 0000.0001)                   /*  note: To execute a program with MPI calls */
(PID.TID 0000.0001)                   /*  it must be launched appropriately e.g     */
(PID.TID 0000.0001)                   /*  "mpirun -np 64 ......"                    */
(PID.TID 0000.0001) useCoupler=   F ; /* Flag used to control communications with */
(PID.TID 0000.0001)                   /*  other model components, through a coupler */
(PID.TID 0000.0001) 
(PID.TID 0000.0001) ======= Starting MPI parallel Run =========
(PID.TID 0000.0001)  My Processor Name =                                                     myrinet-4-24
(PID.TID 0000.0001)  Located at (  0,  0) on processor grid (0:  5,0:  0)
(PID.TID 0000.0001)  Origin at  (   1,   1) on global grid (1: 192,1:  32)
(PID.TID 0000.0001)  North neighbor = processor 0000
(PID.TID 0000.0001)  South neighbor = processor 0000
(PID.TID 0000.0001)   East neighbor = processor 0001
(PID.TID 0000.0001)   West neighbor = processor 0005
(PID.TID 0000.0001) // ======================================================
(PID.TID 0000.0001) // Mapping of tiles to threads
(PID.TID 0000.0001) // ======================================================
(PID.TID 0000.0001) // -o- Thread   1, tiles (   1:   1,   1:   1)
(PID.TID 0000.0001) 
(PID.TID 0000.0001) // ======================================================
(PID.TID 0000.0001) // Tile <-> Tile connectvity table
(PID.TID 0000.0001) // ======================================================
(PID.TID 0000.0001) // Tile number: 000001 (process no. = 000000)
(PID.TID 0000.0001) //        WEST: Tile = 000006, Process = 000005, Comm = messages
(PID.TID 0000.0001) //                bi = 000001, bj = 000001
(PID.TID 0000.0001) //        EAST: Tile = 000002, Process = 000001, Comm = messages
(PID.TID 0000.0001) //                bi = 000001, bj = 000001
(PID.TID 0000.0001) //       SOUTH: Tile = 000001, Process = 000000, Comm = put
(PID.TID 0000.0001) //                bi = 000001, bj = 000001
(PID.TID 0000.0001) //       NORTH: Tile = 000001, Process = 000000, Comm = put
(PID.TID 0000.0001) //                bi = 000001, bj = 000001
(PID.TID 0000.0001) 
(PID.TID 0000.0001) ===== W2 TILE TOPLOGY =====
(PID.TID 0000.0001)  TILE:    1
(PID.TID 0000.0001)       NEIGHBOUR    1 = TILE    3 Comm = MSG ( PROC =    3)
(PID.TID 0000.0001)       NEIGHBOUR    2 = TILE    6 Comm = MSG ( PROC =    6)
(PID.TID 0000.0001)       NEIGHBOUR    3 = TILE    2 Comm = MSG ( PROC =    2)
(PID.TID 0000.0001)       NEIGHBOUR    4 = TILE    5 Comm = MSG ( PROC =    5)
(PID.TID 0000.0001) Tile    1(proc =   1) sends points i=  34:  -1, j=  31:  32
(PID.TID 0000.0001)                          to points i=  -1:   0, j=  -1:  34 in tile    3(proc =   3)
(PID.TID 0000.0001) Tile    1(proc =   1) sends points i=  -1:  34, j=   1:   2
(PID.TID 0000.0001)                          to points i=  -1:  34, j=  33:  34 in tile    6(proc =   6)
(PID.TID 0000.0001) Tile    1(proc =   1) sends points i=  31:  32, j=  -1:  34
(PID.TID 0000.0001)                          to points i=  -1:   0, j=  -1:  34 in tile    2(proc =   2)
(PID.TID 0000.0001) Tile    1(proc =   1) sends points i=   1:   2, j=  34:  -1
(PID.TID 0000.0001)                          to points i=  -1:  34, j=  33:  34 in tile    5(proc =   5)
(PID.TID 0000.0001) Tile    1(proc =   3)recv to points i=  -1:  34, j=  33:  34from tile   3(proc =   3)
(PID.TID 0000.0001) Tile    1(proc =   6)recv to points i=  -1:  34, j=  -1:   0from tile   6(proc =   6)
(PID.TID 0000.0001) Tile    1(proc =   2)recv to points i=  33:  34, j=  -1:  34from tile   2(proc =   2)
(PID.TID 0000.0001) Tile    1(proc =   5)recv to points i=  -1:   0, j=  -1:  34from tile   5(proc =   5)
(PID.TID 0000.0001) // =======================================================
(PID.TID 0000.0001) // Model parameter file "data"
(PID.TID 0000.0001) // =======================================================
(PID.TID 0000.0001) ># ====================
(PID.TID 0000.0001) ># | Model parameters |
(PID.TID 0000.0001) ># ====================
(PID.TID 0000.0001) >#
(PID.TID 0000.0001) ># Continuous equation parameters
(PID.TID 0000.0001) > &PARM01
(PID.TID 0000.0001) >#tRef=284.,286.,288.,290.,292.,294.,296.,298.,300.,302.,
(PID.TID 0000.0001) >#     304.,306.,308.,310.,312.,314.,316.,318.,320.,322.,
(PID.TID 0000.0001) >#     324.,326.,328.,330.,335.,340.,345.,350.,355.,360.,
(PID.TID 0000.0001) >#     365.,370.,380.,390.,400.,410.,420.,430.,440.,450.,
(PID.TID 0000.0001) > tRef=288.8,292.7,298.1,303.8,309.8,316.2,323.2,332.5,356.1,437.4,
(PID.TID 0000.0001) >#tRef=280.,290.,300.,310.,320.,330.,360.,390.,420.,450.,
(PID.TID 0000.0001) >  sRef=1.0E-3,5.0E-4,1.E-4,5*1.E-6,1.E-8,1.E-9,
(PID.TID 0000.0001) >#sRef=40*0.0,
(PID.TID 0000.0001) > viscAr=0.E1,
(PID.TID 0000.0001) > viscAh=0.E6,
(PID.TID 0000.0001) > viscA4=0.E17,
(PID.TID 0000.0001) > no_slip_sides=.FALSE.,
(PID.TID 0000.0001) > no_slip_bottom=.FALSE.,
(PID.TID 0000.0001) > diffKhT=0.E3,
(PID.TID 0000.0001) > diffKrT=0.,
(PID.TID 0000.0001) > diffK4T=0.E17,
(PID.TID 0000.0001) > diffKrS=0.E2,
(PID.TID 0000.0001) > diffKhS=0.E3,
(PID.TID 0000.0001) > diffK4S=0.E17,
(PID.TID 0000.0001) > buoyancyRelation='ATMOSPHERIC',
(PID.TID 0000.0001) > eosType='IDEALGAS',
(PID.TID 0000.0001) >#Integr_GeoPot=2,
(PID.TID 0000.0001) > gravity=9.81,
(PID.TID 0000.0001) > rhonil=1.0,
(PID.TID 0000.0001) > rhoConst=1.0,
(PID.TID 0000.0001) > rigidLid=.FALSE.,
(PID.TID 0000.0001) > implicitFreeSurface=.TRUE.,
(PID.TID 0000.0001) > exactConserv=.TRUE.,
(PID.TID 0000.0001) > uniformLin_PhiSurf=.FALSE.,
(PID.TID 0000.0001) > staggerTimeStep=.TRUE.,
(PID.TID 0000.0001) > nonHydrostatic=.FALSE.,
(PID.TID 0000.0001) > readBinaryPrec=64,
(PID.TID 0000.0001) > writeBinaryPrec=64,
(PID.TID 0000.0001) > hFacMin=0.2,
(PID.TID 0000.0001) > nonlinFreeSurf=4,
(PID.TID 0000.0001) > select_rStar=2,
(PID.TID 0000.0001) > saltAdvScheme=3,
(PID.TID 0000.0001) > vectorInvariantMomentum=.TRUE.,
(PID.TID 0000.0001) > &
(PID.TID 0000.0001) >
(PID.TID 0000.0001) ># Elliptic solver parameters
(PID.TID 0000.0001) > &PARM02
(PID.TID 0000.0001) > cg2dMaxIters=200,
(PID.TID 0000.0001) >#cg2dTargetResidual=1.E-12,
(PID.TID 0000.0001) > cg2dTargetResWunit=1.E-17,
(PID.TID 0000.0001) > &
(PID.TID 0000.0001) >
(PID.TID 0000.0001) ># Time stepping parameters
(PID.TID 0000.0001) > &PARM03
(PID.TID 0000.0001) > nIter0=0,
(PID.TID 0000.0001) > nTimeSteps=6,
(PID.TID 0000.0001) >#endTime=864000.0,
(PID.TID 0000.0001) > deltaT=300.0,
(PID.TID 0000.0001) > forcing_In_AB=.FALSE.,
(PID.TID 0000.0001) > abEps=0.1,
(PID.TID 0000.0001) > cAdjFreq=0.,
(PID.TID 0000.0001) > pChkptFreq=2678400.0,
(PID.TID 0000.0001) > ChkptFreq=2678400.0,
(PID.TID 0000.0001) > dumpFreq=0.0,
(PID.TID 0000.0001) > monitorFreq=2678400.,
(PID.TID 0000.0001) > taveFreq=0.0,
(PID.TID 0000.0001) > tave_lastiter=1.,
(PID.TID 0000.0001) > monitorFreq=1.,
(PID.TID 0000.0001) > dumpFreq=1.,
(PID.TID 0000.0001) > &
(PID.TID 0000.0001) >
(PID.TID 0000.0001) ># Gridding parameters
(PID.TID 0000.0001) > &PARM04
(PID.TID 0000.0001) > usingCartesianGrid=.FALSE.,
(PID.TID 0000.0001) > usingSphericalPolarGrid=.FALSE.,
(PID.TID 0000.0001) > usingCurvilinearGrid=.TRUE.,
(PID.TID 0000.0001) >#delR=40*0.25E4,
(PID.TID 0000.0001) > delR=10*1.0E4,
(PID.TID 0000.0001) > Ro_SeaLevel=1.E5,
(PID.TID 0000.0001) > rSphere=6370.E3,
(PID.TID 0000.0001) > &
(PID.TID 0000.0001) >
(PID.TID 0000.0001) ># Input datasets
(PID.TID 0000.0001) > &PARM05
(PID.TID 0000.0001) > topoFile='top19232.data',
(PID.TID 0000.0001) > uVelInitFile='uVel_cs32x10.d19930110z06.bin',
(PID.TID 0000.0001) > vVelInitFile='vVel_cs32x10.d19930110z06.bin',
(PID.TID 0000.0001) > hydrogThetaFile='TH_cs32x10.d19930110z06.bin',
(PID.TID 0000.0001) > hydrogSaltFile='SH_cs32x10.d19930110z06.bin',
(PID.TID 0000.0001) > &
(PID.TID 0000.0001) 
(PID.TID 0000.0001) S/R INI_PARMS ; starts to read PARM01
(PID.TID 0000.0001) S/R INI_PARMS ; read PARM01 : OK
(PID.TID 0000.0001) S/R INI_PARMS ; starts to read PARM02
(PID.TID 0000.0001) S/R INI_PARMS ; read PARM02 : OK
(PID.TID 0000.0001) S/R INI_PARMS ; starts to read PARM03
(PID.TID 0000.0001) S/R INI_PARMS ; read PARM03 : OK
(PID.TID 0000.0001) S/R INI_PARMS ; starts to read PARM04
(PID.TID 0000.0001) S/R INI_PARMS ; read PARM04 : OK
(PID.TID 0000.0001) S/R INI_PARMS ; starts to read PARM05
(PID.TID 0000.0001) S/R INI_PARMS ; read PARM05 : OK
(PID.TID 0000.0001)  PACKAGES_BOOT: opening data.pkg
(PID.TID 0000.0001)  OPEN_COPY_DATA_FILE: opening file data.pkg
(PID.TID 0000.0001) // =======================================================
(PID.TID 0000.0001) // Parameter file "data.pkg"
(PID.TID 0000.0001) // =======================================================
(PID.TID 0000.0001) ># Packages
(PID.TID 0000.0001) > &PACKAGES
(PID.TID 0000.0001) > useFIZHI=.TRUE.,
(PID.TID 0000.0001) > useGRIDALT=.TRUE.,
(PID.TID 0000.0001) > useSHAP_FILT=.TRUE.,
(PID.TID 0000.0001) > useDIAGNOSTICS=.TRUE.,
(PID.TID 0000.0001) > &
(PID.TID 0000.0001) 
(PID.TID 0000.0001)  PACKAGES_BOOT: finished reading data.pkg
(PID.TID 0000.0001)  SHAP_FILT_READPARMS: opening data.shap
(PID.TID 0000.0001)  OPEN_COPY_DATA_FILE: opening file data.shap
(PID.TID 0000.0001) // =======================================================
(PID.TID 0000.0001) // Parameter file "data.shap"
(PID.TID 0000.0001) // =======================================================
(PID.TID 0000.0001) ># Shapiro Filter parameters
(PID.TID 0000.0001) > &SHAP_PARM01
(PID.TID 0000.0001) > shap_filt_uvStar=.FALSE.,
(PID.TID 0000.0001) > shap_filt_TrStagg=.TRUE.,
(PID.TID 0000.0001) > Shap_funct=2,
(PID.TID 0000.0001) > nShapT=4,
(PID.TID 0000.0001) > nShapUV=4,
(PID.TID 0000.0001) > nShapTrPhys=0,
(PID.TID 0000.0001) > nShapUVPhys=0,
(PID.TID 0000.0001) >#Shap_TrLength=115000.,
(PID.TID 0000.0001) >#Shap_uvLength=110000.,
(PID.TID 0000.0001) > Shap_Trtau=5400.,
(PID.TID 0000.0001) > Shap_uvtau=1800.,
(PID.TID 0000.0001) > &
(PID.TID 0000.0001) 
(PID.TID 0000.0001)  SHAP_FILT_READPARMS: finished reading data.shap
(PID.TID 0000.0001) Shap_funct =   /* select Shapiro filter function */
(PID.TID 0000.0001)                       2
(PID.TID 0000.0001)     ;
(PID.TID 0000.0001) nShapT =   /* power of Shapiro filter for Temperat */
(PID.TID 0000.0001)                       4
(PID.TID 0000.0001)     ;
(PID.TID 0000.0001) nShapS =   /* power of Shapiro filter for Salinity */
(PID.TID 0000.0001)                       4
(PID.TID 0000.0001)     ;
(PID.TID 0000.0001) nShapUV =   /* power of Shapiro filter for momentum */
(PID.TID 0000.0001)                       4
(PID.TID 0000.0001)     ;
(PID.TID 0000.0001) nShapTrPhys =   /* power of physical-space filter (Tracer) */
(PID.TID 0000.0001)                       0
(PID.TID 0000.0001)     ;
(PID.TID 0000.0001) nShapUVPhys =   /* power of physical-space filter (Momentum) */
(PID.TID 0000.0001)                       0
(PID.TID 0000.0001)     ;
(PID.TID 0000.0001) Shap_Trtau =   /* time scale of Shapiro filter (Tracer) */
(PID.TID 0000.0001)                 5.400000000000000E+03
(PID.TID 0000.0001)     ;
(PID.TID 0000.0001) Shap_TrLength =   /* Length scale of Shapiro filter (Tracer) */
(PID.TID 0000.0001)                 0.000000000000000E+00
(PID.TID 0000.0001)     ;
(PID.TID 0000.0001) Shap_uvtau =   /* time scale of Shapiro filter (Momentum) */
(PID.TID 0000.0001)                 1.800000000000000E+03
(PID.TID 0000.0001)     ;
(PID.TID 0000.0001) Shap_uvLength =   /* Length scale of Shapiro filter (Momentum) */
(PID.TID 0000.0001)                 0.000000000000000E+00
(PID.TID 0000.0001)     ;
(PID.TID 0000.0001) Shap_noSlip =  /* No-slip parameter (0=Free-slip ; 1=No-slip)*/
(PID.TID 0000.0001)                 0.000000000000000E+00
(PID.TID 0000.0001)     ;
(PID.TID 0000.0001) Shap_diagFreq =   /* Frequency^-1 for diagnostic output (s)*/
(PID.TID 0000.0001)                 0.000000000000000E+00
(PID.TID 0000.0001)     ;
(PID.TID 0000.0001)  FIZHI_READPARMS: opening data.fizhi
(PID.TID 0000.0001)  OPEN_COPY_DATA_FILE: opening file data.fizhi
(PID.TID 0000.0001) // =======================================================
(PID.TID 0000.0001) // Parameter file "data.fizhi"
(PID.TID 0000.0001) // =======================================================
(PID.TID 0000.0001) ># Fizhi Parameters
(PID.TID 0000.0001) > &fizhi_list
(PID.TID 0000.0001) > nhmsbegin=060000,
(PID.TID 0000.0001) > nymdbegin=19930110,
(PID.TID 0000.0001) > runlength=0.003,
(PID.TID 0000.0001) > &
(PID.TID 0000.0001) 
(PID.TID 0000.0001)  CHANGING NUMBER OF MODEL TIMESTEPS TO         6
(PID.TID 0000.0001)  CHANGING END TIME TO     1800.00
   Begin Date     19930110   Begin Time        60000
 Current Date     19930110 Current Time        60000
(PID.TID 0000.0001)  DIAGNOSTICS_READPARMS: opening data.diagnostics
(PID.TID 0000.0001)  OPEN_COPY_DATA_FILE: opening file data.diagnostics
(PID.TID 0000.0001) // =======================================================
(PID.TID 0000.0001) // Parameter file "data.diagnostics"
(PID.TID 0000.0001) // =======================================================
(PID.TID 0000.0001) ># Diagnostic Package Choices
(PID.TID 0000.0001) > &diagnostics_list
(PID.TID 0000.0001) >  frequency(1) = 0.003,
(PID.TID 0000.0001) >   levels(1,1) = 1.,
(PID.TID 0000.0001) >   fields(1,1) = 'TCANOPY ','OLR     ','RSURF   ',
(PID.TID 0000.0001) >   filename(1) = 'surface',
(PID.TID 0000.0001) >  frequency(2) = 0.003,
(PID.TID 0000.0001) >   levels(1,2) = 1.,2.,3.,4.,5.,6.,7.,8.,9.,10.,11.,12.,13.,14.,15.,16.,17.,18.,19.,20.,
(PID.TID 0000.0001) >   fields(1,2) = 'DPPHYS  ', 'FIZPRES ',
(PID.TID 0000.0001) >   filename(2) = 'upperfiz',
(PID.TID 0000.0001) >  frequency(3) = 0.003,
(PID.TID 0000.0001) >   levels(1,3) = 1.,2.,3.,4.,5.,6.,7.,8.,9.,10.,
(PID.TID 0000.0001) >   fields(1,3) = 'UVEL    ','PRESSURE',
(PID.TID 0000.0001) >   filename(3) = 'uVeltave',
(PID.TID 0000.0001) >  frequency(4) = 0.003,
(PID.TID 0000.0001) >  fileflags(4) = ' P1     ',
(PID.TID 0000.0001) >   levels(1,4) = 1.,2.,3.,4.,5.,6.,7.,8.,9.,10.,
(PID.TID 0000.0001) >   fields(1,4) = 'UVEL    ',
(PID.TID 0000.0001) >   filename(4) = 'uVelpres',
(PID.TID 0000.0001) > &end
(PID.TID 0000.0001) >
(PID.TID 0000.0001) ># Parameter for Diagnostics of per level statistics:
(PID.TID 0000.0001) >#-----------------
(PID.TID 0000.0001) ># for each output-stream:
(PID.TID 0000.0001) >#  stat_fname(n) : prefix of the output file name (only 8.c long) for outp.stream n
(PID.TID 0000.0001) >#  stat_freq(n):< 0 : write snap-shot output every |stat_freq| seconds
(PID.TID 0000.0001) >#               > 0 : write time-average output every stat_freq seconds
(PID.TID 0000.0001) >#  stat_phase(n)    : write at time = stat_phase + multiple of |stat_freq|
(PID.TID 0000.0001) >#  stat_region(:,n) : list of "regions" (default: 1 region only=global)
(PID.TID 0000.0001) >#  stat_fields(:,n) : list of diagnostics fields (8.c) (see "available_diagnostics.log"
(PID.TID 0000.0001) >#                 file for the list of all available diag. in this particular config)
(PID.TID 0000.0001) >#-----------------
(PID.TID 0000.0001) > &DIAG_STATIS_PARMS
(PID.TID 0000.0001) >#- an example just to check the agreement with MONITOR output:
(PID.TID 0000.0001) >#stat_fields(1,1)= 'ETAN    ','UVEL    ','VVEL    ','WVEL    ', 'THETA   ',
(PID.TID 0000.0001) >#   stat_fname(1)= 'dynStDiag',
(PID.TID 0000.0001) >#    stat_freq(1)= -864000.,
(PID.TID 0000.0001) >#   stat_phase(1)= 0.,
(PID.TID 0000.0001) > &
(PID.TID 0000.0001) 
(PID.TID 0000.0001) S/R DIAGNOSTICS_READPARMS, read namelist "diagnostics_list": start
(PID.TID 0000.0001) S/R DIAGNOSTICS_READPARMS, read namelist "diagnostics_list": OK
(PID.TID 0000.0001) S/R DIAGNOSTICS_READPARMS, read namelist "DIAG_STATIS_PARMS": start
(PID.TID 0000.0001) S/R DIAGNOSTICS_READPARMS, read namelist "DIAG_STATIS_PARMS": OK
(PID.TID 0000.0001) -----------------------------------------------------
(PID.TID 0000.0001)  DIAGNOSTICS_READPARMS: active diagnostics summary:
(PID.TID 0000.0001) -----------------------------------------------------
(PID.TID 0000.0001) Creating Output Stream: surface
(PID.TID 0000.0001) Frequency :          0.003000 ; Phase:          0.000000
(PID.TID 0000.0001)  Levels:       1.
(PID.TID 0000.0001) Fields:    TCANOPY  OLR      RSURF
(PID.TID 0000.0001) Creating Output Stream: upperfiz
(PID.TID 0000.0001) Frequency :          0.003000 ; Phase:          0.000000
(PID.TID 0000.0001)  Levels:       1.   2.   3.   4.   5.   6.   7.   8.   9.  10.  11.  12.  13.  14.  15.  16.  17.  18.  19.  20.
(PID.TID 0000.0001) Fields:    DPPHYS   FIZPRES
(PID.TID 0000.0001) Creating Output Stream: uVeltave
(PID.TID 0000.0001) Frequency :          0.003000 ; Phase:          0.000000
(PID.TID 0000.0001)  Levels:       1.   2.   3.   4.   5.   6.   7.   8.   9.  10.
(PID.TID 0000.0001) Fields:    UVEL     PRESSURE
(PID.TID 0000.0001) Creating Output Stream: uVelpres
(PID.TID 0000.0001) Frequency :          0.003000 ; Phase:          0.000000
(PID.TID 0000.0001)  Levels:       1.   2.   3.   4.   5.   6.   7.   8.   9.  10.
(PID.TID 0000.0001) Fields:    UVEL
(PID.TID 0000.0001) -----------------------------------------------------
(PID.TID 0000.0001)  DIAGNOSTICS_READPARMS: statistics diags. summary:
(PID.TID 0000.0001) -----------------------------------------------------
(PID.TID 0000.0001) -----------------------------------------------------
(PID.TID 0000.0001) tile:   1 ; Read from file tile001.mitgrid
(PID.TID 0000.0001)   => XC YC DXF DYF RA XG YG DXV DYU RAZ DXC DYC RAW RAS DXG DYG
(PID.TID 0000.0001) %MON XC_max                       =   1.7854351589505E+02
(PID.TID 0000.0001) %MON XC_min                       =  -1.7854351589505E+02
(PID.TID 0000.0001) %MON XC_mean                      =  -7.1054273576010E-15
(PID.TID 0000.0001) %MON XC_sd                        =   1.0355545336287E+02
(PID.TID 0000.0001) %MON XG_max                       =   1.8000000000000E+02
(PID.TID 0000.0001) %MON XG_min                       =  -1.7708797161002E+02
(PID.TID 0000.0001) %MON XG_mean                      =   1.8796250616675E+00
(PID.TID 0000.0001) %MON XG_sd                        =   1.0410625309932E+02
(PID.TID 0000.0001) %MON DXC_max                      =   3.2375185836900E+05
(PID.TID 0000.0001) %MON DXC_min                      =   1.1142031410131E+05
(PID.TID 0000.0001) %MON DXC_mean                     =   2.8605689051214E+05
(PID.TID 0000.0001) %MON DXC_sd                       =   3.4042087138252E+04
(PID.TID 0000.0001) %MON DXF_max                      =   3.2369947500827E+05
(PID.TID 0000.0001) %MON DXF_min                      =   1.2020820513318E+05
(PID.TID 0000.0001) %MON DXF_mean                     =   2.8605437324820E+05
(PID.TID 0000.0001) %MON DXF_sd                       =   3.4050524252539E+04
(PID.TID 0000.0001) %MON DXG_max                      =   3.2375195872773E+05
(PID.TID 0000.0001) %MON DXG_min                      =   1.0098378008791E+05
(PID.TID 0000.0001) %MON DXG_mean                     =   2.8603818508931E+05
(PID.TID 0000.0001) %MON DXG_sd                       =   3.4140406908005E+04
(PID.TID 0000.0001) %MON DXV_max                      =   3.2380418162750E+05
(PID.TID 0000.0001) %MON DXV_min                      =   8.0152299824136E+04
(PID.TID 0000.0001) %MON DXV_mean                     =   2.8603970633619E+05
(PID.TID 0000.0001) %MON DXV_sd                       =   3.4145142117723E+04
(PID.TID 0000.0001) %MON YC_max                       =   8.7940663871962E+01
(PID.TID 0000.0001) %MON YC_min                       =  -8.7940663871962E+01
(PID.TID 0000.0001) %MON YC_mean                      =   0.0000000000000E+00
(PID.TID 0000.0001) %MON YC_sd                        =   3.8676242969072E+01
(PID.TID 0000.0001) %MON YG_max                       =   9.0000000000000E+01
(PID.TID 0000.0001) %MON YG_min                       =  -9.0000000000000E+01
(PID.TID 0000.0001) %MON YG_mean                      =   1.2094344438470E-15
(PID.TID 0000.0001) %MON YG_sd                        =   3.9086186579984E+01
(PID.TID 0000.0001) %MON DYC_max                      =   3.2375185836900E+05
(PID.TID 0000.0001) %MON DYC_min                      =   1.1142031410131E+05
(PID.TID 0000.0001) %MON DYC_mean                     =   2.8605689051214E+05
(PID.TID 0000.0001) %MON DYC_sd                       =   3.4042087138252E+04
(PID.TID 0000.0001) %MON DYF_max                      =   3.2369947500827E+05
(PID.TID 0000.0001) %MON DYF_min                      =   1.2020820513318E+05
(PID.TID 0000.0001) %MON DYF_mean                     =   2.8605437324820E+05
(PID.TID 0000.0001) %MON DYF_sd                       =   3.4050524252539E+04
(PID.TID 0000.0001) %MON DYG_max                      =   3.2375195872773E+05
(PID.TID 0000.0001) %MON DYG_min                      =   1.0098378008791E+05
(PID.TID 0000.0001) %MON DYG_mean                     =   2.8603818508931E+05
(PID.TID 0000.0001) %MON DYG_sd                       =   3.4140406908005E+04
(PID.TID 0000.0001) %MON DYU_max                      =   3.2380418162750E+05
(PID.TID 0000.0001) %MON DYU_min                      =   8.0152299824136E+04
(PID.TID 0000.0001) %MON DYU_mean                     =   2.8603970633619E+05
(PID.TID 0000.0001) %MON DYU_sd                       =   3.4145142117723E+04
(PID.TID 0000.0001) %MON RA_max                       =   1.0479260248419E+11
(PID.TID 0000.0001) %MON RA_min                       =   1.4019007022556E+10
(PID.TID 0000.0001) %MON RA_mean                      =   8.2992246709265E+10
(PID.TID 0000.0001) %MON RA_sd                        =   1.7509089299457E+10
(PID.TID 0000.0001) %MON RAW_max                      =   1.0480965274559E+11
(PID.TID 0000.0001) %MON RAW_min                      =   1.2166903467143E+10
(PID.TID 0000.0001) %MON RAW_mean                     =   8.2992246709235E+10
(PID.TID 0000.0001) %MON RAW_sd                       =   1.7481917919656E+10
(PID.TID 0000.0001) %MON RAS_max                      =   1.0480965274559E+11
(PID.TID 0000.0001) %MON RAS_min                      =   1.2166903467143E+10
(PID.TID 0000.0001) %MON RAS_mean                     =   8.2992246709235E+10
(PID.TID 0000.0001) %MON RAS_sd                       =   1.7481917919656E+10
(PID.TID 0000.0001) %MON RAZ_max                      =   1.0484349334619E+11
(PID.TID 0000.0001) %MON RAZ_min                      =   8.8317900612505E+09
(PID.TID 0000.0001) %MON RAZ_mean                     =   8.2992246709235E+10
(PID.TID 0000.0001) %MON RAZ_sd                       =   1.7482297311044E+10
(PID.TID 0000.0001) %MON AngleCS_max                  =   1.0000000000000E+00
(PID.TID 0000.0001) %MON AngleCS_min                  =   1.0000000000000E+00
(PID.TID 0000.0001) %MON AngleCS_mean                 =   1.0000000000000E+00
(PID.TID 0000.0001) %MON AngleCS_sd                   =   0.0000000000000E+00
(PID.TID 0000.0001) %MON AngleSN_max                  =   0.0000000000000E+00
(PID.TID 0000.0001) %MON AngleSN_min                  =   0.0000000000000E+00
(PID.TID 0000.0001) %MON AngleSN_mean                 =   0.0000000000000E+00
(PID.TID 0000.0001) %MON AngleSN_sd                   =   0.0000000000000E+00
(PID.TID 0000.0001)  MDSREADFIELD: opening global file: top19232.data
INI_P_GROUND: PhiRef/g [m] at Center (integer) and Interface (half-int.) levels:
  K=  0.5  ;  r=  100000.0  ;  phiRef/g=       0.000
  K=  1.0  ;  r=   95000.0  ;  phiRef/g=     430.007
  K=  1.5  ;  r=   90000.0  ;  phiRef/g=     885.542
  K=  2.0  ;  r=   85000.0  ;  phiRef/g=    1347.229
  K=  2.5  ;  r=   80000.0  ;  phiRef/g=    1849.522
  K=  3.0  ;  r=   75000.0  ;  phiRef/g=    2361.083
  K=  3.5  ;  r=   70000.0  ;  phiRef/g=    2923.976
  K=  4.0  ;  r=   65000.0  ;  phiRef/g=    3497.632
  K=  4.5  ;  r=   60000.0  ;  phiRef/g=    4138.303
  K=  5.0  ;  r=   55000.0  ;  phiRef/g=    4791.627
  K=  5.5  ;  r=   50000.0  ;  phiRef/g=    5536.290
  K=  6.0  ;  r=   45000.0  ;  phiRef/g=    6296.336
  K=  6.5  ;  r=   40000.0  ;  phiRef/g=    7188.747
  K=  7.0  ;  r=   35000.0  ;  phiRef/g=    8100.914
  K=  7.5  ;  r=   30000.0  ;  phiRef/g=    9224.000
  K=  8.0  ;  r=   25000.0  ;  phiRef/g=   10379.402
  K=  8.5  ;  r=   20000.0  ;  phiRef/g=   11934.316
  K=  9.0  ;  r=   15000.0  ;  phiRef/g=   13599.595
  K=  9.5  ;  r=   10000.0  ;  phiRef/g=   16454.567
  K= 10.0  ;  r=    5000.0  ;  phiRef/g=   19961.348
  K= 10.5  ;  r=       0.0  ;  phiRef/g=   38981.791
(PID.TID 0000.0001) // =======================================================
(PID.TID 0000.0001) // Field Model R_low (ini_masks_etc) at iteration          1
(PID.TID 0000.0001) // CMIN =          1.000000000000000E+32
(PID.TID 0000.0001) // CMAX =         -1.000000000000000E+32
(PID.TID 0000.0001) // CINT =          0.000000000000000E+00
(PID.TID 0000.0001) // SYMBOLS (CMIN->CMAX): -abcdefghijklmnopqrstuvwxyz+
(PID.TID 0000.0001) //                  0.0: .
(PID.TID 0000.0001) // RANGE I (Lo:Hi:Step):(  -1:  34:   1)
(PID.TID 0000.0001) // RANGE J (Lo:Hi:Step):(  34:  -1:  -1)
(PID.TID 0000.0001) // RANGE K (Lo:Hi:Step):(   1:   1:   1)
(PID.TID 0000.0001) // =======================================================
(PID.TID 0000.0001) // =======================================================
(PID.TID 0000.0001) // END OF FIELD                                          =
(PID.TID 0000.0001) // =======================================================
(PID.TID 0000.0001) 
(PID.TID 0000.0001) // =======================================================
(PID.TID 0000.0001) // Field Model Ro_surf (ini_masks_etc) at iteration          1
(PID.TID 0000.0001) // CMIN =          7.651597255367717E+04
(PID.TID 0000.0001) // CMAX =          1.000000000000000E+05
(PID.TID 0000.0001) // CINT =          8.697787943082528E+02
(PID.TID 0000.0001) // SYMBOLS (CMIN->CMAX): -abcdefghijklmnopqrstuvwxyz+
(PID.TID 0000.0001) //                  0.0: .
(PID.TID 0000.0001) // RANGE I (Lo:Hi:Step):(  -1:  34:   1)
(PID.TID 0000.0001) // RANGE J (Lo:Hi:Step):(  34:  -1:  -1)
(PID.TID 0000.0001) // RANGE K (Lo:Hi:Step):(   1:   1:   1)
(PID.TID 0000.0001) // =======================================================
(PID.TID 0000.0001) K =   1
(PID.TID 0000.0001) //                I=8       I=18      I=28
(PID.TID 0000.0001) // |--J--|*01234567|901234567|901234567|901234
(PID.TID 0000.0001) //     34 +++++++++++++++++zwthxzny+++v-dbhbrh
(PID.TID 0000.0001) //     33 +++++++++++++++++znw+vnpt+nmhkpsroob
(PID.TID 0000.0001) //     32 +++++++++++++++ytvttxvxrpwumlksuwvlc
(PID.TID 0000.0001) //     31 +++++++++++++++xrox+y+wzuzuopxtvxzrd
(PID.TID 0000.0001) //     30 +++++++++++++++zts++zzy+yz++zxprvzzu
(PID.TID 0000.0001) //     29 ++++++++++++++++wvrrrz+++++++xrrtvy+
(PID.TID 0000.0001) //     28 +++++++++++++++uimpvyxy+zyyzysoprtwz
(PID.TID 0000.0001) //     27 ++++++++++++z+zorttvvttwyyyxwwspnrtx
(PID.TID 0000.0001) //     26 +++++++++++++zvuvwvsrsttxxvvwwzsoorv
(PID.TID 0000.0001) //     25 +++++++++++++xwwwxvoknrtsurvwvwzmprw
(PID.TID 0000.0001) //     24 ++++++++++++zxvvvwurprsnntruwvr+rkrv
(PID.TID 0000.0001) //     23 +++++++++++++ywvvvuursuuvsrtvvttzhor
(PID.TID 0000.0001) //     22 +++++++++++++zxwwwvvuuvwwporsusjxlmt
(PID.TID 0000.0001) //     21 +++++++++++++yvvwwxwuuwuurorruo-rxzx
(PID.TID 0000.0001) //     20 +++++++++++++wtuvxwwttuvutrtuuh-jmpr
(PID.TID 0000.0001) //     19 ++++++++++++++wwxxyxxtprurrsuuibjrty
(PID.TID 0000.0001) //     18 +++++++++++++++z++++zursttsrporlrvy+
(PID.TID 0000.0001) //     17 +++++++++++++++++++++wtuvvurlmhryz++
(PID.TID 0000.0001) //     16 +++++++++++++++++++++yuvvvuoglfpz+++
(PID.TID 0000.0001) //     15 ++zxz+++++++++++++++++wtuuspjlir++++
(PID.TID 0000.0001) //     14 yyxvvx++++++++++++++++xrprprlklv++++
(PID.TID 0000.0001) //     13 xwuuvy++++++++++++++++ylmnmlkinv++++
(PID.TID 0000.0001) //     12 xussy+++++++++++++++++tgjlkkkmruz+++
(PID.TID 0000.0001) //     11 vrssz+++++++++++++++++ojkmmmpprtz++t
(PID.TID 0000.0001) //     10 rrru++++++++++++++++++olmnnolryz++us
(PID.TID 0000.0001) //      9 rrpv++++++++++++++++++wiknomou+++zou
(PID.TID 0000.0001) //      8 spry++++++++++++++++++zjkmnoty+++xpz
(PID.TID 0000.0001) //      7 to+++++++++++++++++++++nnmkjr++++zu+
(PID.TID 0000.0001) //      6 tx+++++++++++++++++++++upljgs+++++++
(PID.TID 0000.0001) //      5 x++++++++++++++++++++++ymkhjz+++++++
(PID.TID 0000.0001) //      4 z++++++++++++++++++++++zvvv+++++++++
(PID.TID 0000.0001) //      3 ++++++++++++++++++++++++++++++++++++
(PID.TID 0000.0001) //      2 ++++++++++++++++++++++++++++++++++++
(PID.TID 0000.0001) //      1 ++++++++++++++++++++++++++++++++++++
(PID.TID 0000.0001) //      0 ++++++++++++++++++++++++++++++++++++
(PID.TID 0000.0001) //     -1 ++++++++++++++++++++++++++++++++++++
(PID.TID 0000.0001) // =======================================================
(PID.TID 0000.0001) // END OF FIELD                                          =
(PID.TID 0000.0001) // =======================================================
(PID.TID 0000.0001) 
(PID.TID 0000.0001) // =======================================================
(PID.TID 0000.0001) // Field hFacC at iteration          1
(PID.TID 0000.0001) // CMIN =          2.000000000000000E-01
(PID.TID 0000.0001) // CMAX =          1.000000000000000E+00
(PID.TID 0000.0001) // CINT =          2.962962962962963E-02
(PID.TID 0000.0001) // SYMBOLS (CMIN->CMAX): -abcdefghijklmnopqrstuvwxyz+
(PID.TID 0000.0001) //                  0.0: .
(PID.TID 0000.0001) // RANGE I (Lo:Hi:Step):(  -1:  34:   1)
(PID.TID 0000.0001) // RANGE J (Lo:Hi:Step):(  34:  -1:  -1)
(PID.TID 0000.0001) // RANGE K (Lo:Hi:Step):(   1:   1:   1)
(PID.TID 0000.0001) // =======================================================
(PID.TID 0000.0001) K =   1
(PID.TID 0000.0001) //                I=8       I=18      I=28
(PID.TID 0000.0001) // |--J--|*01234567|901234567|901234567|901234
(PID.TID 0000.0001) //     34 +++++++++++++++++xnh.sw.v+++l.....b.
(PID.TID 0000.0001) //     33 +++++++++++++++++x.qzl..g+.....db...
(PID.TID 0000.0001) //     32 +++++++++++++++uhlfgqkt-.pj...ckpl..
(PID.TID 0000.0001) //     31 +++++++++++++++r-.r+vzpxhxh..sglqy-.
(PID.TID 0000.0001) //     30 +++++++++++++++whd+zyyu+uwz+yq.-kwyj
(PID.TID 0000.0001) //     29 ++++++++++++++++pl--ay+++++++s--gnvz
(PID.TID 0000.0001) //     28 +++++++++++++++i...luqu+wvvxvd..-fnx
(PID.TID 0000.0001) //     27 ++++++++++++xzw.-egmnffouuvsood..bfs
(PID.TID 0000.0001) //     26 +++++++++++++ylikomdbdfgrqkmpnxd..-m
(PID.TID 0000.0001) //     25 ++++++++++++zrpopqm...-edh-kplnw..ao
(PID.TID 0000.0001) //     24 ++++++++++++yrmlmpia.bc..f-inmb+-.ak
(PID.TID 0000.0001) //     23 +++++++++z++zunmmmhjbdijkdahkkfgx..-
(PID.TID 0000.0001) //     22 +++++++++z++zxrpoommiimpn..-dje.t..f
(PID.TID 0000.0001) //     21 ++++++++++++ztmlooqphjoii-.-bi..-syt
(PID.TID 0000.0001) //     20 +++++++++++++ogjnqooffikjf-gii.....-
(PID.TID 0000.0001) //     19 +++++++++++++zpnsstsre.-hb-cjj...-gt
(PID.TID 0000.0001) //     18 +++++++++++++++xzz++yh-bgfc-..-.amu+
(PID.TID 0000.0001) //     17 +++++++++++++++++++++neilkj-...-tx++
(PID.TID 0000.0001) //     16 +++++++++++++++++++++viknkh.....y+++
(PID.TID 0000.0001) //     15 +zxsx++++++++++++++++zpgjhd....-++++
(PID.TID 0000.0001) //     14 wvskmr++++++++++++++++s-.-.-...m++++
(PID.TID 0000.0001) //     13 rpjhmu++++++++++++++++v........k++++
(PID.TID 0000.0001) //     12 qiecu+++++++++++++++++h.......-jyz+z
(PID.TID 0000.0001) //     11 nbddz+++++++++++++++++........-gy++f
(PID.TID 0000.0001) //     10 a--iz+++++++++++++++++.......aty+zkd
(PID.TID 0000.0001) //      9 -a.k++++++++++++++++++q......j+++z.k
(PID.TID 0000.0001) //      8 d.-v++++++++++++++++++x.....gvz++s.y
(PID.TID 0000.0001) //      7 e.z+++++++++++++++++++z.....-z+++wi+
(PID.TID 0000.0001) //      6 eq+++++++++++++++++++++k....e+++++++
(PID.TID 0000.0001) //      5 r++++++++++++++++++++++u....y+++++++
(PID.TID 0000.0001) //      4 x++++++++++++++++++++++xmklz++++++++
(PID.TID 0000.0001) //      3 ++++++++++++++++++++++++++++++++++++
(PID.TID 0000.0001) //      2 ++++++++++++++++++++++++++++++++++++
(PID.TID 0000.0001) //      1 ++++++++++++++++++++++++++++++++++++
(PID.TID 0000.0001) //      0 ++++++++++++++++++++++++++++++++++++
(PID.TID 0000.0001) //     -1 ++++++++++++++++++++++++++++++++++++
(PID.TID 0000.0001) // =======================================================
(PID.TID 0000.0001) // END OF FIELD                                          =
(PID.TID 0000.0001) // =======================================================
(PID.TID 0000.0001) 
(PID.TID 0000.0001) // =======================================================
(PID.TID 0000.0001) // Field hFacW at iteration          1
(PID.TID 0000.0001) // CMIN =          2.000000000000000E-01
(PID.TID 0000.0001) // CMAX =          1.000000000000000E+00
(PID.TID 0000.0001) // CINT =          2.962962962962963E-02
(PID.TID 0000.0001) // SYMBOLS (CMIN->CMAX): -abcdefghijklmnopqrstuvwxyz+
(PID.TID 0000.0001) //                  0.0: .
(PID.TID 0000.0001) // RANGE I (Lo:Hi:Step):(  -1:  34:   1)
(PID.TID 0000.0001) // RANGE J (Lo:Hi:Step):(  34:  -1:  -1)
(PID.TID 0000.0001) // RANGE K (Lo:Hi:Step):(   1:   1:   1)
(PID.TID 0000.0001) // =======================================================
(PID.TID 0000.0001) K =   1
(PID.TID 0000.0001) //                I=8       I=18      I=28
(PID.TID 0000.0001) // |--J--|*01234567|901234567|901234567|901234
(PID.TID 0000.0001) //     34 +++++++++++++++++xnh..s..v++l.......
(PID.TID 0000.0001) //     33 +++++++++++++++++x..ql...g......b...
(PID.TID 0000.0001) //     32 +++++++++++++++uhhffgkk-..j....ckl..
(PID.TID 0000.0001) //     31 +++++++++++++++r-..rvvpphhh...gglq-.
(PID.TID 0000.0001) //     30 +++++++++++++++whddzyyuuuuwzyq..-kwj
(PID.TID 0000.0001) //     29 ++++++++++++++++pl---ay++++++s---gnv
(PID.TID 0000.0001) //     28 +++++++++++++++i....lqquwvvvvd...-fn
(PID.TID 0000.0001) //     27 ++++++++++++xxw..-egmfffouusood...bf
(PID.TID 0000.0001) //     26 +++++++++++++yliikmdbbdfgqkkmnnd...-
(PID.TID 0000.0001) //     25 ++++++++++++zrpoopm....-dd--klln...a
(PID.TID 0000.0001) //     24 ++++++++++++yrmllmia..b...--imbb-..a
(PID.TID 0000.0001) //     23 +++++++++zz+zunmmmhhbbdijdaahkffg...
(PID.TID 0000.0001) //     22 +++++++++zz+zxrpoommiiimn...-de.....
(PID.TID 0000.0001) //     21 ++++++++++++ztmlloophhjii-..-b...-st
(PID.TID 0000.0001) //     20 +++++++++++++oggjnoofffijf--gi......
(PID.TID 0000.0001) //     19 +++++++++++++zpnnsssre..-b--cj....-g
(PID.TID 0000.0001) //     18 +++++++++++++++xxzz+yh--bfc-.....amu
(PID.TID 0000.0001) //     17 x++++++++++++++++++++neeikj-....-tx+
(PID.TID 0000.0001) //     16 v++++++++++++++++++++viikkh......y++
(PID.TID 0000.0001) //     15 yzxssx+++++++++++++++zpgghd.....-+++
(PID.TID 0000.0001) //     14 uvskkmr+++++++++++++++s-........m+++
(PID.TID 0000.0001) //     13 opjhhmu+++++++++++++++v.........k+++
(PID.TID 0000.0001) //     12 nieccu++++++++++++++++h........-jyzz
(PID.TID 0000.0001) //     11 nbbddz++++++++++++++++.........-gy+f
(PID.TID 0000.0001) //     10 a---iz++++++++++++++++........atyzkd
(PID.TID 0000.0001) //      9 --..k+++++++++++++++++q.......j++z..
(PID.TID 0000.0001) //      8 d..-v+++++++++++++++++x......gvz+s..
(PID.TID 0000.0001) //      7 e..z++++++++++++++++++z......-z++wii
(PID.TID 0000.0001) //      6 -eq++++++++++++++++++++k.....e++++++
(PID.TID 0000.0001) //      5 .r+++++++++++++++++++++u.....y++++++
(PID.TID 0000.0001) //      4 bx+++++++++++++++++++++xmkklz+++++++
(PID.TID 0000.0001) //      3 ++++++++++++++++++++++++++++++++++++
(PID.TID 0000.0001) //      2 ++++++++++++++++++++++++++++++++++++
(PID.TID 0000.0001) //      1 ++++++++++++++++++++++++++++++++++++
(PID.TID 0000.0001) //      0 ++++++++++++++++++++++++++++++++++++
(PID.TID 0000.0001) //     -1 ++++++++++++++++++++++++++++++++++++
(PID.TID 0000.0001) // =======================================================
(PID.TID 0000.0001) // END OF FIELD                                          =
(PID.TID 0000.0001) // =======================================================
(PID.TID 0000.0001) 
(PID.TID 0000.0001) // =======================================================
(PID.TID 0000.0001) // Field hFacS at iteration          1
(PID.TID 0000.0001) // CMIN =          2.000000000000000E-01
(PID.TID 0000.0001) // CMAX =          1.000000000000000E+00
(PID.TID 0000.0001) // CINT =          2.962962962962963E-02
(PID.TID 0000.0001) // SYMBOLS (CMIN->CMAX): -abcdefghijklmnopqrstuvwxyz+
(PID.TID 0000.0001) //                  0.0: .
(PID.TID 0000.0001) // RANGE I (Lo:Hi:Step):(  -1:  34:   1)
(PID.TID 0000.0001) // RANGE J (Lo:Hi:Step):(  34:  -1:  -1)
(PID.TID 0000.0001) // RANGE K (Lo:Hi:Step):(   1:   1:   1)
(PID.TID 0000.0001) // =======================================================
(PID.TID 0000.0001) K =   1
(PID.TID 0000.0001) //                I=8       I=18      I=28
(PID.TID 0000.0001) // |--J--|*01234567|901234567|901234567|901234
(PID.TID 0000.0001) //     34 +++++++++++++++++x.h.l..g+..........
(PID.TID 0000.0001) //     33 +++++++++++++++uhl.gqk...p.....db...
(PID.TID 0000.0001) //     32 +++++++++++++++r-.fgqkp-.ph...ckpl..
(PID.TID 0000.0001) //     31 +++++++++++++++r-.rzvypxhwh..q.-kw-.
(PID.TID 0000.0001) //     30 +++++++++++++++whd--ayu+uwz+yq.-gnvj
(PID.TID 0000.0001) //     29 +++++++++++++++i...-aqu+wvvxvd..-fnx
(PID.TID 0000.0001) //     28 ++++++++++++xzw....lnffouuvsod...bfs
(PID.TID 0000.0001) //     27 ++++++++++++xyl.-egdbdfgrqkmond...-m
(PID.TID 0000.0001) //     26 ++++++++++++zrlikom...-edh-kplnd..-m
(PID.TID 0000.0001) //     25 ++++++++++++yrmlmpi...-..f-inlbw..ak
(PID.TID 0000.0001) //     24 +++++++++z++yrmlmmha.bc..d-hkkbg-..-
(PID.TID 0000.0001) //     23 +++++++++z++zunmmmhjbdijk..-dje.t..-
(PID.TID 0000.0001) //     22 +++++++++z++ztmloommhimii..-bi..-..f
(PID.TID 0000.0001) //     21 ++++++++++++zogjnoooffiii-.-bi.....-
(PID.TID 0000.0001) //     20 +++++++++++++ogjnqoofe.-hb-cii.....-
(PID.TID 0000.0001) //     19 +++++++++++++zpnsstsre.-gb--.....-gt
(PID.TID 0000.0001) //     18 +++++++++++++++xzz++yh-bgfc-....amu+
(PID.TID 0000.0001) //     17 +++++++++++++++++++++neilkh.....tx++
(PID.TID 0000.0001) //     16 +zxsx++++++++++++++++vigjhd.....y+++
(PID.TID 0000.0001) //     15 wvskmr+++++++++++++++zp-.-.....-++++
(PID.TID 0000.0001) //     14 rpjhmr++++++++++++++++s........k++++
(PID.TID 0000.0001) //     13 qiecmu++++++++++++++++h........jyz+z
(PID.TID 0000.0001) //     12 nbdcu+++++++++++++++++........-gyz+f
(PID.TID 0000.0001) //     11 a--dz+++++++++++++++++........-gyzkd
(PID.TID 0000.0001) //     10 --.iz+++++++++++++++++.......aty+z.d
(PID.TID 0000.0001) //      9 -..k++++++++++++++++++q......jz++s.k
(PID.TID 0000.0001) //      8 d.-v++++++++++++++++++x.....-vz++s.y
(PID.TID 0000.0001) //      7 e.z+++++++++++++++++++z.....-z+++wi+
(PID.TID 0000.0001) //      6 eq+++++++++++++++++++++k....e+++++++
(PID.TID 0000.0001) //      5 r++++++++++++++++++++++u....y+++++++
(PID.TID 0000.0001) //      4 x++++++++++++++++++++++xmklz++++++++
(PID.TID 0000.0001) //      3 ++++++++++++++++++++++++++++++++++++
(PID.TID 0000.0001) //      2 ++++++++++++++++++++++++++++++++++++
(PID.TID 0000.0001) //      1 ++++++++++++++++++++++++++++++++++++
(PID.TID 0000.0001) //      0 ++++++++++++++++++++++++++++++++++++
(PID.TID 0000.0001) //     -1 ++++++++++++++++++++++++++++++++++++
(PID.TID 0000.0001) // =======================================================
(PID.TID 0000.0001) // END OF FIELD                                          =
(PID.TID 0000.0001) // =======================================================
(PID.TID 0000.0001) 
(PID.TID 0000.0001) 
(PID.TID 0000.0001) // ===================================
(PID.TID 0000.0001) // GAD parameters :
(PID.TID 0000.0001) // ===================================
(PID.TID 0000.0001) tempAdvScheme =   /* Temp. Horiz.Advection scheme selector */
(PID.TID 0000.0001)                       2
(PID.TID 0000.0001)     ;
(PID.TID 0000.0001) tempVertAdvScheme =   /* Temp. Vert. Advection scheme selector */
(PID.TID 0000.0001)                       2
(PID.TID 0000.0001)     ;
(PID.TID 0000.0001) tempMultiDimAdvec =   /* use Muti-Dim Advec method for Temp */
(PID.TID 0000.0001)                   F
(PID.TID 0000.0001)     ;
(PID.TID 0000.0001) tempAdamsBashforth =   /* use Adams-Bashforth time-stepping for Temp */
(PID.TID 0000.0001)                   T
(PID.TID 0000.0001)     ;
(PID.TID 0000.0001) saltAdvScheme =   /* Salt. Horiz.advection scheme selector */
(PID.TID 0000.0001)                       3
(PID.TID 0000.0001)     ;
(PID.TID 0000.0001) saltVertAdvScheme =   /* Salt. Vert. Advection scheme selector */
(PID.TID 0000.0001)                       3
(PID.TID 0000.0001)     ;
(PID.TID 0000.0001) saltMultiDimAdvec =   /* use Muti-Dim Advec method for Salt */
(PID.TID 0000.0001)                   F
(PID.TID 0000.0001)     ;
(PID.TID 0000.0001) saltAdamsBashforth =   /* use Adams-Bashforth time-stepping for Salt */
(PID.TID 0000.0001)                   T
(PID.TID 0000.0001)     ;
(PID.TID 0000.0001) // ===================================
 No of Total Tiles for bi=           1:         2562
 No of Land  Tiles for bi=           1:         1977
(PID.TID 0000.0001)  MDSREADFIELD: opening global file: topvar19232.data
(PID.TID 0000.0001) ------------------------------------------------------------
(PID.TID 0000.0001) DIAGNOSTICS_SET_LEVELS: done
(PID.TID 0000.0001)  Total Nb of available Diagnostics: ndiagt= 313
(PID.TID 0000.0001)  write list of available Diagnostics to file: available_diagnostics.log
(PID.TID 0000.0001) SETDIAG: Allocate  1 Levels for Diagnostic # 229 TCANOPY
(PID.TID 0000.0001) SETDIAG: Allocate  1 Levels for Diagnostic # 137 OLR
(PID.TID 0000.0001) SETDIAG: Allocate  1 Levels for Diagnostic #  81 RSURF
(PID.TID 0000.0001) SETDIAG: Allocate 20 Levels for Diagnostic # 100 DPPHYS
(PID.TID 0000.0001) SETDIAG: Allocate 20 Levels for Diagnostic # 312 FIZPRES
(PID.TID 0000.0001) SETDIAG: Allocate 10 Levels for Diagnostic #  31 UVEL
(PID.TID 0000.0001) SETDIAG: Allocate 10 Levels for Diagnostic #  80 PRESSURE
(PID.TID 0000.0001)   space allocated for all diagnostics:    63 levels
(PID.TID 0000.0001) DIAGNOSTICS_SET_POINTERS: done
(PID.TID 0000.0001) ------------------------------------------------------------
(PID.TID 0000.0001)   space allocated for all stats-diags:     0 levels
(PID.TID 0000.0001) DIAGSTATS_SET_POINTERS: done
(PID.TID 0000.0001) ------------------------------------------------------------
INI_P_GROUND: PhiRef/g [m] at Center (integer) and Interface (half-int.) levels:
  K=  0.5  ;  r=  100000.0  ;  phiRef/g=       0.000
  K=  1.0  ;  r=   95000.0  ;  phiRef/g=     430.007
  K=  1.5  ;  r=   90000.0  ;  phiRef/g=     885.542
  K=  2.0  ;  r=   85000.0  ;  phiRef/g=    1347.229
  K=  2.5  ;  r=   80000.0  ;  phiRef/g=    1849.522
  K=  3.0  ;  r=   75000.0  ;  phiRef/g=    2361.083
  K=  3.5  ;  r=   70000.0  ;  phiRef/g=    2923.976
  K=  4.0  ;  r=   65000.0  ;  phiRef/g=    3497.632
  K=  4.5  ;  r=   60000.0  ;  phiRef/g=    4138.303
  K=  5.0  ;  r=   55000.0  ;  phiRef/g=    4791.627
  K=  5.5  ;  r=   50000.0  ;  phiRef/g=    5536.290
  K=  6.0  ;  r=   45000.0  ;  phiRef/g=    6296.336
  K=  6.5  ;  r=   40000.0  ;  phiRef/g=    7188.747
  K=  7.0  ;  r=   35000.0  ;  phiRef/g=    8100.914
  K=  7.5  ;  r=   30000.0  ;  phiRef/g=    9224.000
  K=  8.0  ;  r=   25000.0  ;  phiRef/g=   10379.402
  K=  8.5  ;  r=   20000.0  ;  phiRef/g=   11934.316
  K=  9.0  ;  r=   15000.0  ;  phiRef/g=   13599.595
  K=  9.5  ;  r=   10000.0  ;  phiRef/g=   16454.567
  K= 10.0  ;  r=    5000.0  ;  phiRef/g=   19961.348
  K= 10.5  ;  r=       0.0  ;  phiRef/g=   38981.791
(PID.TID 0000.0001) %MON fCori_max                    =   1.4535016908525E-04
(PID.TID 0000.0001) %MON fCori_min                    =  -1.4535016908525E-04
(PID.TID 0000.0001) %MON fCori_mean                   =   0.0000000000000E+00
(PID.TID 0000.0001) %MON fCori_sd                     =   8.3972192788621E-05
(PID.TID 0000.0001) %MON fCoriG_max                   =   1.4544410433286E-04
(PID.TID 0000.0001) %MON fCoriG_min                   =  -1.4544410433286E-04
(PID.TID 0000.0001) %MON fCoriG_mean                  =   0.0000000000000E+00
(PID.TID 0000.0001) %MON fCoriG_sd                    =   8.4860812167727E-05
(PID.TID 0000.0001) %MON fCoriCos_max                 =   1.4540341538469E-04
(PID.TID 0000.0001) %MON fCoriCos_min                 =   5.2264550201501E-06
(PID.TID 0000.0001) %MON fCoriCos_mean                =   1.1482595466044E-04
(PID.TID 0000.0001) %MON fCoriCos_sd                  =   3.0292878037194E-05
(PID.TID 0000.0001) INI_CG2D: CG2D normalisation factor =  9.9119603843467488E-06
(PID.TID 0000.0001) INI_CG2D: cg2dTolerance = 1.684717284536653E-10 (Area=5.0990436378E+14)
(PID.TID 0000.0001) 
(PID.TID 0000.0001) CONFIG_CHECK: OK
(PID.TID 0000.0001) // =======================================================
(PID.TID 0000.0001) // Model configuration
(PID.TID 0000.0001) // =======================================================
(PID.TID 0000.0001) //
(PID.TID 0000.0001) // "Physical" paramters ( PARM01 in namelist )
(PID.TID 0000.0001) //
(PID.TID 0000.0001) buoyancyRelation = ATMOSPHERIC
(PID.TID 0000.0001) fluidIsAir  =  /* fluid major constituent is Air */
(PID.TID 0000.0001)                   T
(PID.TID 0000.0001)     ;
(PID.TID 0000.0001) fluidIsWater=  /* fuild major constituent is Water */
(PID.TID 0000.0001)                   F
(PID.TID 0000.0001)     ;
(PID.TID 0000.0001) usingPCoords =  /* use p (or p*) vertical coordinate */
(PID.TID 0000.0001)                   T
(PID.TID 0000.0001)     ;
(PID.TID 0000.0001) usingZCoords =  /* use z (or z*) vertical coordinate */
(PID.TID 0000.0001)                   F
(PID.TID 0000.0001)     ;
(PID.TID 0000.0001) tRef =   /* Reference temperature profile ( oC or oK ) */
(PID.TID 0000.0001)                 2.888000000000000E+02,      /* K =  1 */
(PID.TID 0000.0001)                 2.927000000000000E+02,      /* K =  2 */
(PID.TID 0000.0001)                 2.981000000000000E+02,      /* K =  3 */
(PID.TID 0000.0001)                 3.038000000000000E+02,      /* K =  4 */
(PID.TID 0000.0001)                 3.098000000000000E+02,      /* K =  5 */
(PID.TID 0000.0001)                 3.162000000000000E+02,      /* K =  6 */
(PID.TID 0000.0001)                 3.232000000000000E+02,      /* K =  7 */
(PID.TID 0000.0001)                 3.325000000000000E+02,      /* K =  8 */
(PID.TID 0000.0001)                 3.561000000000000E+02,      /* K =  9 */
(PID.TID 0000.0001)                 4.374000000000000E+02       /* K = 10 */
(PID.TID 0000.0001)     ;
(PID.TID 0000.0001) sRef =   /* Reference salinity profile ( ppt ) */
(PID.TID 0000.0001)                 1.000000000000000E-03,      /* K =  1 */
(PID.TID 0000.0001)                 5.000000000000000E-04,      /* K =  2 */
(PID.TID 0000.0001)                 1.000000000000000E-04,      /* K =  3 */
(PID.TID 0000.0001)     5 @  1.000000000000000E-06,             /* K =  4:  8 */
(PID.TID 0000.0001)                 1.000000000000000E-08,      /* K =  9 */
(PID.TID 0000.0001)                 1.000000000000000E-09       /* K = 10 */
(PID.TID 0000.0001)     ;
(PID.TID 0000.0001) viscAh =   /* Lateral eddy viscosity ( m^2/s ) */
(PID.TID 0000.0001)                 0.000000000000000E+00
(PID.TID 0000.0001)     ;
(PID.TID 0000.0001) viscAhMax =   /* Maximum lateral eddy viscosity ( m^2/s ) */
(PID.TID 0000.0001)                 1.000000000000000E+21
(PID.TID 0000.0001)     ;
(PID.TID 0000.0001) viscAhGrid =   /* Grid dependent lateral eddy viscosity ( non-dim. ) */
(PID.TID 0000.0001)                 0.000000000000000E+00
(PID.TID 0000.0001)     ;
(PID.TID 0000.0001) useFullLeith =   /* Use Full Form of Leith Viscosity on/off flag*/
(PID.TID 0000.0001)                   F
(PID.TID 0000.0001)     ;
(PID.TID 0000.0001) viscC2leith = /* Leith harmonic viscosity factor (on grad(vort),non-dim.) */
(PID.TID 0000.0001)                 0.000000000000000E+00
(PID.TID 0000.0001)     ;
(PID.TID 0000.0001) viscC2leithD = /* Leith harmonic viscosity factor (on grad(div),non-dim.) */
(PID.TID 0000.0001)                 0.000000000000000E+00
(PID.TID 0000.0001)     ;
(PID.TID 0000.0001) viscC2smag =   /* Smagorinsky harmonic viscosity factor (non-dim.) */
(PID.TID 0000.0001)                 0.000000000000000E+00
(PID.TID 0000.0001)     ;
(PID.TID 0000.0001) viscA4 =   /* Lateral biharmonic viscosity ( m^4/s ) */
(PID.TID 0000.0001)                 0.000000000000000E+00
(PID.TID 0000.0001)     ;
(PID.TID 0000.0001) viscA4Max =   /* Maximum biharmonic viscosity ( m^2/s ) */
(PID.TID 0000.0001)                 1.000000000000000E+21
(PID.TID 0000.0001)     ;
(PID.TID 0000.0001) viscA4Grid =   /* Grid dependent biharmonic viscosity ( non-dim. ) */
(PID.TID 0000.0001)                 0.000000000000000E+00
(PID.TID 0000.0001)     ;
(PID.TID 0000.0001) viscC4leith = /* Leith biharm viscosity factor (on grad(vort), non-dim.) */
(PID.TID 0000.0001)                 0.000000000000000E+00
(PID.TID 0000.0001)     ;
(PID.TID 0000.0001) viscC4leithD = /* Leith biharm viscosity factor (on grad(div), non-dim.) */
(PID.TID 0000.0001)                 0.000000000000000E+00
(PID.TID 0000.0001)     ;
(PID.TID 0000.0001) no_slip_sides =  /* Viscous BCs: No-slip sides */
(PID.TID 0000.0001)                   F
(PID.TID 0000.0001)     ;
(PID.TID 0000.0001) viscAr =   /* Vertical eddy viscosity ( units of r^2/s ) */
(PID.TID 0000.0001)                 0.000000000000000E+00
(PID.TID 0000.0001)     ;
(PID.TID 0000.0001) no_slip_bottom =  /* Viscous BCs: No-slip bottom */
(PID.TID 0000.0001)                   F
(PID.TID 0000.0001)     ;
(PID.TID 0000.0001) diffKhT =   /* Laplacian diffusion of heat laterally ( m^2/s ) */
(PID.TID 0000.0001)                 0.000000000000000E+00
(PID.TID 0000.0001)     ;
(PID.TID 0000.0001) diffK4T =   /* Bihaarmonic diffusion of heat laterally ( m^4/s ) */
(PID.TID 0000.0001)                 0.000000000000000E+00
(PID.TID 0000.0001)     ;
(PID.TID 0000.0001) diffKhS =   /* Laplacian diffusion of salt laterally ( m^2/s ) */
(PID.TID 0000.0001)                 0.000000000000000E+00
(PID.TID 0000.0001)     ;
(PID.TID 0000.0001) diffK4S =   /* Bihaarmonic diffusion of salt laterally ( m^4/s ) */
(PID.TID 0000.0001)                 0.000000000000000E+00
(PID.TID 0000.0001)     ;
(PID.TID 0000.0001) diffKrNrT = /* vertical profile of vertical diffusion of Temp ( m^2/s )*/
(PID.TID 0000.0001)    10 @  0.000000000000000E+00              /* K =  1: 10 */
(PID.TID 0000.0001)     ;
(PID.TID 0000.0001) diffKrNrS = /* vertical profile of vertical diffusion of Salt ( m^2/s )*/
(PID.TID 0000.0001)    10 @  0.000000000000000E+00              /* K =  1: 10 */
(PID.TID 0000.0001)     ;
(PID.TID 0000.0001) diffKrBL79surf =   /* Surface diffusion for Bryan and Lewis 1979 ( m^2/s ) */
(PID.TID 0000.0001)                 0.000000000000000E+00
(PID.TID 0000.0001)     ;
(PID.TID 0000.0001) diffKrBL79deep =   /* Deep diffusion for Bryan and Lewis 1979 ( m^2/s ) */
(PID.TID 0000.0001)                 0.000000000000000E+00
(PID.TID 0000.0001)     ;
(PID.TID 0000.0001) diffKrBL79scl =   /* Depth scale for Bryan and Lewis 1979 ( m ) */
(PID.TID 0000.0001)                 2.000000000000000E+02
(PID.TID 0000.0001)     ;
(PID.TID 0000.0001) diffKrBL79Ho =   /* Turning depth for Bryan and Lewis 1979 ( m ) */
(PID.TID 0000.0001)                -2.000000000000000E+03
(PID.TID 0000.0001)     ;
(PID.TID 0000.0001)  Equation of State : eosType = IDEALG
(PID.TID 0000.0001) tAlpha =   /* Linear EOS thermal expansion coefficient ( 1/degree ) */
(PID.TID 0000.0001)                 1.234567000000000E+05
(PID.TID 0000.0001)     ;
(PID.TID 0000.0001) sBeta =   /* Linear EOS haline contraction coefficient ( 1/ppt ) */
(PID.TID 0000.0001)                 1.234567000000000E+05
(PID.TID 0000.0001)     ;
(PID.TID 0000.0001) atm_Rd =  /* gas constant for dry air ( J/kg/K ) */
(PID.TID 0000.0001)                 2.868571428571428E+02
(PID.TID 0000.0001)     ;
(PID.TID 0000.0001) atm_Cp =  /* specific heat (Cp) of dry air ( J/kg/K ) */
(PID.TID 0000.0001)                 1.004000000000000E+03
(PID.TID 0000.0001)     ;
(PID.TID 0000.0001) atm_kappa =  /* kappa (=Rd/Cp ) of dry air */
(PID.TID 0000.0001)                 2.857142857142857E-01
(PID.TID 0000.0001)     ;
(PID.TID 0000.0001) atm_Rq = /* water vap. specific vol. anomaly relative to dry air */
(PID.TID 0000.0001)                 0.000000000000000E+00
(PID.TID 0000.0001)     ;
(PID.TID 0000.0001) atm_Po =  /* standard reference pressure ( Pa ) */
(PID.TID 0000.0001)                 1.000000000000000E+05
(PID.TID 0000.0001)     ;
(PID.TID 0000.0001) integr_GeoPot =  /* select how the geopotential is integrated */
(PID.TID 0000.0001)                       2
(PID.TID 0000.0001)     ;
(PID.TID 0000.0001) selectFindRoSurf=  /* select how Surf.Ref. pressure is defined */
(PID.TID 0000.0001)                       0
(PID.TID 0000.0001)     ;
(PID.TID 0000.0001) rhonil =   /* Reference density ( kg/m^3 ) */
(PID.TID 0000.0001)                 1.000000000000000E+00
(PID.TID 0000.0001)     ;
(PID.TID 0000.0001) rhoConst =   /* Reference density ( kg/m^3 ) */
(PID.TID 0000.0001)                 1.000000000000000E+00
(PID.TID 0000.0001)     ;
(PID.TID 0000.0001) rhoConstFresh =   /* Reference density ( kg/m^3 ) */
(PID.TID 0000.0001)                 1.000000000000000E+00
(PID.TID 0000.0001)     ;
(PID.TID 0000.0001) gravity =   /* Gravitational acceleration ( m/s^2 ) */
(PID.TID 0000.0001)                 9.810000000000001E+00
(PID.TID 0000.0001)     ;
(PID.TID 0000.0001) gBaro =   /* Barotropic gravity ( m/s^2 ) */
(PID.TID 0000.0001)                 9.810000000000001E+00
(PID.TID 0000.0001)     ;
(PID.TID 0000.0001) rotationPeriod =   /* Rotation Period ( s ) */
(PID.TID 0000.0001)                 8.640000000000000E+04
(PID.TID 0000.0001)     ;
(PID.TID 0000.0001) omega =   /* Angular velocity ( rad/s ) */
(PID.TID 0000.0001)                 7.272205216643039E-05
(PID.TID 0000.0001)     ;
(PID.TID 0000.0001) f0 =   /* Reference coriolis parameter ( 1/s ) */
(PID.TID 0000.0001)                 1.000000000000000E-04
(PID.TID 0000.0001)     ;
(PID.TID 0000.0001) beta =   /* Beta ( 1/(m.s) ) */
(PID.TID 0000.0001)                 9.999999999999998E-12
(PID.TID 0000.0001)     ;
(PID.TID 0000.0001) freeSurfFac =   /* Implicit free surface factor */
(PID.TID 0000.0001)                 1.000000000000000E+00
(PID.TID 0000.0001)     ;
(PID.TID 0000.0001) implicitFreeSurface =   /* Implicit free surface on/off flag */
(PID.TID 0000.0001)                   T
(PID.TID 0000.0001)     ;
(PID.TID 0000.0001) rigidLid =   /* Rigid lid on/off flag */
(PID.TID 0000.0001)                   F
(PID.TID 0000.0001)     ;
(PID.TID 0000.0001) implicSurfPress =   /* Surface Pressure implicit factor (0-1)*/
(PID.TID 0000.0001)                 1.000000000000000E+00
(PID.TID 0000.0001)     ;
(PID.TID 0000.0001) implicDiv2Dflow =   /* Barot. Flow Div. implicit factor (0-1)*/
(PID.TID 0000.0001)                 1.000000000000000E+00
(PID.TID 0000.0001)     ;
(PID.TID 0000.0001) exactConserv =   /* Exact Volume Conservation on/off flag*/
(PID.TID 0000.0001)                   T
(PID.TID 0000.0001)     ;
(PID.TID 0000.0001) uniformLin_PhiSurf =   /* use uniform Bo_surf on/off flag*/
(PID.TID 0000.0001)                   F
(PID.TID 0000.0001)     ;
(PID.TID 0000.0001) nonlinFreeSurf =   /* Non-linear Free Surf. options (-1,0,1,2,3)*/
(PID.TID 0000.0001)                       4
(PID.TID 0000.0001)     ;
(PID.TID 0000.0001)      -1,0= Off ; 1,2,3= On, 2=+rescale gU,gV, 3=+update cg2d solv.
(PID.TID 0000.0001) hFacInf =   /* lower threshold for hFac (nonlinFreeSurf only)*/
(PID.TID 0000.0001)                 2.000000000000000E-01
(PID.TID 0000.0001)     ;
(PID.TID 0000.0001) hFacSup =   /* upper threshold for hFac (nonlinFreeSurf only)*/
(PID.TID 0000.0001)                 2.000000000000000E+00
(PID.TID 0000.0001)     ;
(PID.TID 0000.0001) select_rStar =   /* r* Coordinate options (not yet implemented)*/
(PID.TID 0000.0001)                       2
(PID.TID 0000.0001)     ;
(PID.TID 0000.0001) useRealFreshWaterFlux =   /* Real Fresh Water Flux on/off flag*/
(PID.TID 0000.0001)                   F
(PID.TID 0000.0001)     ;
(PID.TID 0000.0001) convertFW2Salt = /* convert F.W. Flux to Salt Flux (-1=use local S)(ppt)*/
(PID.TID 0000.0001)                 3.500000000000000E+01
(PID.TID 0000.0001)     ;
(PID.TID 0000.0001) nonHydrostatic =  /* Non-Hydrostatic on/off flag */
(PID.TID 0000.0001)                   F
(PID.TID 0000.0001)     ;
(PID.TID 0000.0001) momStepping =  /* Momentum equation on/off flag */
(PID.TID 0000.0001)                   T
(PID.TID 0000.0001)     ;
(PID.TID 0000.0001) momAdvection =  /* Momentum advection on/off flag */
(PID.TID 0000.0001)                   T
(PID.TID 0000.0001)     ;
(PID.TID 0000.0001) momViscosity =  /* Momentum viscosity on/off flag */
(PID.TID 0000.0001)                   T
(PID.TID 0000.0001)     ;
(PID.TID 0000.0001) momImplVertAdv =/* Momentum implicit vert. advection on/off*/
(PID.TID 0000.0001)                   F
(PID.TID 0000.0001)     ;
(PID.TID 0000.0001) implicitViscosity = /* Implicit viscosity on/off flag */
(PID.TID 0000.0001)                   F
(PID.TID 0000.0001)     ;
(PID.TID 0000.0001) useCoriolis =  /* Coriolis on/off flag */
(PID.TID 0000.0001)                   T
(PID.TID 0000.0001)     ;
(PID.TID 0000.0001) useCDscheme =  /* CD scheme on/off flag */
(PID.TID 0000.0001)                   F
(PID.TID 0000.0001)     ;
(PID.TID 0000.0001) useJamartWetPoints= /* Coriolis WetPoints method flag */
(PID.TID 0000.0001)                   F
(PID.TID 0000.0001)     ;
(PID.TID 0000.0001) useJamartMomAdv= /* V.I. Non-linear terms Jamart flag */
(PID.TID 0000.0001)                   F
(PID.TID 0000.0001)     ;
(PID.TID 0000.0001) SadournyCoriolis= /* Sadourny Coriolis discr. flag */
(PID.TID 0000.0001)                   F
(PID.TID 0000.0001)     ;
(PID.TID 0000.0001) upwindVorticity= /* Upwind bias vorticity flag */
(PID.TID 0000.0001)                   F
(PID.TID 0000.0001)     ;
(PID.TID 0000.0001) useAbsVorticity= /* Work with f+zeta in Coriolis */
(PID.TID 0000.0001)                   F
(PID.TID 0000.0001)     ;
(PID.TID 0000.0001) highOrderVorticity= /* High order interp. of vort. flag */
(PID.TID 0000.0001)                   F
(PID.TID 0000.0001)     ;
(PID.TID 0000.0001) upwindShear= /* Upwind vertical Shear advection flag */
(PID.TID 0000.0001)                   F
(PID.TID 0000.0001)     ;
(PID.TID 0000.0001) momForcing =  /* Momentum forcing on/off flag */
(PID.TID 0000.0001)                   T
(PID.TID 0000.0001)     ;
(PID.TID 0000.0001) momPressureForcing =  /* Momentum pressure term on/off flag */
(PID.TID 0000.0001)                   T
(PID.TID 0000.0001)     ;
(PID.TID 0000.0001) staggerTimeStep =   /* Stagger time stepping on/off flag */
(PID.TID 0000.0001)                   T
(PID.TID 0000.0001)     ;
(PID.TID 0000.0001) multiDimAdvection =   /* enable/disable Multi-Dim Advection */
(PID.TID 0000.0001)                   T
(PID.TID 0000.0001)     ;
(PID.TID 0000.0001) useMultiDimAdvec =   /* Multi-Dim Advection is/is-not used */
(PID.TID 0000.0001)                   F
(PID.TID 0000.0001)     ;
(PID.TID 0000.0001) implicitDiffusion =/* Implicit Diffusion on/off flag */
(PID.TID 0000.0001)                   F
(PID.TID 0000.0001)     ;
(PID.TID 0000.0001) tempStepping =  /* Temperature equation on/off flag */
(PID.TID 0000.0001)                   T
(PID.TID 0000.0001)     ;
(PID.TID 0000.0001) tempAdvection=  /* Temperature advection on/off flag */
(PID.TID 0000.0001)                   T
(PID.TID 0000.0001)     ;
(PID.TID 0000.0001) tempImplVertAdv =/* Temp. implicit vert. advection on/off */
(PID.TID 0000.0001)                   F
(PID.TID 0000.0001)     ;
(PID.TID 0000.0001) tempForcing  =  /* Temperature forcing on/off flag */
(PID.TID 0000.0001)                   T
(PID.TID 0000.0001)     ;
(PID.TID 0000.0001) saltStepping =  /* Salinity equation on/off flag */
(PID.TID 0000.0001)                   T
(PID.TID 0000.0001)     ;
(PID.TID 0000.0001) saltAdvection=  /* Salinity advection on/off flag */
(PID.TID 0000.0001)                   T
(PID.TID 0000.0001)     ;
(PID.TID 0000.0001) saltImplVertAdv =/* Sali. implicit vert. advection on/off */
(PID.TID 0000.0001)                   F
(PID.TID 0000.0001)     ;
(PID.TID 0000.0001) saltForcing  =  /* Salinity forcing on/off flag */
(PID.TID 0000.0001)                   T
(PID.TID 0000.0001)     ;
(PID.TID 0000.0001)  debugMode  =  /* Debug Mode on/off flag */
(PID.TID 0000.0001)                   F
(PID.TID 0000.0001)     ;
(PID.TID 0000.0001)    debLevA  =  /* 1rst level of debugging */
(PID.TID 0000.0001)                       1
(PID.TID 0000.0001)     ;
(PID.TID 0000.0001)    debLevB  =  /* 2nd  level of debugging */
(PID.TID 0000.0001)                       2
(PID.TID 0000.0001)     ;
(PID.TID 0000.0001)  debugLevel =  /* select debugging level */
(PID.TID 0000.0001)                       1
(PID.TID 0000.0001)     ;
(PID.TID 0000.0001) //
(PID.TID 0000.0001) // Elliptic solver(s) paramters ( PARM02 in namelist )
(PID.TID 0000.0001) //
(PID.TID 0000.0001) cg2dMaxIters =   /* Upper limit on 2d con. grad iterations  */
(PID.TID 0000.0001)                     200
(PID.TID 0000.0001)     ;
(PID.TID 0000.0001) cg2dChkResFreq =   /* 2d con. grad convergence test frequency */
(PID.TID 0000.0001)                       1
(PID.TID 0000.0001)     ;
(PID.TID 0000.0001) cg2dTargetResidual =   /* 2d con. grad target residual  */
(PID.TID 0000.0001)                 1.000000000000000E-07
(PID.TID 0000.0001)     ;
(PID.TID 0000.0001) cg2dTargetResWunit =   /* CG2d target residual [W units] */
(PID.TID 0000.0001)                 1.000000000000001E-17
(PID.TID 0000.0001)     ;
(PID.TID 0000.0001) cg2dPreCondFreq =   /* Freq. for updating cg2d preconditioner */
(PID.TID 0000.0001)                       1
(PID.TID 0000.0001)     ;
(PID.TID 0000.0001) //
(PID.TID 0000.0001) // Time stepping paramters ( PARM03 in namelist )
(PID.TID 0000.0001) //
(PID.TID 0000.0001) nIter0 =   /* Run starting timestep number  */
(PID.TID 0000.0001)                       0
(PID.TID 0000.0001)     ;
(PID.TID 0000.0001) nTimeSteps =   /* Number of timesteps */
(PID.TID 0000.0001)                       6
(PID.TID 0000.0001)     ;
(PID.TID 0000.0001) deltatTmom =   /* Momentum equation timestep ( s ) */
(PID.TID 0000.0001)                 3.000000000000000E+02
(PID.TID 0000.0001)     ;
(PID.TID 0000.0001) deltaTfreesurf =   /* FreeSurface equation timestep ( s ) */
(PID.TID 0000.0001)                 3.000000000000000E+02
(PID.TID 0000.0001)     ;
(PID.TID 0000.0001) dTtracerLev =   /* Tracer equation timestep ( s ) */
(PID.TID 0000.0001)    10 @  3.000000000000000E+02              /* K =  1: 10 */
(PID.TID 0000.0001)     ;
(PID.TID 0000.0001) deltatTClock  =   /* Model clock timestep ( s ) */
(PID.TID 0000.0001)                 3.000000000000000E+02
(PID.TID 0000.0001)     ;
(PID.TID 0000.0001) cAdjFreq =   /* Convective adjustment interval ( s ) */
(PID.TID 0000.0001)                 0.000000000000000E+00
(PID.TID 0000.0001)     ;
(PID.TID 0000.0001) forcing_In_AB =   /* put T,S Forcing in Adams-Bash. stepping */
(PID.TID 0000.0001)                   F
(PID.TID 0000.0001)     ;
(PID.TID 0000.0001) abEps =   /* Adams-Bashforth-2 stabilizing weight */
(PID.TID 0000.0001)                 1.000000000000000E-01
(PID.TID 0000.0001)     ;
(PID.TID 0000.0001) baseTime =   /* Model base time ( s ). */
(PID.TID 0000.0001)                 0.000000000000000E+00
(PID.TID 0000.0001)     ;
(PID.TID 0000.0001) startTime =   /* Run start time ( s ). */
(PID.TID 0000.0001)                 0.000000000000000E+00
(PID.TID 0000.0001)     ;
(PID.TID 0000.0001) endTime =   /* Integration ending time ( s ). */
(PID.TID 0000.0001)                 1.800000000000000E+03
(PID.TID 0000.0001)     ;
(PID.TID 0000.0001) pChkPtFreq =   /* Permanent restart/checkpoint file interval ( s ). */
(PID.TID 0000.0001)                 2.678400000000000E+06
(PID.TID 0000.0001)     ;
(PID.TID 0000.0001) chkPtFreq =   /* Rolling restart/checkpoint file interval ( s ). */
(PID.TID 0000.0001)                 2.678400000000000E+06
(PID.TID 0000.0001)     ;
(PID.TID 0000.0001) pickup_write_mdsio =   /* Model IO flag. */
(PID.TID 0000.0001)                   T
(PID.TID 0000.0001)     ;
(PID.TID 0000.0001) pickup_read_mdsio =   /* Model IO flag. */
(PID.TID 0000.0001)                   T
(PID.TID 0000.0001)     ;
(PID.TID 0000.0001) pickup_write_immed =   /* Model IO flag. */
(PID.TID 0000.0001)                   F
(PID.TID 0000.0001)     ;
(PID.TID 0000.0001) dumpFreq =   /* Model state write out interval ( s ). */
(PID.TID 0000.0001)                 1.000000000000000E+00
(PID.TID 0000.0001)     ;
(PID.TID 0000.0001) snapshot_mdsio =   /* Model IO flag. */
(PID.TID 0000.0001)                   T
(PID.TID 0000.0001)     ;
(PID.TID 0000.0001) monitorFreq =   /* Monitor output interval ( s ). */
(PID.TID 0000.0001)                 1.000000000000000E+00
(PID.TID 0000.0001)     ;
(PID.TID 0000.0001) monitor_stdio =   /* Model IO flag. */
(PID.TID 0000.0001)                   T
(PID.TID 0000.0001)     ;
(PID.TID 0000.0001) externForcingPeriod =   /* forcing period (s) */
(PID.TID 0000.0001)                 0.000000000000000E+00
(PID.TID 0000.0001)     ;
(PID.TID 0000.0001) externForcingCycle =   /* period of the cyle (s). */
(PID.TID 0000.0001)                 0.000000000000000E+00
(PID.TID 0000.0001)     ;
(PID.TID 0000.0001) tauThetaClimRelax =   /* relaxation time scale (s) */
(PID.TID 0000.0001)                 0.000000000000000E+00
(PID.TID 0000.0001)     ;
(PID.TID 0000.0001) tauSaltClimRelax =   /* relaxation time scale (s) */
(PID.TID 0000.0001)                 0.000000000000000E+00
(PID.TID 0000.0001)     ;
(PID.TID 0000.0001) latBandClimRelax =   /* max. Lat. where relaxation */
(PID.TID 0000.0001)                 1.800000000000000E+02
(PID.TID 0000.0001)     ;
(PID.TID 0000.0001) //
(PID.TID 0000.0001) // Gridding paramters ( PARM04 in namelist )
(PID.TID 0000.0001) //
(PID.TID 0000.0001) usingCartesianGrid =   /* Cartesian coordinates flag ( True / False ) */
(PID.TID 0000.0001)                   F
(PID.TID 0000.0001)     ;
(PID.TID 0000.0001) usingSphericalPolarGrid =   /* Spherical coordinates flag ( True / False ) */
(PID.TID 0000.0001)                   F
(PID.TID 0000.0001)     ;
(PID.TID 0000.0001) usingCylindricalGrid =   /* Spherical coordinates flag ( True / False ) */
(PID.TID 0000.0001)                   F
(PID.TID 0000.0001)     ;
(PID.TID 0000.0001) Ro_SeaLevel =   /* r(1) ( units of r ) */
(PID.TID 0000.0001)                 1.000000000000000E+05
(PID.TID 0000.0001)     ;
(PID.TID 0000.0001) rkSign =   /* index orientation relative to vertical coordinate */
(PID.TID 0000.0001)                -1.000000000000000E+00
(PID.TID 0000.0001)     ;
(PID.TID 0000.0001) horiVertRatio =   /* Ratio on units : Horiz - Vertical */
(PID.TID 0000.0001)                 9.810000000000001E+00
(PID.TID 0000.0001)     ;
(PID.TID 0000.0001) drC =   /* C spacing ( units of r ) */
(PID.TID 0000.0001)                 5.000000000000000E+03,      /* K =  1 */
(PID.TID 0000.0001)     9 @  1.000000000000000E+04              /* K =  2: 10 */
(PID.TID 0000.0001)     ;
(PID.TID 0000.0001) drF =   /* W spacing ( units of r ) */
(PID.TID 0000.0001)    10 @  1.000000000000000E+04              /* K =  1: 10 */
(PID.TID 0000.0001)     ;
(PID.TID 0000.0001) delX =   /* U spacing ( m - cartesian, degrees - spherical ) */
(PID.TID 0000.0001)   192 @  1.234567000000000E+05              /* I =  1:192 */
(PID.TID 0000.0001)     ;
(PID.TID 0000.0001) delY =   /* V spacing ( m - cartesian, degrees - spherical ) */
(PID.TID 0000.0001)    32 @  1.234567000000000E+05              /* J =  1: 32 */
(PID.TID 0000.0001)     ;
(PID.TID 0000.0001) phiMin =    /* South edge (ignored - cartesian, degrees - spherical ) */
(PID.TID 0000.0001)                 0.000000000000000E+00
(PID.TID 0000.0001)     ;
(PID.TID 0000.0001) thetaMin =    /* West edge ( ignored - cartesian, degrees - spherical ) */
(PID.TID 0000.0001)                 0.000000000000000E+00
(PID.TID 0000.0001)     ;
(PID.TID 0000.0001) rSphere =    /* Radius ( ignored - cartesian, m - spherical ) */
(PID.TID 0000.0001)                 6.370000000000000E+06
(PID.TID 0000.0001)     ;
(PID.TID 0000.0001) xcoord =   /* P-point X coord ( m - cartesian, degrees - spherical ) */
(PID.TID 0000.0001)                -4.439521994760536E+01,      /* I =  1 */
(PID.TID 0000.0001)                -4.295641272275883E+01,      /* I =  2 */
(PID.TID 0000.0001)                -4.122055553388957E+01,      /* I =  3 */
(PID.TID 0000.0001)                -3.923446288487304E+01,      /* I =  4 */
(PID.TID 0000.0001)                -3.702585158682200E+01,      /* I =  5 */
(PID.TID 0000.0001)                -3.461179367094151E+01,      /* I =  6 */
(PID.TID 0000.0001)                -3.200434569041793E+01,      /* I =  7 */
(PID.TID 0000.0001)                -2.921355965632675E+01,      /* I =  8 */
(PID.TID 0000.0001)                -2.624932223028290E+01,      /* I =  9 */
(PID.TID 0000.0001)                -2.312261250426344E+01,      /* I = 10 */
(PID.TID 0000.0001)                -1.984640717127058E+01,      /* I = 11 */
(PID.TID 0000.0001)                -1.643630800555134E+01,      /* I = 12 */
(PID.TID 0000.0001)                -1.291089806302069E+01,      /* I = 13 */
(PID.TID 0000.0001)                -9.291807802719402E+00,      /* I = 14 */
(PID.TID 0000.0001)                -5.603475335822332E+00,      /* I = 15 */
(PID.TID 0000.0001)                -1.872608513033445E+00,      /* I = 16 */
(PID.TID 0000.0001)                 1.872608513033445E+00,      /* I = 17 */
(PID.TID 0000.0001)                 5.603475335822332E+00,      /* I = 18 */
(PID.TID 0000.0001)                 9.291807802719402E+00,      /* I = 19 */
(PID.TID 0000.0001)                 1.291089806302069E+01,      /* I = 20 */
(PID.TID 0000.0001)                 1.643630800555134E+01,      /* I = 21 */
(PID.TID 0000.0001)                 1.984640717127058E+01,      /* I = 22 */
(PID.TID 0000.0001)                 2.312261250426344E+01,      /* I = 23 */
(PID.TID 0000.0001)                 2.624932223028290E+01,      /* I = 24 */
(PID.TID 0000.0001)                 2.921355965632675E+01,      /* I = 25 */
(PID.TID 0000.0001)                 3.200434569041793E+01,      /* I = 26 */
(PID.TID 0000.0001)                 3.461179367094151E+01,      /* I = 27 */
(PID.TID 0000.0001)                 3.702585158682200E+01,      /* I = 28 */
(PID.TID 0000.0001)                 3.923446288487304E+01,      /* I = 29 */
(PID.TID 0000.0001)                 4.122055553388957E+01,      /* I = 30 */
(PID.TID 0000.0001)                 4.295641272275883E+01,      /* I = 31 */
(PID.TID 0000.0001)                 4.439521994760536E+01       /* I = 32 */
(PID.TID 0000.0001)     ;
(PID.TID 0000.0001) ycoord =   /* P-point Y coord ( m - cartesian, degrees - spherical ) */
(PID.TID 0000.0001)                -3.497677942598243E+01,      /* J =  1 */
(PID.TID 0000.0001)                -3.374005967394886E+01,      /* J =  2 */
(PID.TID 0000.0001)                -3.220655175667454E+01,      /* J =  3 */
(PID.TID 0000.0001)                -3.045756348838641E+01,      /* J =  4 */
(PID.TID 0000.0001)                -2.853728129852918E+01,      /* J =  5 */
(PID.TID 0000.0001)                -2.647426640173173E+01,      /* J =  6 */
(PID.TID 0000.0001)                -2.428936657094636E+01,      /* J =  7 */
(PID.TID 0000.0001)                -2.199915808312262E+01,      /* J =  8 */
(PID.TID 0000.0001)                -1.961768597440146E+01,      /* J =  9 */
(PID.TID 0000.0001)                -1.715743888281371E+01,      /* J = 10 */
(PID.TID 0000.0001)                -1.462993396899330E+01,      /* J = 11 */
(PID.TID 0000.0001)                -1.204608340464756E+01,      /* J = 12 */
(PID.TID 0000.0001)                -9.416429130284818E+00,      /* J = 13 */
(PID.TID 0000.0001)                -6.751293662992216E+00,      /* J = 14 */
(PID.TID 0000.0001)                -4.060875511835959E+00,      /* J = 15 */
(PID.TID 0000.0001)                -1.355307764409121E+00,      /* J = 16 */
(PID.TID 0000.0001)                 1.355307764409121E+00,      /* J = 17 */
(PID.TID 0000.0001)                 4.060875511835959E+00,      /* J = 18 */
(PID.TID 0000.0001)                 6.751293662992216E+00,      /* J = 19 */
(PID.TID 0000.0001)                 9.416429130284818E+00,      /* J = 20 */
(PID.TID 0000.0001)                 1.204608340464756E+01,      /* J = 21 */
(PID.TID 0000.0001)                 1.462993396899330E+01,      /* J = 22 */
(PID.TID 0000.0001)                 1.715743888281371E+01,      /* J = 23 */
(PID.TID 0000.0001)                 1.961768597440146E+01,      /* J = 24 */
(PID.TID 0000.0001)                 2.199915808312262E+01,      /* J = 25 */
(PID.TID 0000.0001)                 2.428936657094636E+01,      /* J = 26 */
(PID.TID 0000.0001)                 2.647426640173173E+01,      /* J = 27 */
(PID.TID 0000.0001)                 2.853728129852918E+01,      /* J = 28 */
(PID.TID 0000.0001)                 3.045756348838641E+01,      /* J = 29 */
(PID.TID 0000.0001)                 3.220655175667454E+01,      /* J = 30 */
(PID.TID 0000.0001)                 3.374005967394886E+01,      /* J = 31 */
(PID.TID 0000.0001)                 3.497677942598243E+01       /* J = 32 */
(PID.TID 0000.0001)     ;
(PID.TID 0000.0001) rcoord =   /* P-point R coordinate (  units of r ) */
(PID.TID 0000.0001)                 9.500000000000000E+04,      /* K =  1 */
(PID.TID 0000.0001)                 8.500000000000000E+04,      /* K =  2 */
(PID.TID 0000.0001)                 7.500000000000000E+04,      /* K =  3 */
(PID.TID 0000.0001)                 6.500000000000000E+04,      /* K =  4 */
(PID.TID 0000.0001)                 5.500000000000000E+04,      /* K =  5 */
(PID.TID 0000.0001)                 4.500000000000000E+04,      /* K =  6 */
(PID.TID 0000.0001)                 3.500000000000000E+04,      /* K =  7 */
(PID.TID 0000.0001)                 2.500000000000000E+04,      /* K =  8 */
(PID.TID 0000.0001)                 1.500000000000000E+04,      /* K =  9 */
(PID.TID 0000.0001)                 5.000000000000000E+03       /* K = 10 */
(PID.TID 0000.0001)     ;
(PID.TID 0000.0001) rF =   /* W-Interf. R coordinate (  units of r ) */
(PID.TID 0000.0001)                 1.000000000000000E+05,      /* K =  1 */
(PID.TID 0000.0001)                 9.000000000000000E+04,      /* K =  2 */
(PID.TID 0000.0001)                 8.000000000000000E+04,      /* K =  3 */
(PID.TID 0000.0001)                 7.000000000000000E+04,      /* K =  4 */
(PID.TID 0000.0001)                 6.000000000000000E+04,      /* K =  5 */
(PID.TID 0000.0001)                 5.000000000000000E+04,      /* K =  6 */
(PID.TID 0000.0001)                 4.000000000000000E+04,      /* K =  7 */
(PID.TID 0000.0001)                 3.000000000000000E+04,      /* K =  8 */
(PID.TID 0000.0001)                 2.000000000000000E+04,      /* K =  9 */
(PID.TID 0000.0001)                 1.000000000000000E+04,      /* K = 10 */
(PID.TID 0000.0001)                 0.000000000000000E+00       /* K = 11 */
(PID.TID 0000.0001)     ;
(PID.TID 0000.0001) dxF =  /* dxF(:,1,:,1) ( m - cartesian, degrees - spherical ) */
(PID.TID 0000.0001)                 1.202082051331828E+05,      /* I =  1 */
(PID.TID 0000.0001)                 1.563594089971120E+05,      /* I =  2 */
(PID.TID 0000.0001)                 1.835530058121492E+05,      /* I =  3 */
(PID.TID 0000.0001)                 2.045883481718707E+05,      /* I =  4 */
(PID.TID 0000.0001)                 2.218350349844185E+05,      /* I =  5 */
(PID.TID 0000.0001)                 2.364352994647058E+05,      /* I =  6 */
(PID.TID 0000.0001)                 2.490022710862746E+05,      /* I =  7 */
(PID.TID 0000.0001)                 2.598919724358304E+05,      /* I =  8 */
(PID.TID 0000.0001)                 2.693210245495156E+05,      /* I =  9 */
(PID.TID 0000.0001)                 2.774243179696503E+05,      /* I = 10 */
(PID.TID 0000.0001)                 2.842862532064524E+05,      /* I = 11 */
(PID.TID 0000.0001)                 2.899590699694043E+05,      /* I = 12 */
(PID.TID 0000.0001)                 2.944742915095688E+05,      /* I = 13 */
(PID.TID 0000.0001)                 2.978501920522794E+05,      /* I = 14 */
(PID.TID 0000.0001)                 3.000967749619962E+05,      /* I = 15 */
(PID.TID 0000.0001)     2 @  3.012190981969055E+05,             /* I = 16: 17 */
(PID.TID 0000.0001)                 3.000967749619962E+05,      /* I = 18 */
(PID.TID 0000.0001)                 2.978501920522794E+05,      /* I = 19 */
(PID.TID 0000.0001)                 2.944742915095688E+05,      /* I = 20 */
(PID.TID 0000.0001)                 2.899590699694043E+05,      /* I = 21 */
(PID.TID 0000.0001)                 2.842862532064524E+05,      /* I = 22 */
(PID.TID 0000.0001)                 2.774243179696503E+05,      /* I = 23 */
(PID.TID 0000.0001)                 2.693210245495156E+05,      /* I = 24 */
(PID.TID 0000.0001)                 2.598919724358304E+05,      /* I = 25 */
(PID.TID 0000.0001)                 2.490022710862746E+05,      /* I = 26 */
(PID.TID 0000.0001)                 2.364352994647058E+05,      /* I = 27 */
(PID.TID 0000.0001)                 2.218350349844185E+05,      /* I = 28 */
(PID.TID 0000.0001)                 2.045883481718707E+05,      /* I = 29 */
(PID.TID 0000.0001)                 1.835530058121492E+05,      /* I = 30 */
(PID.TID 0000.0001)                 1.563594089971120E+05,      /* I = 31 */
(PID.TID 0000.0001)                 1.202082051331828E+05       /* I = 32 */
(PID.TID 0000.0001)     ;
(PID.TID 0000.0001) dxF =  /* dxF(1,:,1,:) ( m - cartesian, degrees - spherical ) */
(PID.TID 0000.0001)                 1.202082051331828E+05,      /* J =  1 */
(PID.TID 0000.0001)                 1.572908084538706E+05,      /* J =  2 */
(PID.TID 0000.0001)                 1.840412227747703E+05,      /* J =  3 */
(PID.TID 0000.0001)                 2.048868197919577E+05,      /* J =  4 */
(PID.TID 0000.0001)                 2.220405216043041E+05,      /* J =  5 */
(PID.TID 0000.0001)                 2.365892017348392E+05,      /* J =  6 */
(PID.TID 0000.0001)                 2.491250781852558E+05,      /* J =  7 */
(PID.TID 0000.0001)                 2.599949918261881E+05,      /* J =  8 */
(PID.TID 0000.0001)                 2.694110134598581E+05,      /* J =  9 */
(PID.TID 0000.0001)                 2.775055554645015E+05,      /* J = 10 */
(PID.TID 0000.0001)                 2.843615645344775E+05,      /* J = 11 */
(PID.TID 0000.0001)                 2.900303768613599E+05,      /* J = 12 */
(PID.TID 0000.0001)                 2.945429307892709E+05,      /* J = 13 */
(PID.TID 0000.0001)                 2.979171143158405E+05,      /* J = 14 */
(PID.TID 0000.0001)                 3.001626787528886E+05,      /* J = 15 */
(PID.TID 0000.0001)     2 @  3.012844832048790E+05,             /* J = 16: 17 */
(PID.TID 0000.0001)                 3.001626787528886E+05,      /* J = 18 */
(PID.TID 0000.0001)                 2.979171143158405E+05,      /* J = 19 */
(PID.TID 0000.0001)                 2.945429307892709E+05,      /* J = 20 */
(PID.TID 0000.0001)                 2.900303768613599E+05,      /* J = 21 */
(PID.TID 0000.0001)                 2.843615645344775E+05,      /* J = 22 */
(PID.TID 0000.0001)                 2.775055554645015E+05,      /* J = 23 */
(PID.TID 0000.0001)                 2.694110134598581E+05,      /* J = 24 */
(PID.TID 0000.0001)                 2.599949918261881E+05,      /* J = 25 */
(PID.TID 0000.0001)                 2.491250781852558E+05,      /* J = 26 */
(PID.TID 0000.0001)                 2.365892017348392E+05,      /* J = 27 */
(PID.TID 0000.0001)                 2.220405216043041E+05,      /* J = 28 */
(PID.TID 0000.0001)                 2.048868197919577E+05,      /* J = 29 */
(PID.TID 0000.0001)                 1.840412227747703E+05,      /* J = 30 */
(PID.TID 0000.0001)                 1.572908084538706E+05,      /* J = 31 */
(PID.TID 0000.0001)                 1.202082051331828E+05       /* J = 32 */
(PID.TID 0000.0001)     ;
(PID.TID 0000.0001) dyF =  /* dyF(:,1,:,1) ( m - cartesian, degrees - spherical ) */
(PID.TID 0000.0001)                 1.202082051331828E+05,      /* I =  1 */
(PID.TID 0000.0001)                 1.572908084538706E+05,      /* I =  2 */
(PID.TID 0000.0001)                 1.840412227747703E+05,      /* I =  3 */
(PID.TID 0000.0001)                 2.048868197919577E+05,      /* I =  4 */
(PID.TID 0000.0001)                 2.220405216043041E+05,      /* I =  5 */
(PID.TID 0000.0001)                 2.365892017348392E+05,      /* I =  6 */
(PID.TID 0000.0001)                 2.491250781852558E+05,      /* I =  7 */
(PID.TID 0000.0001)                 2.599949918261881E+05,      /* I =  8 */
(PID.TID 0000.0001)                 2.694110134598581E+05,      /* I =  9 */
(PID.TID 0000.0001)                 2.775055554645015E+05,      /* I = 10 */
(PID.TID 0000.0001)                 2.843615645344775E+05,      /* I = 11 */
(PID.TID 0000.0001)                 2.900303768613599E+05,      /* I = 12 */
(PID.TID 0000.0001)                 2.945429307892709E+05,      /* I = 13 */
(PID.TID 0000.0001)                 2.979171143158405E+05,      /* I = 14 */
(PID.TID 0000.0001)                 3.001626787528886E+05,      /* I = 15 */
(PID.TID 0000.0001)     2 @  3.012844832048790E+05,             /* I = 16: 17 */
(PID.TID 0000.0001)                 3.001626787528886E+05,      /* I = 18 */
(PID.TID 0000.0001)                 2.979171143158405E+05,      /* I = 19 */
(PID.TID 0000.0001)                 2.945429307892709E+05,      /* I = 20 */
(PID.TID 0000.0001)                 2.900303768613599E+05,      /* I = 21 */
(PID.TID 0000.0001)                 2.843615645344775E+05,      /* I = 22 */
(PID.TID 0000.0001)                 2.775055554645015E+05,      /* I = 23 */
(PID.TID 0000.0001)                 2.694110134598581E+05,      /* I = 24 */
(PID.TID 0000.0001)                 2.599949918261881E+05,      /* I = 25 */
(PID.TID 0000.0001)                 2.491250781852558E+05,      /* I = 26 */
(PID.TID 0000.0001)                 2.365892017348392E+05,      /* I = 27 */
(PID.TID 0000.0001)                 2.220405216043041E+05,      /* I = 28 */
(PID.TID 0000.0001)                 2.048868197919577E+05,      /* I = 29 */
(PID.TID 0000.0001)                 1.840412227747703E+05,      /* I = 30 */
(PID.TID 0000.0001)                 1.572908084538706E+05,      /* I = 31 */
(PID.TID 0000.0001)                 1.202082051331828E+05       /* I = 32 */
(PID.TID 0000.0001)     ;
(PID.TID 0000.0001) dyF =  /* dyF(1,:,1,:) ( m - cartesian, degrees - spherical ) */
(PID.TID 0000.0001)                 1.202082051331828E+05,      /* J =  1 */
(PID.TID 0000.0001)                 1.563594089971120E+05,      /* J =  2 */
(PID.TID 0000.0001)                 1.835530058121492E+05,      /* J =  3 */
(PID.TID 0000.0001)                 2.045883481718707E+05,      /* J =  4 */
(PID.TID 0000.0001)                 2.218350349844185E+05,      /* J =  5 */
(PID.TID 0000.0001)                 2.364352994647058E+05,      /* J =  6 */
(PID.TID 0000.0001)                 2.490022710862746E+05,      /* J =  7 */
(PID.TID 0000.0001)                 2.598919724358304E+05,      /* J =  8 */
(PID.TID 0000.0001)                 2.693210245495156E+05,      /* J =  9 */
(PID.TID 0000.0001)                 2.774243179696503E+05,      /* J = 10 */
(PID.TID 0000.0001)                 2.842862532064524E+05,      /* J = 11 */
(PID.TID 0000.0001)                 2.899590699694043E+05,      /* J = 12 */
(PID.TID 0000.0001)                 2.944742915095688E+05,      /* J = 13 */
(PID.TID 0000.0001)                 2.978501920522794E+05,      /* J = 14 */
(PID.TID 0000.0001)                 3.000967749619962E+05,      /* J = 15 */
(PID.TID 0000.0001)     2 @  3.012190981969055E+05,             /* J = 16: 17 */
(PID.TID 0000.0001)                 3.000967749619962E+05,      /* J = 18 */
(PID.TID 0000.0001)                 2.978501920522794E+05,      /* J = 19 */
(PID.TID 0000.0001)                 2.944742915095688E+05,      /* J = 20 */
(PID.TID 0000.0001)                 2.899590699694043E+05,      /* J = 21 */
(PID.TID 0000.0001)                 2.842862532064524E+05,      /* J = 22 */
(PID.TID 0000.0001)                 2.774243179696503E+05,      /* J = 23 */
(PID.TID 0000.0001)                 2.693210245495156E+05,      /* J = 24 */
(PID.TID 0000.0001)                 2.598919724358304E+05,      /* J = 25 */
(PID.TID 0000.0001)                 2.490022710862746E+05,      /* J = 26 */
(PID.TID 0000.0001)                 2.364352994647058E+05,      /* J = 27 */
(PID.TID 0000.0001)                 2.218350349844185E+05,      /* J = 28 */
(PID.TID 0000.0001)                 2.045883481718707E+05,      /* J = 29 */
(PID.TID 0000.0001)                 1.835530058121492E+05,      /* J = 30 */
(PID.TID 0000.0001)                 1.563594089971120E+05,      /* J = 31 */
(PID.TID 0000.0001)                 1.202082051331828E+05       /* J = 32 */
(PID.TID 0000.0001)     ;
(PID.TID 0000.0001) dxG =  /* dxG(:,1,:,1) ( m - cartesian, degrees - spherical ) */
(PID.TID 0000.0001)                 1.009837800879055E+05,      /* I =  1 */
(PID.TID 0000.0001)                 1.534505834330338E+05,      /* I =  2 */
(PID.TID 0000.0001)                 1.823321598773926E+05,      /* I =  3 */
(PID.TID 0000.0001)                 2.038999045536999E+05,      /* I =  4 */
(PID.TID 0000.0001)                 2.213884732245467E+05,      /* I =  5 */
(PID.TID 0000.0001)                 2.361211699596122E+05,      /* I =  6 */
(PID.TID 0000.0001)                 2.487693460283865E+05,      /* I =  7 */
(PID.TID 0000.0001)                 2.597126963772147E+05,      /* I =  8 */
(PID.TID 0000.0001)                 2.691790288994575E+05,      /* I =  9 */
(PID.TID 0000.0001)                 2.773091043277394E+05,      /* I = 10 */
(PID.TID 0000.0001)                 2.841906470085516E+05,      /* I = 11 */
(PID.TID 0000.0001)                 2.898778860929753E+05,      /* I = 12 */
(PID.TID 0000.0001)                 2.944035815526416E+05,      /* I = 13 */
(PID.TID 0000.0001)                 2.977867909042096E+05,      /* I = 14 */
(PID.TID 0000.0001)                 3.000380090330854E+05,      /* I = 15 */
(PID.TID 0000.0001)     2 @  3.011625828699101E+05,             /* I = 16: 17 */
(PID.TID 0000.0001)                 3.000380090330854E+05,      /* I = 18 */
(PID.TID 0000.0001)                 2.977867909042096E+05,      /* I = 19 */
(PID.TID 0000.0001)                 2.944035815526416E+05,      /* I = 20 */
(PID.TID 0000.0001)                 2.898778860929753E+05,      /* I = 21 */
(PID.TID 0000.0001)                 2.841906470085516E+05,      /* I = 22 */
(PID.TID 0000.0001)                 2.773091043277394E+05,      /* I = 23 */
(PID.TID 0000.0001)                 2.691790288994575E+05,      /* I = 24 */
(PID.TID 0000.0001)                 2.597126963772147E+05,      /* I = 25 */
(PID.TID 0000.0001)                 2.487693460283865E+05,      /* I = 26 */
(PID.TID 0000.0001)                 2.361211699596122E+05,      /* I = 27 */
(PID.TID 0000.0001)                 2.213884732245467E+05,      /* I = 28 */
(PID.TID 0000.0001)                 2.038999045536999E+05,      /* I = 29 */
(PID.TID 0000.0001)                 1.823321598773926E+05,      /* I = 30 */
(PID.TID 0000.0001)                 1.534505834330338E+05,      /* I = 31 */
(PID.TID 0000.0001)                 1.009837800879055E+05       /* I = 32 */
(PID.TID 0000.0001)     ;
(PID.TID 0000.0001) dxG =  /* dxG(1,:,1,:) ( m - cartesian, degrees - spherical ) */
(PID.TID 0000.0001)                 1.009837800879055E+05,      /* J =  1 */
(PID.TID 0000.0001)                 1.403701524205399E+05,      /* J =  2 */
(PID.TID 0000.0001)                 1.716197227386011E+05,      /* J =  3 */
(PID.TID 0000.0001)                 1.950254041626018E+05,      /* J =  4 */
(PID.TID 0000.0001)                 2.138410773065497E+05,      /* J =  5 */
(PID.TID 0000.0001)                 2.295958105911512E+05,      /* J =  6 */
(PID.TID 0000.0001)                 2.430829951739083E+05,      /* J =  7 */
(PID.TID 0000.0001)                 2.547526806712889E+05,      /* J =  8 */
(PID.TID 0000.0001)                 2.648750305193301E+05,      /* J =  9 */
(PID.TID 0000.0001)                 2.736173771018112E+05,      /* J = 10 */
(PID.TID 0000.0001)                 2.810845823202647E+05,      /* J = 11 */
(PID.TID 0000.0001)                 2.873420591008078E+05,      /* J = 12 */
(PID.TID 0000.0001)                 2.924298293668651E+05,      /* J = 13 */
(PID.TID 0000.0001)                 2.963715635865306E+05,      /* J = 14 */
(PID.TID 0000.0001)                 2.991805843171258E+05,      /* J = 15 */
(PID.TID 0000.0001)                 3.008638765647886E+05,      /* J = 16 */
(PID.TID 0000.0001)                 3.014246674484008E+05,      /* J = 17 */
(PID.TID 0000.0001)                 3.008638765647886E+05,      /* J = 18 */
(PID.TID 0000.0001)                 2.991805843171258E+05,      /* J = 19 */
(PID.TID 0000.0001)                 2.963715635865306E+05,      /* J = 20 */
(PID.TID 0000.0001)                 2.924298293668651E+05,      /* J = 21 */
(PID.TID 0000.0001)                 2.873420591008078E+05,      /* J = 22 */
(PID.TID 0000.0001)                 2.810845823202647E+05,      /* J = 23 */
(PID.TID 0000.0001)                 2.736173771018112E+05,      /* J = 24 */
(PID.TID 0000.0001)                 2.648750305193301E+05,      /* J = 25 */
(PID.TID 0000.0001)                 2.547526806712889E+05,      /* J = 26 */
(PID.TID 0000.0001)                 2.430829951739083E+05,      /* J = 27 */
(PID.TID 0000.0001)                 2.295958105911512E+05,      /* J = 28 */
(PID.TID 0000.0001)                 2.138410773065497E+05,      /* J = 29 */
(PID.TID 0000.0001)                 1.950254041626018E+05,      /* J = 30 */
(PID.TID 0000.0001)                 1.716197227386011E+05,      /* J = 31 */
(PID.TID 0000.0001)                 1.403701524205399E+05       /* J = 32 */
(PID.TID 0000.0001)     ;
(PID.TID 0000.0001) dyG =  /* dyG(:,1,:,1) ( m - cartesian, degrees - spherical ) */
(PID.TID 0000.0001)                 1.009837800879055E+05,      /* I =  1 */
(PID.TID 0000.0001)                 1.403701524205399E+05,      /* I =  2 */
(PID.TID 0000.0001)                 1.716197227386011E+05,      /* I =  3 */
(PID.TID 0000.0001)                 1.950254041626018E+05,      /* I =  4 */
(PID.TID 0000.0001)                 2.138410773065497E+05,      /* I =  5 */
(PID.TID 0000.0001)                 2.295958105911512E+05,      /* I =  6 */
(PID.TID 0000.0001)                 2.430829951739083E+05,      /* I =  7 */
(PID.TID 0000.0001)                 2.547526806712889E+05,      /* I =  8 */
(PID.TID 0000.0001)                 2.648750305193301E+05,      /* I =  9 */
(PID.TID 0000.0001)                 2.736173771018112E+05,      /* I = 10 */
(PID.TID 0000.0001)                 2.810845823202647E+05,      /* I = 11 */
(PID.TID 0000.0001)                 2.873420591008078E+05,      /* I = 12 */
(PID.TID 0000.0001)                 2.924298293668651E+05,      /* I = 13 */
(PID.TID 0000.0001)                 2.963715635865306E+05,      /* I = 14 */
(PID.TID 0000.0001)                 2.991805843171258E+05,      /* I = 15 */
(PID.TID 0000.0001)                 3.008638765647886E+05,      /* I = 16 */
(PID.TID 0000.0001)                 3.014246674484008E+05,      /* I = 17 */
(PID.TID 0000.0001)                 3.008638765647886E+05,      /* I = 18 */
(PID.TID 0000.0001)                 2.991805843171258E+05,      /* I = 19 */
(PID.TID 0000.0001)                 2.963715635865306E+05,      /* I = 20 */
(PID.TID 0000.0001)                 2.924298293668651E+05,      /* I = 21 */
(PID.TID 0000.0001)                 2.873420591008078E+05,      /* I = 22 */
(PID.TID 0000.0001)                 2.810845823202647E+05,      /* I = 23 */
(PID.TID 0000.0001)                 2.736173771018112E+05,      /* I = 24 */
(PID.TID 0000.0001)                 2.648750305193301E+05,      /* I = 25 */
(PID.TID 0000.0001)                 2.547526806712889E+05,      /* I = 26 */
(PID.TID 0000.0001)                 2.430829951739083E+05,      /* I = 27 */
(PID.TID 0000.0001)                 2.295958105911512E+05,      /* I = 28 */
(PID.TID 0000.0001)                 2.138410773065497E+05,      /* I = 29 */
(PID.TID 0000.0001)                 1.950254041626018E+05,      /* I = 30 */
(PID.TID 0000.0001)                 1.716197227386011E+05,      /* I = 31 */
(PID.TID 0000.0001)                 1.403701524205399E+05       /* I = 32 */
(PID.TID 0000.0001)     ;
(PID.TID 0000.0001) dyG =  /* dyG(1,:,1,:) ( m - cartesian, degrees - spherical ) */
(PID.TID 0000.0001)                 1.009837800879055E+05,      /* J =  1 */
(PID.TID 0000.0001)                 1.534505834330338E+05,      /* J =  2 */
(PID.TID 0000.0001)                 1.823321598773926E+05,      /* J =  3 */
(PID.TID 0000.0001)                 2.038999045536999E+05,      /* J =  4 */
(PID.TID 0000.0001)                 2.213884732245467E+05,      /* J =  5 */
(PID.TID 0000.0001)                 2.361211699596122E+05,      /* J =  6 */
(PID.TID 0000.0001)                 2.487693460283865E+05,      /* J =  7 */
(PID.TID 0000.0001)                 2.597126963772147E+05,      /* J =  8 */
(PID.TID 0000.0001)                 2.691790288994575E+05,      /* J =  9 */
(PID.TID 0000.0001)                 2.773091043277394E+05,      /* J = 10 */
(PID.TID 0000.0001)                 2.841906470085516E+05,      /* J = 11 */
(PID.TID 0000.0001)                 2.898778860929753E+05,      /* J = 12 */
(PID.TID 0000.0001)                 2.944035815526416E+05,      /* J = 13 */
(PID.TID 0000.0001)                 2.977867909042096E+05,      /* J = 14 */
(PID.TID 0000.0001)                 3.000380090330854E+05,      /* J = 15 */
(PID.TID 0000.0001)     2 @  3.011625828699101E+05,             /* J = 16: 17 */
(PID.TID 0000.0001)                 3.000380090330854E+05,      /* J = 18 */
(PID.TID 0000.0001)                 2.977867909042096E+05,      /* J = 19 */
(PID.TID 0000.0001)                 2.944035815526416E+05,      /* J = 20 */
(PID.TID 0000.0001)                 2.898778860929753E+05,      /* J = 21 */
(PID.TID 0000.0001)                 2.841906470085516E+05,      /* J = 22 */
(PID.TID 0000.0001)                 2.773091043277394E+05,      /* J = 23 */
(PID.TID 0000.0001)                 2.691790288994575E+05,      /* J = 24 */
(PID.TID 0000.0001)                 2.597126963772147E+05,      /* J = 25 */
(PID.TID 0000.0001)                 2.487693460283865E+05,      /* J = 26 */
(PID.TID 0000.0001)                 2.361211699596122E+05,      /* J = 27 */
(PID.TID 0000.0001)                 2.213884732245467E+05,      /* J = 28 */
(PID.TID 0000.0001)                 2.038999045536999E+05,      /* J = 29 */
(PID.TID 0000.0001)                 1.823321598773926E+05,      /* J = 30 */
(PID.TID 0000.0001)                 1.534505834330338E+05,      /* J = 31 */
(PID.TID 0000.0001)                 1.009837800879055E+05       /* J = 32 */
(PID.TID 0000.0001)     ;
(PID.TID 0000.0001) dxC =  /* dxC(:,1,:,1) ( m - cartesian, degrees - spherical ) */
(PID.TID 0000.0001)                 1.114203141013064E+05,      /* I =  1 */
(PID.TID 0000.0001)                 1.391343389937106E+05,      /* I =  2 */
(PID.TID 0000.0001)                 1.709574999026267E+05,      /* I =  3 */
(PID.TID 0000.0001)                 1.946503699269892E+05,      /* I =  4 */
(PID.TID 0000.0001)                 2.135964483342134E+05,      /* I =  5 */
(PID.TID 0000.0001)                 2.294195678257306E+05,      /* I =  6 */
(PID.TID 0000.0001)                 2.429464709770498E+05,      /* I =  7 */
(PID.TID 0000.0001)                 2.546408290696998E+05,      /* I =  8 */
(PID.TID 0000.0001)                 2.647791839299727E+05,      /* I =  9 */
(PID.TID 0000.0001)                 2.735321911346108E+05,      /* I = 10 */
(PID.TID 0000.0001)                 2.810065951609633E+05,      /* I = 11 */
(PID.TID 0000.0001)                 2.872689479506990E+05,      /* I = 12 */
(PID.TID 0000.0001)                 2.923599955312932E+05,      /* I = 13 */
(PID.TID 0000.0001)                 2.963038832565530E+05,      /* I = 14 */
(PID.TID 0000.0001)                 2.991142470004740E+05,      /* I = 15 */
(PID.TID 0000.0001)                 3.007982711627968E+05,      /* I = 16 */
(PID.TID 0000.0001)                 3.013593857228136E+05,      /* I = 17 */
(PID.TID 0000.0001)                 3.007982711627968E+05,      /* I = 18 */
(PID.TID 0000.0001)                 2.991142470004740E+05,      /* I = 19 */
(PID.TID 0000.0001)                 2.963038832565530E+05,      /* I = 20 */
(PID.TID 0000.0001)                 2.923599955312932E+05,      /* I = 21 */
(PID.TID 0000.0001)                 2.872689479506990E+05,      /* I = 22 */
(PID.TID 0000.0001)                 2.810065951609633E+05,      /* I = 23 */
(PID.TID 0000.0001)                 2.735321911346108E+05,      /* I = 24 */
(PID.TID 0000.0001)                 2.647791839299727E+05,      /* I = 25 */
(PID.TID 0000.0001)                 2.546408290696998E+05,      /* I = 26 */
(PID.TID 0000.0001)                 2.429464709770498E+05,      /* I = 27 */
(PID.TID 0000.0001)                 2.294195678257306E+05,      /* I = 28 */
(PID.TID 0000.0001)                 2.135964483342134E+05,      /* I = 29 */
(PID.TID 0000.0001)                 1.946503699269892E+05,      /* I = 30 */
(PID.TID 0000.0001)                 1.709574999026267E+05,      /* I = 31 */
(PID.TID 0000.0001)                 1.391343389937106E+05       /* I = 32 */
(PID.TID 0000.0001)     ;
(PID.TID 0000.0001) dxC =  /* dxC(1,:,1,:) ( m - cartesian, degrees - spherical ) */
(PID.TID 0000.0001)                 1.114203141013064E+05,      /* J =  1 */
(PID.TID 0000.0001)                 1.549545757850771E+05,      /* J =  2 */
(PID.TID 0000.0001)                 1.829777599966776E+05,      /* J =  3 */
(PID.TID 0000.0001)                 2.042717761866506E+05,      /* J =  4 */
(PID.TID 0000.0001)                 2.216367828252819E+05,      /* J =  5 */
(PID.TID 0000.0001)                 2.363029564123586E+05,      /* J =  6 */
(PID.TID 0000.0001)                 2.489113743322025E+05,      /* J =  7 */
(PID.TID 0000.0001)                 2.598293319150326E+05,      /* J =  8 */
(PID.TID 0000.0001)                 2.692787333338535E+05,      /* J =  9 */
(PID.TID 0000.0001)                 2.773972106720365E+05,      /* J = 10 */
(PID.TID 0000.0001)                 2.842706922224558E+05,      /* J = 11 */
(PID.TID 0000.0001)                 2.899523122489404E+05,      /* J = 12 */
(PID.TID 0000.0001)                 2.944741346384699E+05,      /* J = 13 */
(PID.TID 0000.0001)                 2.978547649292580E+05,      /* J = 14 */
(PID.TID 0000.0001)                 3.001044073506459E+05,      /* J = 15 */
(PID.TID 0000.0001)     2 @  3.012281885409289E+05,             /* J = 16: 17 */
(PID.TID 0000.0001)                 3.001044073506459E+05,      /* J = 18 */
(PID.TID 0000.0001)                 2.978547649292580E+05,      /* J = 19 */
(PID.TID 0000.0001)                 2.944741346384699E+05,      /* J = 20 */
(PID.TID 0000.0001)                 2.899523122489404E+05,      /* J = 21 */
(PID.TID 0000.0001)                 2.842706922224558E+05,      /* J = 22 */
(PID.TID 0000.0001)                 2.773972106720365E+05,      /* J = 23 */
(PID.TID 0000.0001)                 2.692787333338535E+05,      /* J = 24 */
(PID.TID 0000.0001)                 2.598293319150326E+05,      /* J = 25 */
(PID.TID 0000.0001)                 2.489113743322025E+05,      /* J = 26 */
(PID.TID 0000.0001)                 2.363029564123586E+05,      /* J = 27 */
(PID.TID 0000.0001)                 2.216367828252819E+05,      /* J = 28 */
(PID.TID 0000.0001)                 2.042717761866506E+05,      /* J = 29 */
(PID.TID 0000.0001)                 1.829777599966776E+05,      /* J = 30 */
(PID.TID 0000.0001)                 1.549545757850771E+05,      /* J = 31 */
(PID.TID 0000.0001)                 1.114203141013064E+05       /* J = 32 */
(PID.TID 0000.0001)     ;
(PID.TID 0000.0001) dyC =  /* dyC(:,1,:,1) ( m - cartesian, degrees - spherical ) */
(PID.TID 0000.0001)                 1.114203141013064E+05,      /* I =  1 */
(PID.TID 0000.0001)                 1.549545757850771E+05,      /* I =  2 */
(PID.TID 0000.0001)                 1.829777599966776E+05,      /* I =  3 */
(PID.TID 0000.0001)                 2.042717761866506E+05,      /* I =  4 */
(PID.TID 0000.0001)                 2.216367828252819E+05,      /* I =  5 */
(PID.TID 0000.0001)                 2.363029564123586E+05,      /* I =  6 */
(PID.TID 0000.0001)                 2.489113743322025E+05,      /* I =  7 */
(PID.TID 0000.0001)                 2.598293319150326E+05,      /* I =  8 */
(PID.TID 0000.0001)                 2.692787333338535E+05,      /* I =  9 */
(PID.TID 0000.0001)                 2.773972106720365E+05,      /* I = 10 */
(PID.TID 0000.0001)                 2.842706922224558E+05,      /* I = 11 */
(PID.TID 0000.0001)                 2.899523122489404E+05,      /* I = 12 */
(PID.TID 0000.0001)                 2.944741346384699E+05,      /* I = 13 */
(PID.TID 0000.0001)                 2.978547649292580E+05,      /* I = 14 */
(PID.TID 0000.0001)                 3.001044073506459E+05,      /* I = 15 */
(PID.TID 0000.0001)     2 @  3.012281885409289E+05,             /* I = 16: 17 */
(PID.TID 0000.0001)                 3.001044073506459E+05,      /* I = 18 */
(PID.TID 0000.0001)                 2.978547649292580E+05,      /* I = 19 */
(PID.TID 0000.0001)                 2.944741346384699E+05,      /* I = 20 */
(PID.TID 0000.0001)                 2.899523122489404E+05,      /* I = 21 */
(PID.TID 0000.0001)                 2.842706922224558E+05,      /* I = 22 */
(PID.TID 0000.0001)                 2.773972106720365E+05,      /* I = 23 */
(PID.TID 0000.0001)                 2.692787333338535E+05,      /* I = 24 */
(PID.TID 0000.0001)                 2.598293319150326E+05,      /* I = 25 */
(PID.TID 0000.0001)                 2.489113743322025E+05,      /* I = 26 */
(PID.TID 0000.0001)                 2.363029564123586E+05,      /* I = 27 */
(PID.TID 0000.0001)                 2.216367828252819E+05,      /* I = 28 */
(PID.TID 0000.0001)                 2.042717761866506E+05,      /* I = 29 */
(PID.TID 0000.0001)                 1.829777599966776E+05,      /* I = 30 */
(PID.TID 0000.0001)                 1.549545757850771E+05,      /* I = 31 */
(PID.TID 0000.0001)                 1.114203141013064E+05       /* I = 32 */
(PID.TID 0000.0001)     ;
(PID.TID 0000.0001) dyC =  /* dyC(1,:,1,:) ( m - cartesian, degrees - spherical ) */
(PID.TID 0000.0001)                 1.114203141013064E+05,      /* J =  1 */
(PID.TID 0000.0001)                 1.391343389937106E+05,      /* J =  2 */
(PID.TID 0000.0001)                 1.709574999026267E+05,      /* J =  3 */
(PID.TID 0000.0001)                 1.946503699269892E+05,      /* J =  4 */
(PID.TID 0000.0001)                 2.135964483342134E+05,      /* J =  5 */
(PID.TID 0000.0001)                 2.294195678257306E+05,      /* J =  6 */
(PID.TID 0000.0001)                 2.429464709770498E+05,      /* J =  7 */
(PID.TID 0000.0001)                 2.546408290696998E+05,      /* J =  8 */
(PID.TID 0000.0001)                 2.647791839299727E+05,      /* J =  9 */
(PID.TID 0000.0001)                 2.735321911346108E+05,      /* J = 10 */
(PID.TID 0000.0001)                 2.810065951609633E+05,      /* J = 11 */
(PID.TID 0000.0001)                 2.872689479506990E+05,      /* J = 12 */
(PID.TID 0000.0001)                 2.923599955312932E+05,      /* J = 13 */
(PID.TID 0000.0001)                 2.963038832565530E+05,      /* J = 14 */
(PID.TID 0000.0001)                 2.991142470004740E+05,      /* J = 15 */
(PID.TID 0000.0001)                 3.007982711627968E+05,      /* J = 16 */
(PID.TID 0000.0001)                 3.013593857228136E+05,      /* J = 17 */
(PID.TID 0000.0001)                 3.007982711627968E+05,      /* J = 18 */
(PID.TID 0000.0001)                 2.991142470004740E+05,      /* J = 19 */
(PID.TID 0000.0001)                 2.963038832565530E+05,      /* J = 20 */
(PID.TID 0000.0001)                 2.923599955312932E+05,      /* J = 21 */
(PID.TID 0000.0001)                 2.872689479506990E+05,      /* J = 22 */
(PID.TID 0000.0001)                 2.810065951609633E+05,      /* J = 23 */
(PID.TID 0000.0001)                 2.735321911346108E+05,      /* J = 24 */
(PID.TID 0000.0001)                 2.647791839299727E+05,      /* J = 25 */
(PID.TID 0000.0001)                 2.546408290696998E+05,      /* J = 26 */
(PID.TID 0000.0001)                 2.429464709770498E+05,      /* J = 27 */
(PID.TID 0000.0001)                 2.294195678257306E+05,      /* J = 28 */
(PID.TID 0000.0001)                 2.135964483342134E+05,      /* J = 29 */
(PID.TID 0000.0001)                 1.946503699269892E+05,      /* J = 30 */
(PID.TID 0000.0001)                 1.709574999026267E+05,      /* J = 31 */
(PID.TID 0000.0001)                 1.391343389937106E+05       /* J = 32 */
(PID.TID 0000.0001)     ;
(PID.TID 0000.0001) dxV =  /* dxV(:,1,:,1) ( m - cartesian, degrees - spherical ) */
(PID.TID 0000.0001)                 8.015229982413632E+04,      /* I =  1 */
(PID.TID 0000.0001)                 1.333130744933864E+05,      /* I =  2 */
(PID.TID 0000.0001)                 1.691744868129062E+05,      /* I =  3 */
(PID.TID 0000.0001)                 1.937548202849060E+05,      /* I =  4 */
(PID.TID 0000.0001)                 2.130490056267208E+05,      /* I =  5 */
(PID.TID 0000.0001)                 2.290479919481738E+05,      /* I =  6 */
(PID.TID 0000.0001)                 2.426774358027004E+05,      /* I =  7 */
(PID.TID 0000.0001)                 2.544372984215561E+05,      /* I =  8 */
(PID.TID 0000.0001)                 2.646201463834826E+05,      /* I =  9 */
(PID.TID 0000.0001)                 2.734046499619031E+05,      /* I = 10 */
(PID.TID 0000.0001)                 2.809019351693761E+05,      /* I = 11 */
(PID.TID 0000.0001)                 2.871811105274442E+05,      /* I = 12 */
(PID.TID 0000.0001)                 2.922844849381675E+05,      /* I = 13 */
(PID.TID 0000.0001)                 2.962371870847826E+05,      /* I = 14 */
(PID.TID 0000.0001)                 2.990534755671296E+05,      /* I = 15 */
(PID.TID 0000.0001)                 3.007409169495504E+05,      /* I = 16 */
(PID.TID 0000.0001)                 3.013031486919771E+05,      /* I = 17 */
(PID.TID 0000.0001)                 3.007409169495504E+05,      /* I = 18 */
(PID.TID 0000.0001)                 2.990534755671296E+05,      /* I = 19 */
(PID.TID 0000.0001)                 2.962371870847826E+05,      /* I = 20 */
(PID.TID 0000.0001)                 2.922844849381675E+05,      /* I = 21 */
(PID.TID 0000.0001)                 2.871811105274442E+05,      /* I = 22 */
(PID.TID 0000.0001)                 2.809019351693761E+05,      /* I = 23 */
(PID.TID 0000.0001)                 2.734046499619031E+05,      /* I = 24 */
(PID.TID 0000.0001)                 2.646201463834826E+05,      /* I = 25 */
(PID.TID 0000.0001)                 2.544372984215561E+05,      /* I = 26 */
(PID.TID 0000.0001)                 2.426774358027004E+05,      /* I = 27 */
(PID.TID 0000.0001)                 2.290479919481738E+05,      /* I = 28 */
(PID.TID 0000.0001)                 2.130490056267208E+05,      /* I = 29 */
(PID.TID 0000.0001)                 1.937548202849060E+05,      /* I = 30 */
(PID.TID 0000.0001)                 1.691744868129062E+05,      /* I = 31 */
(PID.TID 0000.0001)                 1.333130744933864E+05       /* I = 32 */
(PID.TID 0000.0001)     ;
(PID.TID 0000.0001) dxV =  /* dxV(1,:,1,:) ( m - cartesian, degrees - spherical ) */
(PID.TID 0000.0001)                 8.015229982413632E+04,      /* J =  1 */
(PID.TID 0000.0001)                 1.362652340208229E+05,      /* J =  2 */
(PID.TID 0000.0001)                 1.701080315742101E+05,      /* J =  3 */
(PID.TID 0000.0001)                 1.942331448101592E+05,      /* J =  4 */
(PID.TID 0000.0001)                 2.133486626971531E+05,      /* J =  5 */
(PID.TID 0000.0001)                 2.292584591272880E+05,      /* J =  6 */
(PID.TID 0000.0001)                 2.428369969078989E+05,      /* J =  7 */
(PID.TID 0000.0001)                 2.545652950875683E+05,      /* J =  8 */
(PID.TID 0000.0001)                 2.647274964828302E+05,      /* J =  9 */
(PID.TID 0000.0001)                 2.734980225206389E+05,      /* J = 10 */
(PID.TID 0000.0001)                 2.809856491525217E+05,      /* J = 11 */
(PID.TID 0000.0001)                 2.872580915202295E+05,      /* J = 12 */
(PID.TID 0000.0001)                 2.923567890694162E+05,      /* J = 13 */
(PID.TID 0000.0001)                 2.963063101754721E+05,      /* J = 14 */
(PID.TID 0000.0001)                 2.991205495886625E+05,      /* J = 15 */
(PID.TID 0000.0001)                 3.008068453676764E+05,      /* J = 16 */
(PID.TID 0000.0001)                 3.013686170436881E+05,      /* J = 17 */
(PID.TID 0000.0001)                 3.008068453676764E+05,      /* J = 18 */
(PID.TID 0000.0001)                 2.991205495886625E+05,      /* J = 19 */
(PID.TID 0000.0001)                 2.963063101754721E+05,      /* J = 20 */
(PID.TID 0000.0001)                 2.923567890694162E+05,      /* J = 21 */
(PID.TID 0000.0001)                 2.872580915202295E+05,      /* J = 22 */
(PID.TID 0000.0001)                 2.809856491525217E+05,      /* J = 23 */
(PID.TID 0000.0001)                 2.734980225206389E+05,      /* J = 24 */
(PID.TID 0000.0001)                 2.647274964828302E+05,      /* J = 25 */
(PID.TID 0000.0001)                 2.545652950875683E+05,      /* J = 26 */
(PID.TID 0000.0001)                 2.428369969078989E+05,      /* J = 27 */
(PID.TID 0000.0001)                 2.292584591272880E+05,      /* J = 28 */
(PID.TID 0000.0001)                 2.133486626971531E+05,      /* J = 29 */
(PID.TID 0000.0001)                 1.942331448101592E+05,      /* J = 30 */
(PID.TID 0000.0001)                 1.701080315742101E+05,      /* J = 31 */
(PID.TID 0000.0001)                 1.362652340208229E+05       /* J = 32 */
(PID.TID 0000.0001)     ;
(PID.TID 0000.0001) dyU =  /* dyU(:,1,:,1) ( m - cartesian, degrees - spherical ) */
(PID.TID 0000.0001)                 8.015229982413632E+04,      /* I =  1 */
(PID.TID 0000.0001)                 1.362652340208229E+05,      /* I =  2 */
(PID.TID 0000.0001)                 1.701080315742101E+05,      /* I =  3 */
(PID.TID 0000.0001)                 1.942331448101592E+05,      /* I =  4 */
(PID.TID 0000.0001)                 2.133486626971531E+05,      /* I =  5 */
(PID.TID 0000.0001)                 2.292584591272880E+05,      /* I =  6 */
(PID.TID 0000.0001)                 2.428369969078989E+05,      /* I =  7 */
(PID.TID 0000.0001)                 2.545652950875683E+05,      /* I =  8 */
(PID.TID 0000.0001)                 2.647274964828302E+05,      /* I =  9 */
(PID.TID 0000.0001)                 2.734980225206389E+05,      /* I = 10 */
(PID.TID 0000.0001)                 2.809856491525217E+05,      /* I = 11 */
(PID.TID 0000.0001)                 2.872580915202295E+05,      /* I = 12 */
(PID.TID 0000.0001)                 2.923567890694162E+05,      /* I = 13 */
(PID.TID 0000.0001)                 2.963063101754721E+05,      /* I = 14 */
(PID.TID 0000.0001)                 2.991205495886625E+05,      /* I = 15 */
(PID.TID 0000.0001)                 3.008068453676764E+05,      /* I = 16 */
(PID.TID 0000.0001)                 3.013686170436881E+05,      /* I = 17 */
(PID.TID 0000.0001)                 3.008068453676764E+05,      /* I = 18 */
(PID.TID 0000.0001)                 2.991205495886625E+05,      /* I = 19 */
(PID.TID 0000.0001)                 2.963063101754721E+05,      /* I = 20 */
(PID.TID 0000.0001)                 2.923567890694162E+05,      /* I = 21 */
(PID.TID 0000.0001)                 2.872580915202295E+05,      /* I = 22 */
(PID.TID 0000.0001)                 2.809856491525217E+05,      /* I = 23 */
(PID.TID 0000.0001)                 2.734980225206389E+05,      /* I = 24 */
(PID.TID 0000.0001)                 2.647274964828302E+05,      /* I = 25 */
(PID.TID 0000.0001)                 2.545652950875683E+05,      /* I = 26 */
(PID.TID 0000.0001)                 2.428369969078989E+05,      /* I = 27 */
(PID.TID 0000.0001)                 2.292584591272880E+05,      /* I = 28 */
(PID.TID 0000.0001)                 2.133486626971531E+05,      /* I = 29 */
(PID.TID 0000.0001)                 1.942331448101592E+05,      /* I = 30 */
(PID.TID 0000.0001)                 1.701080315742101E+05,      /* I = 31 */
(PID.TID 0000.0001)                 1.362652340208229E+05       /* I = 32 */
(PID.TID 0000.0001)     ;
(PID.TID 0000.0001) dyU =  /* dyU(1,:,1,:) ( m - cartesian, degrees - spherical ) */
(PID.TID 0000.0001)                 8.015229982413632E+04,      /* J =  1 */
(PID.TID 0000.0001)                 1.333130744933864E+05,      /* J =  2 */
(PID.TID 0000.0001)                 1.691744868129062E+05,      /* J =  3 */
(PID.TID 0000.0001)                 1.937548202849060E+05,      /* J =  4 */
(PID.TID 0000.0001)                 2.130490056267208E+05,      /* J =  5 */
(PID.TID 0000.0001)                 2.290479919481738E+05,      /* J =  6 */
(PID.TID 0000.0001)                 2.426774358027004E+05,      /* J =  7 */
(PID.TID 0000.0001)                 2.544372984215561E+05,      /* J =  8 */
(PID.TID 0000.0001)                 2.646201463834826E+05,      /* J =  9 */
(PID.TID 0000.0001)                 2.734046499619031E+05,      /* J = 10 */
(PID.TID 0000.0001)                 2.809019351693761E+05,      /* J = 11 */
(PID.TID 0000.0001)                 2.871811105274442E+05,      /* J = 12 */
(PID.TID 0000.0001)                 2.922844849381675E+05,      /* J = 13 */
(PID.TID 0000.0001)                 2.962371870847826E+05,      /* J = 14 */
(PID.TID 0000.0001)                 2.990534755671296E+05,      /* J = 15 */
(PID.TID 0000.0001)                 3.007409169495504E+05,      /* J = 16 */
(PID.TID 0000.0001)                 3.013031486919771E+05,      /* J = 17 */
(PID.TID 0000.0001)                 3.007409169495504E+05,      /* J = 18 */
(PID.TID 0000.0001)                 2.990534755671296E+05,      /* J = 19 */
(PID.TID 0000.0001)                 2.962371870847826E+05,      /* J = 20 */
(PID.TID 0000.0001)                 2.922844849381675E+05,      /* J = 21 */
(PID.TID 0000.0001)                 2.871811105274442E+05,      /* J = 22 */
(PID.TID 0000.0001)                 2.809019351693761E+05,      /* J = 23 */
(PID.TID 0000.0001)                 2.734046499619031E+05,      /* J = 24 */
(PID.TID 0000.0001)                 2.646201463834826E+05,      /* J = 25 */
(PID.TID 0000.0001)                 2.544372984215561E+05,      /* J = 26 */
(PID.TID 0000.0001)                 2.426774358027004E+05,      /* J = 27 */
(PID.TID 0000.0001)                 2.290479919481738E+05,      /* J = 28 */
(PID.TID 0000.0001)                 2.130490056267208E+05,      /* J = 29 */
(PID.TID 0000.0001)                 1.937548202849060E+05,      /* J = 30 */
(PID.TID 0000.0001)                 1.691744868129062E+05,      /* J = 31 */
(PID.TID 0000.0001)                 1.333130744933864E+05       /* J = 32 */
(PID.TID 0000.0001)     ;
(PID.TID 0000.0001) rA =  /* rA(:,1,:,1) ( m - cartesian, degrees - spherical ) */
(PID.TID 0000.0001)                 1.401900702255611E+10,      /* I =  1 */
(PID.TID 0000.0001)                 2.459906945574446E+10,      /* I =  2 */
(PID.TID 0000.0001)                 3.378518544307869E+10,      /* I =  3 */
(PID.TID 0000.0001)                 4.192037169898667E+10,      /* I =  4 */
(PID.TID 0000.0001)                 4.925938996118163E+10,      /* I =  5 */
(PID.TID 0000.0001)                 5.594154126607553E+10,      /* I =  6 */
(PID.TID 0000.0001)                 6.203683527772524E+10,      /* I =  7 */
(PID.TID 0000.0001)                 6.757541173817516E+10,      /* I =  8 */
(PID.TID 0000.0001)                 7.256353271748119E+10,      /* I =  9 */
(PID.TID 0000.0001)                 7.699293007098555E+10,      /* I = 10 */
(PID.TID 0000.0001)                 8.084683449728902E+10,      /* I = 11 */
(PID.TID 0000.0001)                 8.410423102796223E+10,      /* I = 12 */
(PID.TID 0000.0001)                 8.674306976737517E+10,      /* I = 13 */
(PID.TID 0000.0001)                 8.874277443041928E+10,      /* I = 14 */
(PID.TID 0000.0001)                 9.008620045350865E+10,      /* I = 15 */
(PID.TID 0000.0001)                 9.076111290418457E+10,      /* I = 16 */
(PID.TID 0000.0001)                 9.076111290422060E+10,      /* I = 17 */
(PID.TID 0000.0001)                 9.008620045354469E+10,      /* I = 18 */
(PID.TID 0000.0001)                 8.874277443041928E+10,      /* I = 19 */
(PID.TID 0000.0001)                 8.674306976741121E+10,      /* I = 20 */
(PID.TID 0000.0001)                 8.410423102799828E+10,      /* I = 21 */
(PID.TID 0000.0001)                 8.084683449728902E+10,      /* I = 22 */
(PID.TID 0000.0001)                 7.699293007098555E+10,      /* I = 23 */
(PID.TID 0000.0001)                 7.256353271748119E+10,      /* I = 24 */
(PID.TID 0000.0001)                 6.757541173817516E+10,      /* I = 25 */
(PID.TID 0000.0001)                 6.203683527772524E+10,      /* I = 26 */
(PID.TID 0000.0001)                 5.594154126611157E+10,      /* I = 27 */
(PID.TID 0000.0001)                 4.925938996118163E+10,      /* I = 28 */
(PID.TID 0000.0001)                 4.192037169898667E+10,      /* I = 29 */
(PID.TID 0000.0001)                 3.378518544304265E+10,      /* I = 30 */
(PID.TID 0000.0001)                 2.459906945574446E+10,      /* I = 31 */
(PID.TID 0000.0001)                 1.401900702259215E+10       /* I = 32 */
(PID.TID 0000.0001)     ;
(PID.TID 0000.0001) rA =  /* rA(1,:,1,:) ( m - cartesian, degrees - spherical ) */
(PID.TID 0000.0001)                 1.401900702255611E+10,      /* J =  1 */
(PID.TID 0000.0001)                 2.459906945574446E+10,      /* J =  2 */
(PID.TID 0000.0001)                 3.378518544307869E+10,      /* J =  3 */
(PID.TID 0000.0001)                 4.192037169898667E+10,      /* J =  4 */
(PID.TID 0000.0001)                 4.925938996118163E+10,      /* J =  5 */
(PID.TID 0000.0001)                 5.594154126607553E+10,      /* J =  6 */
(PID.TID 0000.0001)                 6.203683527776127E+10,      /* J =  7 */
(PID.TID 0000.0001)                 6.757541173817516E+10,      /* J =  8 */
(PID.TID 0000.0001)                 7.256353271748119E+10,      /* J =  9 */
(PID.TID 0000.0001)                 7.699293007098555E+10,      /* J = 10 */
(PID.TID 0000.0001)                 8.084683449728902E+10,      /* J = 11 */
(PID.TID 0000.0001)                 8.410423102799828E+10,      /* J = 12 */
(PID.TID 0000.0001)                 8.674306976737517E+10,      /* J = 13 */
(PID.TID 0000.0001)                 8.874277443041928E+10,      /* J = 14 */
(PID.TID 0000.0001)                 9.008620045350865E+10,      /* J = 15 */
(PID.TID 0000.0001)                 9.076111290418457E+10,      /* J = 16 */
(PID.TID 0000.0001)                 9.076111290422060E+10,      /* J = 17 */
(PID.TID 0000.0001)                 9.008620045354469E+10,      /* J = 18 */
(PID.TID 0000.0001)                 8.874277443041928E+10,      /* J = 19 */
(PID.TID 0000.0001)                 8.674306976737517E+10,      /* J = 20 */
(PID.TID 0000.0001)                 8.410423102799828E+10,      /* J = 21 */
(PID.TID 0000.0001)                 8.084683449728902E+10,      /* J = 22 */
(PID.TID 0000.0001)                 7.699293007098555E+10,      /* J = 23 */
(PID.TID 0000.0001)                 7.256353271748119E+10,      /* J = 24 */
(PID.TID 0000.0001)                 6.757541173817516E+10,      /* J = 25 */
(PID.TID 0000.0001)                 6.203683527772524E+10,      /* J = 26 */
(PID.TID 0000.0001)                 5.594154126607553E+10,      /* J = 27 */
(PID.TID 0000.0001)                 4.925938996118163E+10,      /* J = 28 */
(PID.TID 0000.0001)                 4.192037169898667E+10,      /* J = 29 */
(PID.TID 0000.0001)                 3.378518544307869E+10,      /* J = 30 */
(PID.TID 0000.0001)                 2.459906945574446E+10,      /* J = 31 */
(PID.TID 0000.0001)                 1.401900702259215E+10       /* J = 32 */
(PID.TID 0000.0001)     ;
(PID.TID 0000.0001) rAw =  /* rAw(:,1,:,1) ( m - cartesian, degrees - spherical ) */
(PID.TID 0000.0001)                 1.216690346714270E+10,      /* I =  1 */
(PID.TID 0000.0001)                 1.974052138506315E+10,      /* I =  2 */
(PID.TID 0000.0001)                 2.943712825252015E+10,      /* I =  3 */
(PID.TID 0000.0001)                 3.801790263324359E+10,      /* I =  4 */
(PID.TID 0000.0001)                 4.571243814189866E+10,      /* I =  5 */
(PID.TID 0000.0001)                 5.269930713599979E+10,      /* I =  6 */
(PID.TID 0000.0001)                 5.907428494299063E+10,      /* I =  7 */
(PID.TID 0000.0001)                 6.488320895111514E+10,      /* I =  8 */
(PID.TID 0000.0001)                 7.014205907741882E+10,      /* I =  9 */
(PID.TID 0000.0001)                 7.484854821847499E+10,      /* I = 10 */
(PID.TID 0000.0001)                 7.898934631431560E+10,      /* I = 11 */
(PID.TID 0000.0001)                 8.254500894894537E+10,      /* I = 12 */
(PID.TID 0000.0001)                 8.549360686473492E+10,      /* I = 13 */
(PID.TID 0000.0001)                 8.781353403175085E+10,      /* I = 14 */
(PID.TID 0000.0001)                 8.948571540392021E+10,      /* I = 15 */
(PID.TID 0000.0001)                 9.049530583086168E+10,      /* I = 16 */
(PID.TID 0000.0001)                 9.083293515008307E+10,      /* I = 17 */
(PID.TID 0000.0001)                 9.049530583087070E+10,      /* I = 18 */
(PID.TID 0000.0001)                 8.948571540391121E+10,      /* I = 19 */
(PID.TID 0000.0001)                 8.781353403174185E+10,      /* I = 20 */
(PID.TID 0000.0001)                 8.549360686467184E+10,      /* I = 21 */
(PID.TID 0000.0001)                 8.254500894890933E+10,      /* I = 22 */
(PID.TID 0000.0001)                 7.898934631434262E+10,      /* I = 23 */
(PID.TID 0000.0001)                 7.484854821844795E+10,      /* I = 24 */
(PID.TID 0000.0001)                 7.014205907742783E+10,      /* I = 25 */
(PID.TID 0000.0001)                 6.488320895111514E+10,      /* I = 26 */
(PID.TID 0000.0001)                 5.907428494299063E+10,      /* I = 27 */
(PID.TID 0000.0001)                 5.269930713599078E+10,      /* I = 28 */
(PID.TID 0000.0001)                 4.571243814190767E+10,      /* I = 29 */
(PID.TID 0000.0001)                 3.801790263325260E+10,      /* I = 30 */
(PID.TID 0000.0001)                 2.943712825251114E+10,      /* I = 31 */
(PID.TID 0000.0001)                 1.974052138509018E+10       /* I = 32 */
(PID.TID 0000.0001)     ;
(PID.TID 0000.0001) rAw =  /* rAw(1,:,1,:) ( m - cartesian, degrees - spherical ) */
(PID.TID 0000.0001)                 1.216690346714270E+10,      /* J =  1 */
(PID.TID 0000.0001)                 2.390126200743558E+10,      /* J =  2 */
(PID.TID 0000.0001)                 3.341968103208270E+10,      /* J =  3 */
(PID.TID 0000.0001)                 4.168532893152940E+10,      /* J =  4 */
(PID.TID 0000.0001)                 4.909074590409593E+10,      /* J =  5 */
(PID.TID 0000.0001)                 5.581203765722643E+10,      /* J =  6 */
(PID.TID 0000.0001)                 6.193257577506788E+10,      /* J =  7 */
(PID.TID 0000.0001)                 6.748840226738273E+10,      /* J =  8 */
(PID.TID 0000.0001)                 7.248875782324815E+10,      /* J =  9 */
(PID.TID 0000.0001)                 7.692702995909871E+10,      /* J = 10 */
(PID.TID 0000.0001)                 8.078743937057304E+10,      /* J = 11 */
(PID.TID 0000.0001)                 8.404959656062837E+10,      /* J = 12 */
(PID.TID 0000.0001)                 8.669186205742539E+10,      /* J = 13 */
(PID.TID 0000.0001)                 8.869393350723613E+10,      /* J = 14 */
(PID.TID 0000.0001)                 9.003884657168852E+10,      /* J = 15 */
(PID.TID 0000.0001)     2 @  9.071447638299399E+10,             /* J = 16: 17 */
(PID.TID 0000.0001)                 9.003884657168852E+10,      /* J = 18 */
(PID.TID 0000.0001)                 8.869393350723613E+10,      /* J = 19 */
(PID.TID 0000.0001)                 8.669186205742539E+10,      /* J = 20 */
(PID.TID 0000.0001)                 8.404959656062837E+10,      /* J = 21 */
(PID.TID 0000.0001)                 8.078743937057304E+10,      /* J = 22 */
(PID.TID 0000.0001)                 7.692702995909871E+10,      /* J = 23 */
(PID.TID 0000.0001)                 7.248875782324815E+10,      /* J = 24 */
(PID.TID 0000.0001)                 6.748840226738273E+10,      /* J = 25 */
(PID.TID 0000.0001)                 6.193257577506788E+10,      /* J = 26 */
(PID.TID 0000.0001)                 5.581203765722643E+10,      /* J = 27 */
(PID.TID 0000.0001)                 4.909074590409593E+10,      /* J = 28 */
(PID.TID 0000.0001)                 4.168532893152940E+10,      /* J = 29 */
(PID.TID 0000.0001)                 3.341968103208270E+10,      /* J = 30 */
(PID.TID 0000.0001)                 2.390126200743558E+10,      /* J = 31 */
(PID.TID 0000.0001)                 1.216690346714270E+10       /* J = 32 */
(PID.TID 0000.0001)     ;
(PID.TID 0000.0001) rAs =  /* rAs(:,1,:,1) ( m - cartesian, degrees - spherical ) */
(PID.TID 0000.0001)                 1.216690346714270E+10,      /* I =  1 */
(PID.TID 0000.0001)                 2.390126200743558E+10,      /* I =  2 */
(PID.TID 0000.0001)                 3.341968103208270E+10,      /* I =  3 */
(PID.TID 0000.0001)                 4.168532893152940E+10,      /* I =  4 */
(PID.TID 0000.0001)                 4.909074590409593E+10,      /* I =  5 */
(PID.TID 0000.0001)                 5.581203765722643E+10,      /* I =  6 */
(PID.TID 0000.0001)                 6.193257577506788E+10,      /* I =  7 */
(PID.TID 0000.0001)                 6.748840226738273E+10,      /* I =  8 */
(PID.TID 0000.0001)                 7.248875782324815E+10,      /* I =  9 */
(PID.TID 0000.0001)                 7.692702995909871E+10,      /* I = 10 */
(PID.TID 0000.0001)                 8.078743937057304E+10,      /* I = 11 */
(PID.TID 0000.0001)                 8.404959656062837E+10,      /* I = 12 */
(PID.TID 0000.0001)                 8.669186205742539E+10,      /* I = 13 */
(PID.TID 0000.0001)                 8.869393350723613E+10,      /* I = 14 */
(PID.TID 0000.0001)                 9.003884657168852E+10,      /* I = 15 */
(PID.TID 0000.0001)     2 @  9.071447638299399E+10,             /* I = 16: 17 */
(PID.TID 0000.0001)                 9.003884657168852E+10,      /* I = 18 */
(PID.TID 0000.0001)                 8.869393350723613E+10,      /* I = 19 */
(PID.TID 0000.0001)                 8.669186205742539E+10,      /* I = 20 */
(PID.TID 0000.0001)                 8.404959656062837E+10,      /* I = 21 */
(PID.TID 0000.0001)                 8.078743937057304E+10,      /* I = 22 */
(PID.TID 0000.0001)                 7.692702995909871E+10,      /* I = 23 */
(PID.TID 0000.0001)                 7.248875782324815E+10,      /* I = 24 */
(PID.TID 0000.0001)                 6.748840226738273E+10,      /* I = 25 */
(PID.TID 0000.0001)                 6.193257577506788E+10,      /* I = 26 */
(PID.TID 0000.0001)                 5.581203765722643E+10,      /* I = 27 */
(PID.TID 0000.0001)                 4.909074590409593E+10,      /* I = 28 */
(PID.TID 0000.0001)                 4.168532893152940E+10,      /* I = 29 */
(PID.TID 0000.0001)                 3.341968103208270E+10,      /* I = 30 */
(PID.TID 0000.0001)                 2.390126200743558E+10,      /* I = 31 */
(PID.TID 0000.0001)                 1.216690346714270E+10       /* I = 32 */
(PID.TID 0000.0001)     ;
(PID.TID 0000.0001) rAs =  /* rAs(1,:,1,:) ( m - cartesian, degrees - spherical ) */
(PID.TID 0000.0001)                 1.216690346714270E+10,      /* J =  1 */
(PID.TID 0000.0001)                 1.974052138506315E+10,      /* J =  2 */
(PID.TID 0000.0001)                 2.943712825252015E+10,      /* J =  3 */
(PID.TID 0000.0001)                 3.801790263324359E+10,      /* J =  4 */
(PID.TID 0000.0001)                 4.571243814189866E+10,      /* J =  5 */
(PID.TID 0000.0001)                 5.269930713599979E+10,      /* J =  6 */
(PID.TID 0000.0001)                 5.907428494299063E+10,      /* J =  7 */
(PID.TID 0000.0001)                 6.488320895111514E+10,      /* J =  8 */
(PID.TID 0000.0001)                 7.014205907741882E+10,      /* J =  9 */
(PID.TID 0000.0001)                 7.484854821847499E+10,      /* J = 10 */
(PID.TID 0000.0001)                 7.898934631431560E+10,      /* J = 11 */
(PID.TID 0000.0001)                 8.254500894894537E+10,      /* J = 12 */
(PID.TID 0000.0001)                 8.549360686473492E+10,      /* J = 13 */
(PID.TID 0000.0001)                 8.781353403175085E+10,      /* J = 14 */
(PID.TID 0000.0001)                 8.948571540392021E+10,      /* J = 15 */
(PID.TID 0000.0001)                 9.049530583086168E+10,      /* J = 16 */
(PID.TID 0000.0001)                 9.083293515008307E+10,      /* J = 17 */
(PID.TID 0000.0001)                 9.049530583087070E+10,      /* J = 18 */
(PID.TID 0000.0001)                 8.948571540391121E+10,      /* J = 19 */
(PID.TID 0000.0001)                 8.781353403174185E+10,      /* J = 20 */
(PID.TID 0000.0001)                 8.549360686467184E+10,      /* J = 21 */
(PID.TID 0000.0001)                 8.254500894890933E+10,      /* J = 22 */
(PID.TID 0000.0001)                 7.898934631434262E+10,      /* J = 23 */
(PID.TID 0000.0001)                 7.484854821844795E+10,      /* J = 24 */
(PID.TID 0000.0001)                 7.014205907742783E+10,      /* J = 25 */
(PID.TID 0000.0001)                 6.488320895111514E+10,      /* J = 26 */
(PID.TID 0000.0001)                 5.907428494299063E+10,      /* J = 27 */
(PID.TID 0000.0001)                 5.269930713599078E+10,      /* J = 28 */
(PID.TID 0000.0001)                 4.571243814190767E+10,      /* J = 29 */
(PID.TID 0000.0001)                 3.801790263325260E+10,      /* J = 30 */
(PID.TID 0000.0001)                 2.943712825251114E+10,      /* J = 31 */
(PID.TID 0000.0001)                 1.974052138509018E+10       /* J = 32 */
(PID.TID 0000.0001)     ;
(PID.TID 0000.0001) 
(PID.TID 0000.0001)  MDSREADFIELD: opening global file: uVel_cs32x10.d19930110z06.bin
(PID.TID 0000.0001)  MDSREADFIELD: opening global file: vVel_cs32x10.d19930110z06.bin
(PID.TID 0000.0001)  MDSREADFIELD: opening global file: TH_cs32x10.d19930110z06.bin
(PID.TID 0000.0001) // =======================================================
(PID.TID 0000.0001) // Field Initial Temperature at iteration          1
(PID.TID 0000.0001) // CMIN =          2.746382183375700E+02
(PID.TID 0000.0001) // CMAX =          3.089772107467508E+02
(PID.TID 0000.0001) // CINT =          1.271814533673364E+00
(PID.TID 0000.0001) // SYMBOLS (CMIN->CMAX): -abcdefghijklmnopqrstuvwxyz+
(PID.TID 0000.0001) //                  0.0: .
(PID.TID 0000.0001) // RANGE I (Lo:Hi:Step):(   1:  32:   1)
(PID.TID 0000.0001) // RANGE J (Lo:Hi:Step):(  32:   1:  -1)
(PID.TID 0000.0001) // RANGE K (Lo:Hi:Step):(   1:   1:   1)
(PID.TID 0000.0001) // =======================================================
(PID.TID 0000.0001) K =   1
(PID.TID 0000.0001)                I=10      I=20      I=30
(PID.TID 0000.0001) |--J--|123456789|123456789|123456789|12
(PID.TID 0000.0001)     32 kklllllmmmmlkjijhgghgc.--...ffgg
(PID.TID 0000.0001)     31 kkllmmmmmmlkkih.kkkiigecc..ggggh
(PID.TID 0000.0001)     30 llllmlllllkkjihjmlkiihfeefgg.ghi
(PID.TID 0000.0001)     29 llllllklllkjiiikkhjihhgfghhgghii
(PID.TID 0000.0001)     28 mmmlllkkkkkjjj...hiiihggghhg..ii
(PID.TID 0000.0001)     27 nnnmlllkkkkjj.gghgghhihhhhhil..i
(PID.TID 0000.0001)     26 nnnnmlllkkkjiiiiihgggijiiiikno..
(PID.TID 0000.0001)     25 oonnmmllklljjjjkl...ghhihijlnp..
(PID.TID 0000.0001)     24 pooonnmmllmlkklllk.ii..ijjkmoqq.
(PID.TID 0000.0001)     23 ppppooonnnnmllllllkjlmkkkkmoqrs.
(PID.TID 0000.0001)     22 qqqppppooponmmmllmmmoon..nnqr.s.
(PID.TID 0000.0001)     21 qqqqqppprsrqppnnoooopppp.rtt..sq
(PID.TID 0000.0001)     20 rqqqqqqrsuutssqqssqpqsuvvuuw....
(PID.TID 0000.0001)     19 rrrqqrrrrsttssstutts.uvwvwww...u
(PID.TID 0000.0001)     18 rrrrrrrssrsssssssstsrvyxuw..+.ut
(PID.TID 0000.0001)     17 rrrrrrrrrrrrrrrrrrsstvwwuu...uts
(PID.TID 0000.0001)     16 sssrrrrrrrrrrrrrrrsstuvuu.....ts
(PID.TID 0000.0001)     15 sssrrrrrrrqqrqqqrrsstuuuu....tts
(PID.TID 0000.0001)     14 sttsrrrrqqqqqqqqqrrsst.t.t...ttt
(PID.TID 0000.0001)     13 uvtrrrrqqqpppppppqqqs........ttt
(PID.TID 0000.0001)     12 utsrrqqqpppppooopppps.......uuut
(PID.TID 0000.0001)     11 trrrrqqqpppppooopppo........uuuu
(PID.TID 0000.0001)     10 sssrrrqqqpppqppppooo.......vvvvu
(PID.TID 0000.0001)      9 .ssrrrqqqqqqqqqqpoooo......vwwvu
(PID.TID 0000.0001)      8 tttrrrqqqqqqqrrqpnnop.....vvwwut
(PID.TID 0000.0001)      7 tutsrrqqqqppqrqqpnnno.....uuwvut
(PID.TID 0000.0001)      6 sttsrrqqqppppqqponnmmn....tuvvuu
(PID.TID 0000.0001)      5 pqrrrrqqqqppppponmmmmm....sttttt
(PID.TID 0000.0001)      4 noopqqqqrrqppoomlllllmopprrrrrrs
(PID.TID 0000.0001)      3 nnnoopppqqqpoomkiijkkmmmnopppopq
(PID.TID 0000.0001)      2 nnmmnnnnmnooonlhffhjjkkjklnnmmno
(PID.TID 0000.0001)      1 mmmmmmmlkjkmmmjgefghhihhhikkkllm
(PID.TID 0000.0001) // =======================================================
(PID.TID 0000.0001) // END OF FIELD                                          =
(PID.TID 0000.0001) // =======================================================
(PID.TID 0000.0001) 
(PID.TID 0000.0001)  MDSREADFIELD: opening global file: SH_cs32x10.d19930110z06.bin
(PID.TID 0000.0001) // =======================================================
(PID.TID 0000.0001) // Field Initial Salinity at iteration          1
(PID.TID 0000.0001) // CMIN =          1.220483001948592E-03
(PID.TID 0000.0001) // CMAX =          1.838201712222059E-02
(PID.TID 0000.0001) // CINT =          6.356123748248886E-04
(PID.TID 0000.0001) // SYMBOLS (CMIN->CMAX): -abcdefghijklmnopqrstuvwxyz+
(PID.TID 0000.0001) //                  0.0: .
(PID.TID 0000.0001) // RANGE I (Lo:Hi:Step):(   1:  32:   1)
(PID.TID 0000.0001) // RANGE J (Lo:Hi:Step):(  32:   1:  -1)
(PID.TID 0000.0001) // RANGE K (Lo:Hi:Step):(   1:   1:   1)
(PID.TID 0000.0001) // =======================================================
(PID.TID 0000.0001) K =   1
(PID.TID 0000.0001)                I=10      I=20      I=30
(PID.TID 0000.0001) |--J--|123456789|123456789|123456789|12
(PID.TID 0000.0001)     32 kkjjklmmnnnljigfgffgfd.bb...ggff
(PID.TID 0000.0001)     31 jjjkkmmmmlkihgg.geggeeecc..dggff
(PID.TID 0000.0001)     30 kklllllkjiihhgdeddffeeeeedee.gfe
(PID.TID 0000.0001)     29 lllllkjighihheefddfggffffefffeed
(PID.TID 0000.0001)     28 mmmmlkjighhhhf...beghhgfffgf..ed
(PID.TID 0000.0001)     27 nnmmmlkjihged.---abdghgffgggf..d
(PID.TID 0000.0001)     26 oonmmljiihebbcaaaaacdfffffgghi..
(PID.TID 0000.0001)     25 ponmmljjigcbcbaaa...ddeeeefgil..
(PID.TID 0000.0001)     24 poonnmlkjfbbcbaabb.ed..ddddeill.
(PID.TID 0000.0001)     23 pnmmmmmmkebaaaabbbbcccccbccdipr.
(PID.TID 0000.0001)     22 nllmpopokdaaaaaabbbbbcb..ccdj.s.
(PID.TID 0000.0001)     21 mllorrrpidbbbaaaaabbbbbb.bdd..or
(PID.TID 0000.0001)     20 oopprttqjeceddaabaaacccccabh....
(PID.TID 0000.0001)     19 rrssttuurlhhlnlihjhb.cccfcdh...n
(PID.TID 0000.0001)     18 uuuuuttuuurmnppqoquyofdhmj..k.op
(PID.TID 0000.0001)     17 vvuttttttuussuvuuwxyxpnsz+...npt
(PID.TID 0000.0001)     16 vurssrrrsuttuuuuuwwxyvswz.....rv
(PID.TID 0000.0001)     15 vvssrqrrtutttttuuuwxzzzz+....rsu
(PID.TID 0000.0001)     14 vwtqqpprttsstsssrrtwxy.y.x...vvu
(PID.TID 0000.0001)     13 vsqqqprssqrrrqpppqruw........wwu
(PID.TID 0000.0001)     12 srqrssssrqqqqppooprsu.......wvvu
(PID.TID 0000.0001)     11 vtrrrrrssrrqqpoopqqq........yxvu
(PID.TID 0000.0001)     10 vsrqqrqqrrrrqqpppppp.......utstv
(PID.TID 0000.0001)      9 .rqqrssrrrqqqstsqoopp......srqsu
(PID.TID 0000.0001)      8 vtqqssssqqqprttsqonop.....wwtrtv
(PID.TID 0000.0001)      7 vtqpqssspqqqsttrpomno.....xwtstv
(PID.TID 0000.0001)      6 uusrrrrsqqrqrttqonlmmn....xwuttu
(PID.TID 0000.0001)      5 qrstsrrrqqrqqrrpnnllmn....vutsst
(PID.TID 0000.0001)      4 noqsttsqpooonpqnlkllkllnrtrpqpqr
(PID.TID 0000.0001)      3 mnnpqrrqqponlooliiijikllnpmlmnop
(PID.TID 0000.0001)      2 lmmmnnonoooolmligghggkkjjkkkklmn
(PID.TID 0000.0001)      1 klllkkjjjklnmlhfeeffgihhiijjjkln
(PID.TID 0000.0001) // =======================================================
(PID.TID 0000.0001) // END OF FIELD                                          =
(PID.TID 0000.0001) // =======================================================
(PID.TID 0000.0001) 
(PID.TID 0000.0001) Start initial hydrostatic pressure computation
(PID.TID 0000.0001) Pressure is predetermined for buoyancyRelation ATMOSPHERIC
(PID.TID 0000.0001) 
(PID.TID 0000.0001)  write diagnostics summary to file ioUnit:      6
Iter.Nb:         0 ; Time(s):  0.0000000000000E+00
------------------------------------------------------------------------
2D/3D diagnostics: Number of lists:     4
------------------------------------------------------------------------
listId=   1 ; file name: surface
 nFlds, nActive,       freq     &   phase        , nLev                 
   3  |   3  |         0.003000         0.000000 |   1
 levels:   1
 diag#| name   | ipt  | iMate| kLev| count | mate.C|                    
  229 |TCANOPY |    1 |    0 |   1 |     0 |
  137 |OLR     |    2 |    0 |   1 |     0 |
   81 |RSURF   |    3 |    0 |   1 |     0 |
------------------------------------------------------------------------
listId=   2 ; file name: upperfiz
 nFlds, nActive,       freq     &   phase        , nLev                 
   2  |   2  |         0.003000         0.000000 |  20
 levels:   1   2   3   4   5   6   7   8   9  10  11  12  13  14  15  16  17  18  19  20
 diag#| name   | ipt  | iMate| kLev| count | mate.C|                    
  100 |DPPHYS  |    4 |    0 |  20 |     0 |
  312 |FIZPRES |   24 |    0 |  20 |     0 |
------------------------------------------------------------------------
listId=   3 ; file name: uVeltave
 nFlds, nActive,       freq     &   phase        , nLev                 
   2  |   2  |         0.003000         0.000000 |  10
 levels:   1   2   3   4   5   6   7   8   9  10
 diag#| name   | ipt  | iMate| kLev| count | mate.C|                    
   31 |UVEL    |   44 |    0 |  10 |     0 |
   80 |PRESSURE|   54 |    0 |  10 |     0 |
------------------------------------------------------------------------
listId=   4 ; file name: uVelpres
 nFlds, nActive,       freq     &   phase        , nLev                 
   1  |   1  |         0.003000         0.000000 |  10
 levels:   1   2   3   4   5   6   7   8   9  10
 diag#| name   | ipt  | iMate| kLev| count | mate.C|                    
   31 |UVEL    |  -44 |    0 |  10 |     0 |
------------------------------------------------------------------------
Global & Regional Statistics diagnostics: Number of lists:     0
------------------------------------------------------------------------
  In fizhi_init_vars: Beginning of New Experiment 
  Cold Start: Zero out Turb second moments 
  Initialize fizhi arrays that will be on pickup 
(PID.TID 0000.0001) // =======================================================
(PID.TID 0000.0001) // Model current state
(PID.TID 0000.0001) // =======================================================
(PID.TID 0000.0001) 
(PID.TID 0000.0001) // =======================================================
(PID.TID 0000.0001) // Begin MONITOR dynamic field statistics
(PID.TID 0000.0001) // =======================================================
(PID.TID 0000.0001) %MON time_tsnumber                =                     0
(PID.TID 0000.0001) %MON time_secondsf                =   0.0000000000000E+00
(PID.TID 0000.0001) %MON dynstat_eta_max              =   0.0000000000000E+00
(PID.TID 0000.0001) %MON dynstat_eta_min              =   0.0000000000000E+00
(PID.TID 0000.0001) %MON dynstat_eta_mean             =   0.0000000000000E+00
(PID.TID 0000.0001) %MON dynstat_eta_sd               =   0.0000000000000E+00
(PID.TID 0000.0001) %MON dynstat_eta_del2             =   0.0000000000000E+00
(PID.TID 0000.0001) %MON dynstat_uvel_max             =   7.2309779864169E+01
(PID.TID 0000.0001) %MON dynstat_uvel_min             =  -7.8610179924155E+01
(PID.TID 0000.0001) %MON dynstat_uvel_mean            =   1.7725012520689E+00
(PID.TID 0000.0001) %MON dynstat_uvel_sd              =   1.2864399589169E+01
(PID.TID 0000.0001) %MON dynstat_uvel_del2            =   8.8022879050078E-01
(PID.TID 0000.0001) %MON dynstat_vvel_max             =   7.0053180267013E+01
(PID.TID 0000.0001) %MON dynstat_vvel_min             =  -7.4948164374724E+01
(PID.TID 0000.0001) %MON dynstat_vvel_mean            =   1.8710826879327E+00
(PID.TID 0000.0001) %MON dynstat_vvel_sd              =   1.2843083142889E+01
(PID.TID 0000.0001) %MON dynstat_vvel_del2            =   8.6240420373085E-01
(PID.TID 0000.0001) %MON dynstat_wvel_max             =   6.7103012514727E-01
(PID.TID 0000.0001) %MON dynstat_wvel_min             =  -1.2068996368522E+00
(PID.TID 0000.0001) %MON dynstat_wvel_mean            =   6.6037357216902E-05
(PID.TID 0000.0001) %MON dynstat_wvel_sd              =   9.8752000397690E-02
(PID.TID 0000.0001) %MON dynstat_wvel_del2            =   3.1625028961881E-02
(PID.TID 0000.0001) %MON dynstat_theta_max            =   4.5377600020667E+02
(PID.TID 0000.0001) %MON dynstat_theta_min            =   2.2999066476599E+02
(PID.TID 0000.0001) %MON dynstat_theta_mean           =   3.2422651261143E+02
(PID.TID 0000.0001) %MON dynstat_theta_sd             =   3.6159479461641E+01
(PID.TID 0000.0001) %MON dynstat_theta_del2           =   4.1280190103474E-01
(PID.TID 0000.0001) %MON dynstat_salt_max             =   1.8382017122221E-02
(PID.TID 0000.0001) %MON dynstat_salt_min             =   1.2660769781545E-07
(PID.TID 0000.0001) %MON dynstat_salt_mean            =   2.1608744209056E-03
(PID.TID 0000.0001) %MON dynstat_salt_sd              =   3.4385097257703E-03
(PID.TID 0000.0001) %MON dynstat_salt_del2            =   1.3037159919022E-04
(PID.TID 0000.0001) %MON advcfl_uvel_max              =   1.3904210789366E-01
(PID.TID 0000.0001) %MON advcfl_vvel_max              =   1.6706802382079E-01
(PID.TID 0000.0001) %MON advcfl_wvel_max              =   3.6206989105566E-02
(PID.TID 0000.0001) %MON advcfl_W_hf_max              =   3.6206989105566E-02
(PID.TID 0000.0001) %MON pe_b_mean                    =   0.0000000000000E+00
(PID.TID 0000.0001) %MON ke_max                       =   4.6701210586040E+03
(PID.TID 0000.0001) %MON ke_mean                      =   1.6748103970046E+02
(PID.TID 0000.0001) %MON ke_vol                       =   4.9644334392185E+19
(PID.TID 0000.0001) %MON vort_r_min                   =  -1.4007167191606E-04
(PID.TID 0000.0001) %MON vort_r_max                   =   2.0146134745066E-04
(PID.TID 0000.0001) %MON vort_a_mean                  =   7.8414871108873E-08
(PID.TID 0000.0001) %MON vort_a_sd                    =   8.8924299663328E-05
(PID.TID 0000.0001) %MON vort_p_mean                  =   8.0087619342573E-08
(PID.TID 0000.0001) %MON vort_p_sd                    =   9.4328686425866E-05
(PID.TID 0000.0001) %MON surfExpan_theta_mean         =  -2.3158193815775E-16
(PID.TID 0000.0001) %MON surfExpan_salt_mean          =  -4.7974402706294E-21
(PID.TID 0000.0001) %MON surfExpan_Heat_mean          =  -2.3449195503657E-14
(PID.TID 0000.0001) %MON En_Budget_T2PE_mean          =   6.0466282329674E-01
(PID.TID 0000.0001) // =======================================================
(PID.TID 0000.0001) // End MONITOR dynamic field statistics
(PID.TID 0000.0001) // =======================================================

 Climatological Dataset is being used.
 Current model year is used to fill Header Dates
  Updated boundary condition data
  ---------------------------------
  Variable: SST     
  Description: 
 Sea surf temp (K) NASA TM 104606 Vol. 1 lat0/lon0 center of first grid box      
  Resolution: x=          192 y=           32 Undefined value = 
    999999986991104.0     
  Starting latitude =   -90.00000000000000      longitude =
   -180.0000000000000     
  Data valid at these times: 
    1:19921228         0    2:19930104         0    3:19930111         0
    4:19930118         0    5:19930125         0    6:19930201         0
    7:19930208         0    8:19930215         0    9:19930222         0
   10:19930301         0   11:19930308         0   12:19930315         0
   13:19930322         0   14:19930329         0   15:19930405         0
   16:19930412         0   17:19930419         0   18:19930426         0
   19:19930503         0   20:19930510         0   21:19930517         0
   22:19930524         0   23:19930531         0   24:19930607         0
   25:19930614         0   26:19930621         0   27:19930628         0
   28:19930705         0   29:19930712         0   30:19930719         0
   31:19930726         0   32:19930802         0   33:19930809         0
   34:19930816         0   35:19930823         0   36:19930830         0
   37:19930906         0   38:19930913         0   39:19930920         0
   40:19930927         0   41:19931004         0   42:19931011         0
   43:19931018         0   44:19931025         0   45:19931101         0
   46:19931108         0   47:19931115         0   48:19931122         0
   49:19931129         0   50:19931206         0   51:19931213         0
   52:19931220         0   53:19931227         0   54:19940103         0


 Climatological Dataset is being used.
 Current model year to be used to fill Header Dates
  Updated boundary condition data
  ---------------------------------
  Variable: SICE    
  Description: 
 NCEP Sea ice mask 0=no sea ice 1=sea ice lat0/lon0 center of first grid box     
  Resolution: x=          192 y=           32 Undefined value = 
    999999986991104.0     
  Starting latitude =   -90.00000000000000      longitude =
   -180.0000000000000     
  Data valid at these times: 
    1:19921228         0    2:19930104         0    3:19930111         0
    4:19930118         0    5:19930125         0    6:19930201         0
    7:19930208         0    8:19930215         0    9:19930222         0
   10:19930301         0   11:19930308         0   12:19930315         0
   13:19930322         0   14:19930329         0   15:19930405         0
   16:19930412         0   17:19930419         0   18:19930426         0
   19:19930503         0   20:19930510         0   21:19930517         0
   22:19930524         0   23:19930531         0   24:19930607         0
   25:19930614         0   26:19930621         0   27:19930628         0
   28:19930705         0   29:19930712         0   30:19930719         0
   31:19930726         0   32:19930802         0   33:19930809         0
   34:19930816         0   35:19930823         0   36:19930830         0
   37:19930906         0   38:19930913         0   39:19930920         0
   40:19930927         0   41:19931004         0   42:19931011         0
   43:19931018         0   44:19931025         0   45:19931101         0
   46:19931108         0   47:19931115         0   48:19931122         0
   49:19931129         0   50:19931206         0   51:19931213         0
   52:19931220         0   53:19931227         0   54:19940103         0


 Low-Level Clouds are Grouped between levels:           20 and            9
 Mid-Level Clouds are Grouped between levels:            8 and            6


 Warning!
 Turbulent Kinetic Energy has not been initialized.
 Cold-Start will use Level 2.0 Turbulence.


 Top Level Allowed for Convection :            3
           Highest Sub-Cloud Level:           14
           Lowest  Sub-Cloud Level:           16
     Total Number of Random Clouds:            9

 Creating Rand Numb Array in RNDCLOUD, iseed=           0
 IRAS:            1  IRAS0:            0 indx:            0
 Current Date     19930110 Current Time        60500
 cg2d: Sum(rhs),rhsMax =  -1.45519152283669E-11  1.94223744067000E+03
(PID.TID 0000.0001)                    cg2d_init_res =    3.88546461667020E+04
(PID.TID 0000.0001)                       cg2d_iters =    13
(PID.TID 0000.0001)                         cg2d_res =    2.40576210971101E-11
(PID.TID 0000.0001) // =======================================================
(PID.TID 0000.0001) // Begin MONITOR dynamic field statistics
(PID.TID 0000.0001) // =======================================================
(PID.TID 0000.0001) %MON time_tsnumber                =                     1
(PID.TID 0000.0001) %MON time_secondsf                =   3.0000000000000E+02
(PID.TID 0000.0001) %MON dynstat_eta_max              =   4.2403786689502E+02
(PID.TID 0000.0001) %MON dynstat_eta_min              =  -3.7866803358473E+02
(PID.TID 0000.0001) %MON dynstat_eta_mean             =   1.0041098613135E-15
(PID.TID 0000.0001) %MON dynstat_eta_sd               =   4.3120184295242E+01
(PID.TID 0000.0001) %MON dynstat_eta_del2             =   2.0170193960980E+01
(PID.TID 0000.0001) %MON dynstat_uvel_max             =   7.2215931942069E+01
(PID.TID 0000.0001) %MON dynstat_uvel_min             =  -7.8463812010113E+01
(PID.TID 0000.0001) %MON dynstat_uvel_mean            =   1.7593135118499E+00
(PID.TID 0000.0001) %MON dynstat_uvel_sd              =   1.2868007981223E+01
(PID.TID 0000.0001) %MON dynstat_uvel_del2            =   8.8056640949534E-01
(PID.TID 0000.0001) %MON dynstat_vvel_max             =   6.9692222440410E+01
(PID.TID 0000.0001) %MON dynstat_vvel_min             =  -7.4423788661134E+01
(PID.TID 0000.0001) %MON dynstat_vvel_mean            =   1.8840345193110E+00
(PID.TID 0000.0001) %MON dynstat_vvel_sd              =   1.2838121979141E+01
(PID.TID 0000.0001) %MON dynstat_vvel_del2            =   8.6228155617029E-01
(PID.TID 0000.0001) %MON dynstat_wvel_max             =   6.7245969557779E-01
(PID.TID 0000.0001) %MON dynstat_wvel_min             =  -1.2186860731190E+00
(PID.TID 0000.0001) %MON dynstat_wvel_mean            =   3.8892743211032E-04
(PID.TID 0000.0001) %MON dynstat_wvel_sd              =   9.8834324612820E-02
(PID.TID 0000.0001) %MON dynstat_wvel_del2            =   3.1668808647289E-02
(PID.TID 0000.0001) %MON dynstat_theta_max            =   4.5419126135123E+02
(PID.TID 0000.0001) %MON dynstat_theta_min            =   2.3002790789088E+02
(PID.TID 0000.0001) %MON dynstat_theta_mean           =   3.2428898727385E+02
(PID.TID 0000.0001) %MON dynstat_theta_sd             =   3.6265743013163E+01
(PID.TID 0000.0001) %MON dynstat_theta_del2           =   4.1314900072424E-01
(PID.TID 0000.0001) %MON dynstat_salt_max             =   1.8031602309675E-02
(PID.TID 0000.0001) %MON dynstat_salt_min             =   6.8889864014186E-09
(PID.TID 0000.0001) %MON dynstat_salt_mean            =   2.1586883478403E-03
(PID.TID 0000.0001) %MON dynstat_salt_sd              =   3.4283079967675E-03
(PID.TID 0000.0001) %MON dynstat_salt_del2            =   1.2905570692544E-04
(PID.TID 0000.0001) %MON advcfl_uvel_max              =   1.3880397178198E-01
(PID.TID 0000.0001) %MON advcfl_vvel_max              =   1.6861874923184E-01
(PID.TID 0000.0001) %MON advcfl_wvel_max              =   3.6560582193569E-02
(PID.TID 0000.0001) %MON advcfl_W_hf_max              =   3.6560582193569E-02
(PID.TID 0000.0001) %MON pe_b_mean                    =   8.3898206771267E-03
(PID.TID 0000.0001) %MON ke_max                       =   4.6564380830362E+03
(PID.TID 0000.0001) %MON ke_mean                      =   1.6746482751067E+02
(PID.TID 0000.0001) %MON ke_vol                       =   4.9644334392185E+19
(PID.TID 0000.0001) %MON vort_r_min                   =  -1.3997296847575E-04
(PID.TID 0000.0001) %MON vort_r_max                   =   1.9977988367891E-04
(PID.TID 0000.0001) %MON vort_a_mean                  =   7.8414871108993E-08
(PID.TID 0000.0001) %MON vort_a_sd                    =   8.8917729292025E-05
(PID.TID 0000.0001) %MON vort_p_mean                  =   8.0087619342694E-08
(PID.TID 0000.0001) %MON vort_p_sd                    =   9.4309041909205E-05
(PID.TID 0000.0001) %MON surfExpan_theta_mean         =  -3.4385796682846E-02
(PID.TID 0000.0001) %MON surfExpan_salt_mean          =  -3.8103251310253E-06
(PID.TID 0000.0001) %MON surfExpan_Heat_mean          =   3.7768009777405E+00
(PID.TID 0000.0001) %MON En_Budget_T2PE_mean          =  -3.2674325364659E+00
(PID.TID 0000.0001) // =======================================================
(PID.TID 0000.0001) // End MONITOR dynamic field statistics
(PID.TID 0000.0001) // =======================================================
 Current Date     19930110 Current Time        61000
 cg2d: Sum(rhs),rhsMax =   5.82076609134674E-11  3.72073380050615E+03
(PID.TID 0000.0001)                    cg2d_init_res =    4.78273413383006E+04
(PID.TID 0000.0001)                       cg2d_iters =    13
(PID.TID 0000.0001)                         cg2d_res =    2.91086783641268E-11
(PID.TID 0000.0001) // =======================================================
(PID.TID 0000.0001) // Begin MONITOR dynamic field statistics
(PID.TID 0000.0001) // =======================================================
(PID.TID 0000.0001) %MON time_tsnumber                =                     2
(PID.TID 0000.0001) %MON time_secondsf                =   6.0000000000000E+02
(PID.TID 0000.0001) %MON dynstat_eta_max              =   7.9642960681464E+02
(PID.TID 0000.0001) %MON dynstat_eta_min              =  -6.4660304797317E+02
(PID.TID 0000.0001) %MON dynstat_eta_mean             =   4.0164394452539E-16
(PID.TID 0000.0001) %MON dynstat_eta_sd               =   9.4514764191969E+01
(PID.TID 0000.0001) %MON dynstat_eta_del2             =   3.8532490395745E+01
(PID.TID 0000.0001) %MON dynstat_uvel_max             =   7.2129771402453E+01
(PID.TID 0000.0001) %MON dynstat_uvel_min             =  -7.8299266091179E+01
(PID.TID 0000.0001) %MON dynstat_uvel_mean            =   1.7461077553026E+00
(PID.TID 0000.0001) %MON dynstat_uvel_sd              =   1.2869640152714E+01
(PID.TID 0000.0001) %MON dynstat_uvel_del2            =   8.8250849299158E-01
(PID.TID 0000.0001) %MON dynstat_vvel_max             =   6.9315315906456E+01
(PID.TID 0000.0001) %MON dynstat_vvel_min             =  -7.3901039860542E+01
(PID.TID 0000.0001) %MON dynstat_vvel_mean            =   1.8969118850458E+00
(PID.TID 0000.0001) %MON dynstat_vvel_sd              =   1.2832306897580E+01
(PID.TID 0000.0001) %MON dynstat_vvel_del2            =   8.6437779100123E-01
(PID.TID 0000.0001) %MON dynstat_wvel_max             =   7.0509243544000E-01
(PID.TID 0000.0001) %MON dynstat_wvel_min             =  -1.2329069184717E+00
(PID.TID 0000.0001) %MON dynstat_wvel_mean            =   6.1405897561038E-04
(PID.TID 0000.0001) %MON dynstat_wvel_sd              =   9.9398556938905E-02
(PID.TID 0000.0001) %MON dynstat_wvel_del2            =   3.1962641276168E-02
(PID.TID 0000.0001) %MON dynstat_theta_max            =   4.5458881780445E+02
(PID.TID 0000.0001) %MON dynstat_theta_min            =   2.3006711980592E+02
(PID.TID 0000.0001) %MON dynstat_theta_mean           =   3.2435160141359E+02
(PID.TID 0000.0001) %MON dynstat_theta_sd             =   3.6372755037341E+01
(PID.TID 0000.0001) %MON dynstat_theta_del2           =   4.1519653927102E-01
(PID.TID 0000.0001) %MON dynstat_salt_max             =   1.7968046998112E-02
(PID.TID 0000.0001) %MON dynstat_salt_min             =  -6.9930317404628E-08
(PID.TID 0000.0001) %MON dynstat_salt_mean            =   2.1565024868870E-03
(PID.TID 0000.0001) %MON dynstat_salt_sd              =   3.4196843533832E-03
(PID.TID 0000.0001) %MON dynstat_salt_del2            =   1.3071965559761E-04
(PID.TID 0000.0001) %MON advcfl_uvel_max              =   1.3854831005699E-01
(PID.TID 0000.0001) %MON advcfl_vvel_max              =   1.7009536639719E-01
(PID.TID 0000.0001) %MON advcfl_wvel_max              =   3.6987207554152E-02
(PID.TID 0000.0001) %MON advcfl_W_hf_max              =   3.7184409460277E-02
(PID.TID 0000.0001) %MON pe_b_mean                    =   4.0599096979721E-02
(PID.TID 0000.0001) %MON ke_max                       =   4.6394716823350E+03
(PID.TID 0000.0001) %MON ke_mean                      =   1.6741266563982E+02
(PID.TID 0000.0001) %MON ke_vol                       =   4.9644334392185E+19
(PID.TID 0000.0001) %MON vort_r_min                   =  -1.3960424677811E-04
(PID.TID 0000.0001) %MON vort_r_max                   =   1.9741324972797E-04
(PID.TID 0000.0001) %MON vort_a_mean                  =   7.8414871108804E-08
(PID.TID 0000.0001) %MON vort_a_sd                    =   8.8908399590027E-05
(PID.TID 0000.0001) %MON vort_p_mean                  =   8.0087618346437E-08
(PID.TID 0000.0001) %MON vort_p_sd                    =   9.4290633875105E-05
(PID.TID 0000.0001) %MON surfExpan_theta_mean         =  -6.8092333974490E-02
(PID.TID 0000.0001) %MON surfExpan_salt_mean          =  -6.0930231016522E-06
(PID.TID 0000.0001) %MON surfExpan_Heat_mean          =   4.9118417997456E+00
(PID.TID 0000.0001) %MON En_Budget_T2PE_mean          =  -5.8884379553351E+00
(PID.TID 0000.0001) // =======================================================
(PID.TID 0000.0001) // End MONITOR dynamic field statistics
(PID.TID 0000.0001) // =======================================================
 Current Date     19930110 Current Time        61500
 cg2d: Sum(rhs),rhsMax =   0.00000000000000E+00  5.36806433018659E+03
(PID.TID 0000.0001)                    cg2d_init_res =    5.32151473192154E+04
(PID.TID 0000.0001)                       cg2d_iters =    13
(PID.TID 0000.0001)                         cg2d_res =    3.40659060138587E-11
(PID.TID 0000.0001) // =======================================================
(PID.TID 0000.0001) // Begin MONITOR dynamic field statistics
(PID.TID 0000.0001) // =======================================================
(PID.TID 0000.0001) %MON time_tsnumber                =                     3
(PID.TID 0000.0001) %MON time_secondsf                =   9.0000000000000E+02
(PID.TID 0000.0001) %MON dynstat_eta_max              =   1.3008070182963E+03
(PID.TID 0000.0001) %MON dynstat_eta_min              =  -1.0946026456456E+03
(PID.TID 0000.0001) %MON dynstat_eta_mean             =   2.4098636671523E-15
(PID.TID 0000.0001) %MON dynstat_eta_sd               =   1.5232932977632E+02
(PID.TID 0000.0001) %MON dynstat_eta_del2             =   5.3355847965574E+01
(PID.TID 0000.0001) %MON dynstat_uvel_max             =   7.2102461413857E+01
(PID.TID 0000.0001) %MON dynstat_uvel_min             =  -7.8146772234810E+01
(PID.TID 0000.0001) %MON dynstat_uvel_mean            =   1.7333116317469E+00
(PID.TID 0000.0001) %MON dynstat_uvel_sd              =   1.2871953503099E+01
(PID.TID 0000.0001) %MON dynstat_uvel_del2            =   8.8269630463139E-01
(PID.TID 0000.0001) %MON dynstat_vvel_max             =   6.8972078698014E+01
(PID.TID 0000.0001) %MON dynstat_vvel_min             =  -7.3386659931628E+01
(PID.TID 0000.0001) %MON dynstat_vvel_mean            =   1.9092305432398E+00
(PID.TID 0000.0001) %MON dynstat_vvel_sd              =   1.2827790521421E+01
(PID.TID 0000.0001) %MON dynstat_vvel_del2            =   8.6517472535771E-01
(PID.TID 0000.0001) %MON dynstat_wvel_max             =   7.3301702912160E-01
(PID.TID 0000.0001) %MON dynstat_wvel_min             =  -1.2492483494927E+00
(PID.TID 0000.0001) %MON dynstat_wvel_mean            =   7.4407016701620E-04
(PID.TID 0000.0001) %MON dynstat_wvel_sd              =   1.0019976086133E-01
(PID.TID 0000.0001) %MON dynstat_wvel_del2            =   3.2249763226044E-02
(PID.TID 0000.0001) %MON dynstat_theta_max            =   4.5496922765544E+02
(PID.TID 0000.0001) %MON dynstat_theta_min            =   2.3010785984039E+02
(PID.TID 0000.0001) %MON dynstat_theta_mean           =   3.2440578107833E+02
(PID.TID 0000.0001) %MON dynstat_theta_sd             =   3.6487594888103E+01
(PID.TID 0000.0001) %MON dynstat_theta_del2           =   4.1343888474809E-01
(PID.TID 0000.0001) %MON dynstat_salt_max             =   1.7999661246269E-02
(PID.TID 0000.0001) %MON dynstat_salt_min             =  -2.0535451007795E-07
(PID.TID 0000.0001) %MON dynstat_salt_mean            =   2.1574241985834E-03
(PID.TID 0000.0001) %MON dynstat_salt_sd              =   3.4211324866878E-03
(PID.TID 0000.0001) %MON dynstat_salt_del2            =   1.3014178595156E-04
(PID.TID 0000.0001) %MON advcfl_uvel_max              =   1.3853183801864E-01
(PID.TID 0000.0001) %MON advcfl_vvel_max              =   1.7041233382179E-01
(PID.TID 0000.0001) %MON advcfl_wvel_max              =   3.7477450484780E-02
(PID.TID 0000.0001) %MON advcfl_W_hf_max              =   3.7971191823350E-02
(PID.TID 0000.0001) %MON pe_b_mean                    =   1.0569393184269E-01
(PID.TID 0000.0001) %MON ke_max                       =   4.6213931821151E+03
(PID.TID 0000.0001) %MON ke_mean                      =   1.6738590588978E+02
(PID.TID 0000.0001) %MON ke_vol                       =   4.9644334392185E+19
(PID.TID 0000.0001) %MON vort_r_min                   =  -1.3913556033648E-04
(PID.TID 0000.0001) %MON vort_r_max                   =   1.9878883251936E-04
(PID.TID 0000.0001) %MON vort_a_mean                  =   7.8414871108869E-08
(PID.TID 0000.0001) %MON vort_a_sd                    =   8.8899671130552E-05
(PID.TID 0000.0001) %MON vort_p_mean                  =   8.0087616944617E-08
(PID.TID 0000.0001) %MON vort_p_sd                    =   9.4283203842966E-05
(PID.TID 0000.0001) %MON surfExpan_theta_mean         =  -8.3724795627369E-02
(PID.TID 0000.0001) %MON surfExpan_salt_mean          =  -6.9393616182631E-06
(PID.TID 0000.0001) %MON surfExpan_Heat_mean          =   6.2436082318773E+00
(PID.TID 0000.0001) %MON En_Budget_T2PE_mean          =  -7.3259156767265E+00
(PID.TID 0000.0001) // =======================================================
(PID.TID 0000.0001) // End MONITOR dynamic field statistics
(PID.TID 0000.0001) // =======================================================
 Current Date     19930110 Current Time        62000
 cg2d: Sum(rhs),rhsMax =   0.00000000000000E+00  6.52810643297417E+03
(PID.TID 0000.0001)                    cg2d_init_res =    5.54210380902130E+04
(PID.TID 0000.0001)                       cg2d_iters =    13
(PID.TID 0000.0001)                         cg2d_res =    3.57874047495387E-11
(PID.TID 0000.0001) // =======================================================
(PID.TID 0000.0001) // Begin MONITOR dynamic field statistics
(PID.TID 0000.0001) // =======================================================
(PID.TID 0000.0001) %MON time_tsnumber                =                     4
(PID.TID 0000.0001) %MON time_secondsf                =   1.2000000000000E+03
(PID.TID 0000.0001) %MON dynstat_eta_max              =   1.9066163050454E+03
(PID.TID 0000.0001) %MON dynstat_eta_min              =  -1.6250104923280E+03
(PID.TID 0000.0001) %MON dynstat_eta_mean             =   3.2131515562031E-15
(PID.TID 0000.0001) %MON dynstat_eta_sd               =   2.1339324126029E+02
(PID.TID 0000.0001) %MON dynstat_eta_del2             =   6.3785079855273E+01
(PID.TID 0000.0001) %MON dynstat_uvel_max             =   7.2141471839712E+01
(PID.TID 0000.0001) %MON dynstat_uvel_min             =  -7.8005929881084E+01
(PID.TID 0000.0001) %MON dynstat_uvel_mean            =   1.7203224641046E+00
(PID.TID 0000.0001) %MON dynstat_uvel_sd              =   1.2872378480499E+01
(PID.TID 0000.0001) %MON dynstat_uvel_del2            =   8.8172636420096E-01
(PID.TID 0000.0001) %MON dynstat_vvel_max             =   6.8667005616779E+01
(PID.TID 0000.0001) %MON dynstat_vvel_min             =  -7.2925161275679E+01
(PID.TID 0000.0001) %MON dynstat_vvel_mean            =   1.9216301200375E+00
(PID.TID 0000.0001) %MON dynstat_vvel_sd              =   1.2821739659167E+01
(PID.TID 0000.0001) %MON dynstat_vvel_del2            =   8.6498188764408E-01
(PID.TID 0000.0001) %MON dynstat_wvel_max             =   7.8290511651083E-01
(PID.TID 0000.0001) %MON dynstat_wvel_min             =  -1.2636881267794E+00
(PID.TID 0000.0001) %MON dynstat_wvel_mean            =   7.9220152162654E-04
(PID.TID 0000.0001) %MON dynstat_wvel_sd              =   1.0105379064228E-01
(PID.TID 0000.0001) %MON dynstat_wvel_del2            =   3.2536874278584E-02
(PID.TID 0000.0001) %MON dynstat_theta_max            =   4.5533867432390E+02
(PID.TID 0000.0001) %MON dynstat_theta_min            =   2.3014877023725E+02
(PID.TID 0000.0001) %MON dynstat_theta_mean           =   3.2445988704737E+02
(PID.TID 0000.0001) %MON dynstat_theta_sd             =   3.6602963867906E+01
(PID.TID 0000.0001) %MON dynstat_theta_del2           =   4.1157963135726E-01
(PID.TID 0000.0001) %MON dynstat_salt_max             =   1.8031122916984E-02
(PID.TID 0000.0001) %MON dynstat_salt_min             =  -3.2403413320017E-07
(PID.TID 0000.0001) %MON dynstat_salt_mean            =   2.1583383547283E-03
(PID.TID 0000.0001) %MON dynstat_salt_sd              =   3.4225837935762E-03
(PID.TID 0000.0001) %MON dynstat_salt_del2            =   1.2964473732145E-04
(PID.TID 0000.0001) %MON advcfl_uvel_max              =   1.3863649934863E-01
(PID.TID 0000.0001) %MON advcfl_vvel_max              =   1.7015242553781E-01
(PID.TID 0000.0001) %MON advcfl_wvel_max              =   3.7910643803381E-02
(PID.TID 0000.0001) %MON advcfl_W_hf_max              =   3.8713134589923E-02
(PID.TID 0000.0001) %MON pe_b_mean                    =   2.0718019287477E-01
(PID.TID 0000.0001) %MON ke_max                       =   4.6029827220977E+03
(PID.TID 0000.0001) %MON ke_mean                      =   1.6731565645853E+02
(PID.TID 0000.0001) %MON ke_vol                       =   4.9644334392185E+19
(PID.TID 0000.0001) %MON vort_r_min                   =  -1.3859835941380E-04
(PID.TID 0000.0001) %MON vort_r_max                   =   1.9825693036273E-04
(PID.TID 0000.0001) %MON vort_a_mean                  =   7.8414871109037E-08
(PID.TID 0000.0001) %MON vort_a_sd                    =   8.8889120956469E-05
(PID.TID 0000.0001) %MON vort_p_mean                  =   8.0087615752356E-08
(PID.TID 0000.0001) %MON vort_p_sd                    =   9.4274104281614E-05
(PID.TID 0000.0001) %MON surfExpan_theta_mean         =  -8.2947451867584E-02
(PID.TID 0000.0001) %MON surfExpan_salt_mean          =  -6.1481784511175E-06
(PID.TID 0000.0001) %MON surfExpan_Heat_mean          =   7.7860362593921E+00
(PID.TID 0000.0001) %MON En_Budget_T2PE_mean          =  -7.7218167626200E+00
(PID.TID 0000.0001) // =======================================================
(PID.TID 0000.0001) // End MONITOR dynamic field statistics
(PID.TID 0000.0001) // =======================================================
 Current Date     19930110 Current Time        62500
 cg2d: Sum(rhs),rhsMax =   1.16415321826935E-10  7.45608726457874E+03
(PID.TID 0000.0001)                    cg2d_init_res =    5.61688272913141E+04
(PID.TID 0000.0001)                       cg2d_iters =    13
(PID.TID 0000.0001)                         cg2d_res =    3.57037239729588E-11
(PID.TID 0000.0001) // =======================================================
(PID.TID 0000.0001) // Begin MONITOR dynamic field statistics
(PID.TID 0000.0001) // =======================================================
(PID.TID 0000.0001) %MON time_tsnumber                =                     5
(PID.TID 0000.0001) %MON time_secondsf                =   1.5000000000000E+03
(PID.TID 0000.0001) %MON dynstat_eta_max              =   2.4615393628948E+03
(PID.TID 0000.0001) %MON dynstat_eta_min              =  -2.1809075683272E+03
(PID.TID 0000.0001) %MON dynstat_eta_mean             =   1.1246030446711E-14
(PID.TID 0000.0001) %MON dynstat_eta_sd               =   2.7534951389569E+02
(PID.TID 0000.0001) %MON dynstat_eta_del2             =   7.0158414450191E+01
(PID.TID 0000.0001) %MON dynstat_uvel_max             =   7.2236259934865E+01
(PID.TID 0000.0001) %MON dynstat_uvel_min             =  -7.7881488396147E+01
(PID.TID 0000.0001) %MON dynstat_uvel_mean            =   1.7075022785645E+00
(PID.TID 0000.0001) %MON dynstat_uvel_sd              =   1.2871665818530E+01
(PID.TID 0000.0001) %MON dynstat_uvel_del2            =   8.8097778481006E-01
(PID.TID 0000.0001) %MON dynstat_vvel_max             =   6.8395037076071E+01
(PID.TID 0000.0001) %MON dynstat_vvel_min             =  -7.2468176712583E+01
(PID.TID 0000.0001) %MON dynstat_vvel_mean            =   1.9337469479034E+00
(PID.TID 0000.0001) %MON dynstat_vvel_sd              =   1.2814791319450E+01
(PID.TID 0000.0001) %MON dynstat_vvel_del2            =   8.6473518658761E-01
(PID.TID 0000.0001) %MON dynstat_wvel_max             =   7.8476110137856E-01
(PID.TID 0000.0001) %MON dynstat_wvel_min             =  -1.2983091504042E+00
(PID.TID 0000.0001) %MON dynstat_wvel_mean            =   7.7632942786154E-04
(PID.TID 0000.0001) %MON dynstat_wvel_sd              =   1.0192361530762E-01
(PID.TID 0000.0001) %MON dynstat_wvel_del2            =   3.2803663007039E-02
(PID.TID 0000.0001) %MON dynstat_theta_max            =   4.5569783507706E+02
(PID.TID 0000.0001) %MON dynstat_theta_min            =   2.3018881834138E+02
(PID.TID 0000.0001) %MON dynstat_theta_mean           =   3.2451434306031E+02
(PID.TID 0000.0001) %MON dynstat_theta_sd             =   3.6718654855814E+01
(PID.TID 0000.0001) %MON dynstat_theta_del2           =   4.0980876988703E-01
(PID.TID 0000.0001) %MON dynstat_salt_max             =   1.8065469186332E-02
(PID.TID 0000.0001) %MON dynstat_salt_min             =  -8.3027605633559E-06
(PID.TID 0000.0001) %MON dynstat_salt_mean            =   2.1592173759219E-03
(PID.TID 0000.0001) %MON dynstat_salt_sd              =   3.4243083542581E-03
(PID.TID 0000.0001) %MON dynstat_salt_del2            =   1.2922134666127E-04
(PID.TID 0000.0001) %MON advcfl_uvel_max              =   1.3869692727965E-01
(PID.TID 0000.0001) %MON advcfl_vvel_max              =   1.7002206998695E-01
(PID.TID 0000.0001) %MON advcfl_wvel_max              =   3.8949274512126E-02
(PID.TID 0000.0001) %MON advcfl_W_hf_max              =   3.9593933676230E-02
(PID.TID 0000.0001) %MON pe_b_mean                    =   3.4380069947831E-01
(PID.TID 0000.0001) %MON ke_max                       =   4.5857741998834E+03
(PID.TID 0000.0001) %MON ke_mean                      =   1.6721952280570E+02
(PID.TID 0000.0001) %MON ke_vol                       =   4.9644334392185E+19
(PID.TID 0000.0001) %MON vort_r_min                   =  -1.3801935393345E-04
(PID.TID 0000.0001) %MON vort_r_max                   =   1.9846710485906E-04
(PID.TID 0000.0001) %MON vort_a_mean                  =   7.8414871108747E-08
(PID.TID 0000.0001) %MON vort_a_sd                    =   8.8878901652487E-05
(PID.TID 0000.0001) %MON vort_p_mean                  =   8.0087614454705E-08
(PID.TID 0000.0001) %MON vort_p_sd                    =   9.4271989984269E-05
(PID.TID 0000.0001) %MON surfExpan_theta_mean         =  -6.8996491240110E-02
(PID.TID 0000.0001) %MON surfExpan_salt_mean          =  -4.0387004861230E-06
(PID.TID 0000.0001) %MON surfExpan_Heat_mean          =   9.4855159735880E+00
(PID.TID 0000.0001) %MON En_Budget_T2PE_mean          =  -7.2928207289897E+00
(PID.TID 0000.0001) // =======================================================
(PID.TID 0000.0001) // End MONITOR dynamic field statistics
(PID.TID 0000.0001) // =======================================================
 Current Date     19930110 Current Time        63000
 cg2d: Sum(rhs),rhsMax =   0.00000000000000E+00  8.02286118109198E+03
(PID.TID 0000.0001)                    cg2d_init_res =    5.63770861076736E+04
(PID.TID 0000.0001)                       cg2d_iters =    13
(PID.TID 0000.0001)                         cg2d_res =    3.46113845298562E-11
(PID.TID 0000.0001) // =======================================================
(PID.TID 0000.0001) // Begin MONITOR dynamic field statistics
(PID.TID 0000.0001) // =======================================================
(PID.TID 0000.0001) %MON time_tsnumber                =                     6
(PID.TID 0000.0001) %MON time_secondsf                =   1.8000000000000E+03
(PID.TID 0000.0001) %MON dynstat_eta_max              =   2.9196332986806E+03
(PID.TID 0000.0001) %MON dynstat_eta_min              =  -2.7651439404961E+03
(PID.TID 0000.0001) %MON dynstat_eta_mean             =  -8.0328788905078E-15
(PID.TID 0000.0001) %MON dynstat_eta_sd               =   3.3683226818865E+02
(PID.TID 0000.0001) %MON dynstat_eta_del2             =   7.3226952431806E+01
(PID.TID 0000.0001) %MON dynstat_uvel_max             =   7.2363074243418E+01
(PID.TID 0000.0001) %MON dynstat_uvel_min             =  -7.7777027718860E+01
(PID.TID 0000.0001) %MON dynstat_uvel_mean            =   1.6946299426509E+00
(PID.TID 0000.0001) %MON dynstat_uvel_sd              =   1.2868825270591E+01
(PID.TID 0000.0001) %MON dynstat_uvel_del2            =   8.8059241766444E-01
(PID.TID 0000.0001) %MON dynstat_vvel_max             =   6.8145741736487E+01
(PID.TID 0000.0001) %MON dynstat_vvel_min             =  -7.2012541615696E+01
(PID.TID 0000.0001) %MON dynstat_vvel_mean            =   1.9457275269148E+00
(PID.TID 0000.0001) %MON dynstat_vvel_sd              =   1.2806071662185E+01
(PID.TID 0000.0001) %MON dynstat_vvel_del2            =   8.6465886117717E-01
(PID.TID 0000.0001) %MON dynstat_wvel_max             =   7.7951591779435E-01
(PID.TID 0000.0001) %MON dynstat_wvel_min             =  -1.3684966650532E+00
(PID.TID 0000.0001) %MON dynstat_wvel_mean            =   7.1572787574056E-04
(PID.TID 0000.0001) %MON dynstat_wvel_sd              =   1.0273639536136E-01
(PID.TID 0000.0001) %MON dynstat_wvel_del2            =   3.3008405056796E-02
(PID.TID 0000.0001) %MON dynstat_theta_max            =   4.5604701771360E+02
(PID.TID 0000.0001) %MON dynstat_theta_min            =   2.3022877448297E+02
(PID.TID 0000.0001) %MON dynstat_theta_mean           =   3.2456875603590E+02
(PID.TID 0000.0001) %MON dynstat_theta_sd             =   3.6834835142767E+01
(PID.TID 0000.0001) %MON dynstat_theta_del2           =   4.0812842298168E-01
(PID.TID 0000.0001) %MON dynstat_salt_max             =   1.8099689775965E-02
(PID.TID 0000.0001) %MON dynstat_salt_min             =  -1.9981511907081E-05
(PID.TID 0000.0001) %MON dynstat_salt_mean            =   2.1600923043541E-03
(PID.TID 0000.0001) %MON dynstat_salt_sd              =   3.4260398197078E-03
(PID.TID 0000.0001) %MON dynstat_salt_del2            =   1.2883788947649E-04
(PID.TID 0000.0001) %MON advcfl_uvel_max              =   1.3866002073649E-01
(PID.TID 0000.0001) %MON advcfl_vvel_max              =   1.7024291848510E-01
(PID.TID 0000.0001) %MON advcfl_wvel_max              =   4.1054899951595E-02
(PID.TID 0000.0001) %MON advcfl_W_hf_max              =   4.1679283852781E-02
(PID.TID 0000.0001) %MON pe_b_mean                    =   5.1207572485695E-01
(PID.TID 0000.0001) %MON ke_max                       =   4.5706304718025E+03
(PID.TID 0000.0001) %MON ke_mean                      =   1.6707361093233E+02
(PID.TID 0000.0001) %MON ke_vol                       =   4.9644334392185E+19
(PID.TID 0000.0001) %MON vort_r_min                   =  -1.3741800980130E-04
(PID.TID 0000.0001) %MON vort_r_max                   =   1.9827267589271E-04
(PID.TID 0000.0001) %MON vort_a_mean                  =   7.8414871108965E-08
(PID.TID 0000.0001) %MON vort_a_sd                    =   8.8867612134212E-05
(PID.TID 0000.0001) %MON vort_p_mean                  =   8.0087612667986E-08
(PID.TID 0000.0001) %MON vort_p_sd                    =   9.4269793456438E-05
(PID.TID 0000.0001) %MON surfExpan_theta_mean         =  -4.5025068946269E-02
(PID.TID 0000.0001) %MON surfExpan_salt_mean          =  -1.0748957473857E-06
(PID.TID 0000.0001) %MON surfExpan_Heat_mean          =   1.1323966209372E+01
(PID.TID 0000.0001) %MON En_Budget_T2PE_mean          =  -6.2711798715149E+00
(PID.TID 0000.0001) // =======================================================
(PID.TID 0000.0001) // End MONITOR dynamic field statistics
(PID.TID 0000.0001) // =======================================================
 Computing Diagnostic # 229  TCANOPY      Counter:       3   Parms: SM      L1      
 Computing Diagnostic # 137  OLR          Counter:       1   Parms: SM      U1      
 Computing Diagnostic #  81  RSURF        Counter:       6   Parms: SM      M1      
 Computing Diagnostic # 100  DPPHYS       Counter:       7   Parms: SM      ML      
 Computing Diagnostic # 312  FIZPRES      Counter:       6   Parms: SM      ML      
 Computing Diagnostic #  31  UVEL         Counter:       6   Parms: UU   032MR      
           Vector  Mate for  UVEL         Diagnostic #  32  VVEL     not enabled
 Computing Diagnostic #  80  PRESSURE     Counter:       6   Parms: SM      MR      
 Computing Diagnostic #  31  UVEL         Counter:       6   Parms: UU   032MR      
           Vector  Mate for  UVEL         Diagnostic #  32  VVEL     not enabled
  Writing datetime file: NYMD =     19930110 NHMS =        63000
(PID.TID 0000.0001) %CHECKPOINT         6 ckptA
(PID.TID 0000.0001)  Seconds in section "ALL                    [THE_MODEL_MAIN]":
(PID.TID 0000.0001)          User time:   16.56000018119812
(PID.TID 0000.0001)        System time:  0.2399999815970659
(PID.TID 0000.0001)    Wall clock time:   24.20832610130310
(PID.TID 0000.0001)         No. starts:           1
(PID.TID 0000.0001)          No. stops:           1
(PID.TID 0000.0001)  Seconds in section "INITIALISE_FIXED       [THE_MODEL_MAIN]":
(PID.TID 0000.0001)          User time:   3.889999628067017
(PID.TID 0000.0001)        System time:  9.9999997764825821E-003
(PID.TID 0000.0001)    Wall clock time:   4.469182014465332
(PID.TID 0000.0001)         No. starts:           1
(PID.TID 0000.0001)          No. stops:           1
(PID.TID 0000.0001)  Seconds in section "GRIDALT_INITIALISE  [PACKAGES_INIT_F]":
(PID.TID 0000.0001)          User time:  0.0000000000000000E+000
(PID.TID 0000.0001)        System time:  0.0000000000000000E+000
(PID.TID 0000.0001)    Wall clock time:  1.0850429534912109E-003
(PID.TID 0000.0001)         No. starts:           1
(PID.TID 0000.0001)          No. stops:           1
(PID.TID 0000.0001)  Seconds in section "THE_MAIN_LOOP          [THE_MODEL_MAIN]":
(PID.TID 0000.0001)          User time:   12.58000040054321
(PID.TID 0000.0001)        System time:  0.2299999818205833
(PID.TID 0000.0001)    Wall clock time:   16.83543300628662
(PID.TID 0000.0001)         No. starts:           1
(PID.TID 0000.0001)          No. stops:           1
(PID.TID 0000.0001)  Seconds in section "INITIALISE_VARIA    [THE_MAIN_LOOP]":
(PID.TID 0000.0001)          User time:   3.980000019073486
(PID.TID 0000.0001)        System time:  9.9999979138374329E-003
(PID.TID 0000.0001)    Wall clock time:   4.014212846755981
(PID.TID 0000.0001)         No. starts:           1
(PID.TID 0000.0001)          No. stops:           1
(PID.TID 0000.0001)  Seconds in section "GRIDALT_UPDATE  [INITIALISE_VARIA]":
(PID.TID 0000.0001)          User time:  0.0000000000000000E+000
(PID.TID 0000.0001)        System time:  0.0000000000000000E+000
(PID.TID 0000.0001)    Wall clock time:  1.0550022125244141E-003
(PID.TID 0000.0001)         No. starts:           1
(PID.TID 0000.0001)          No. stops:           1
(PID.TID 0000.0001)  Seconds in section "MONITOR             [THE_MAIN_LOOP]":
(PID.TID 0000.0001)          User time:  2.0000457763671875E-002
(PID.TID 0000.0001)        System time:  0.0000000000000000E+000
(PID.TID 0000.0001)    Wall clock time:  1.2917041778564453E-002
(PID.TID 0000.0001)         No. starts:           1
(PID.TID 0000.0001)          No. stops:           1
(PID.TID 0000.0001)  Seconds in section "DO_THE_MODEL_IO     [THE_MAIN_LOOP]":
(PID.TID 0000.0001)          User time:  0.0000000000000000E+000
(PID.TID 0000.0001)        System time:  1.0000001639127731E-002
(PID.TID 0000.0001)    Wall clock time:  0.3975768089294434
(PID.TID 0000.0001)         No. starts:           1
(PID.TID 0000.0001)          No. stops:           1
(PID.TID 0000.0001)  Seconds in section "MAIN LOOP           [THE_MAIN_LOOP]":
(PID.TID 0000.0001)          User time:   8.579999923706055
(PID.TID 0000.0001)        System time:  0.2099999822676182
(PID.TID 0000.0001)    Wall clock time:   12.41055297851563
(PID.TID 0000.0001)         No. starts:           1
(PID.TID 0000.0001)          No. stops:           1
(PID.TID 0000.0001)  Seconds in section "FORWARD_STEP        [THE_MAIN_LOOP]":
(PID.TID 0000.0001)          User time:   8.579999923706055
(PID.TID 0000.0001)        System time:  0.2099999822676182
(PID.TID 0000.0001)    Wall clock time:   12.41030502319336
(PID.TID 0000.0001)         No. starts:           6
(PID.TID 0000.0001)          No. stops:           6
(PID.TID 0000.0001)  Seconds in section "DO_STATEVARS_DIAGS  [FORWARD_STEP]":
(PID.TID 0000.0001)          User time:  1.9999504089355469E-002
(PID.TID 0000.0001)        System time:  0.0000000000000000E+000
(PID.TID 0000.0001)    Wall clock time:  6.2005519866943359E-003
(PID.TID 0000.0001)         No. starts:          12
(PID.TID 0000.0001)          No. stops:          12
(PID.TID 0000.0001)  Seconds in section "EXTERNAL_FIELDS_LOAD[FORWARD_STEP]":
(PID.TID 0000.0001)          User time:  0.0000000000000000E+000
(PID.TID 0000.0001)        System time:  0.0000000000000000E+000
(PID.TID 0000.0001)    Wall clock time:  2.1982192993164063E-004
(PID.TID 0000.0001)         No. starts:           6
(PID.TID 0000.0001)          No. stops:           6
(PID.TID 0000.0001)  Seconds in section "DO_ATMOSPHERIC_PHYS [FORWARD_STEP]":
(PID.TID 0000.0001)          User time:   6.960001945495605
(PID.TID 0000.0001)        System time:  0.1799999959766865
(PID.TID 0000.0001)    Wall clock time:   7.171778440475464
(PID.TID 0000.0001)         No. starts:           6
(PID.TID 0000.0001)          No. stops:           6
(PID.TID 0000.0001)  Seconds in section "FIZHI          [DO_ATMOSPHERIC_PHYS]":
(PID.TID 0000.0001)          User time:   6.960001945495605
(PID.TID 0000.0001)        System time:  0.1799999959766865
(PID.TID 0000.0001)    Wall clock time:   7.171344518661499
(PID.TID 0000.0001)         No. starts:           6
(PID.TID 0000.0001)          No. stops:           6
(PID.TID 0000.0001)  Seconds in section "DO_FIZHI          [FIZHI_WRAPPER]":
(PID.TID 0000.0001)          User time:   4.049998283386230
(PID.TID 0000.0001)        System time:  0.1699999943375587
(PID.TID 0000.0001)    Wall clock time:   4.220357894897461
(PID.TID 0000.0001)         No. starts:           6
(PID.TID 0000.0001)          No. stops:           6
(PID.TID 0000.0001)  Seconds in section "PHYS2DYN          [FIZHI_WRAPPER]":
(PID.TID 0000.0001)          User time:  4.0000915527343750E-002
(PID.TID 0000.0001)        System time:  0.0000000000000000E+000
(PID.TID 0000.0001)    Wall clock time:  2.9988050460815430E-002
(PID.TID 0000.0001)         No. starts:           6
(PID.TID 0000.0001)          No. stops:           6
(PID.TID 0000.0001)  Seconds in section "ATOC              [FIZHI_WRAPPER]":
(PID.TID 0000.0001)          User time:   1.079999923706055
(PID.TID 0000.0001)        System time:  0.0000000000000000E+000
(PID.TID 0000.0001)    Wall clock time:   1.088793992996216
(PID.TID 0000.0001)         No. starts:           6
(PID.TID 0000.0001)          No. stops:           6
(PID.TID 0000.0001)  Seconds in section "EXCHANGES         [FIZHI_WRAPPER]":
(PID.TID 0000.0001)          User time:  3.9999961853027344E-002
(PID.TID 0000.0001)        System time:  0.0000000000000000E+000
(PID.TID 0000.0001)    Wall clock time:  3.6261081695556641E-002
(PID.TID 0000.0001)         No. starts:           6
(PID.TID 0000.0001)          No. stops:           6
(PID.TID 0000.0001)  Seconds in section "DO_OCEANIC_PHYS     [FORWARD_STEP]":
(PID.TID 0000.0001)          User time:  0.0000000000000000E+000
(PID.TID 0000.0001)        System time:  0.0000000000000000E+000
(PID.TID 0000.0001)    Wall clock time:  1.1129379272460938E-003
(PID.TID 0000.0001)         No. starts:           6
(PID.TID 0000.0001)          No. stops:           6
(PID.TID 0000.0001)  Seconds in section "DYNAMICS            [FORWARD_STEP]":
(PID.TID 0000.0001)          User time:  6.9997787475585938E-002
(PID.TID 0000.0001)        System time:  0.0000000000000000E+000
(PID.TID 0000.0001)    Wall clock time:  7.8963041305541992E-002
(PID.TID 0000.0001)         No. starts:           6
(PID.TID 0000.0001)          No. stops:           6
(PID.TID 0000.0001)  Seconds in section "UPDATE_R_STAR      [FORWARD_STEP]":
(PID.TID 0000.0001)          User time:  1.0000228881835938E-002
(PID.TID 0000.0001)        System time:  0.0000000000000000E+000
(PID.TID 0000.0001)    Wall clock time:  6.0791969299316406E-003
(PID.TID 0000.0001)         No. starts:           6
(PID.TID 0000.0001)          No. stops:           6
(PID.TID 0000.0001)  Seconds in section "UPDATE_CG2D        [FORWARD_STEP]":
(PID.TID 0000.0001)          User time:  5.9998512268066406E-002
(PID.TID 0000.0001)        System time:  0.0000000000000000E+000
(PID.TID 0000.0001)    Wall clock time:  5.8953046798706055E-002
(PID.TID 0000.0001)         No. starts:           6
(PID.TID 0000.0001)          No. stops:           6
(PID.TID 0000.0001)  Seconds in section "SOLVE_FOR_PRESSURE  [FORWARD_STEP]":
(PID.TID 0000.0001)          User time:  7.0001602172851563E-002
(PID.TID 0000.0001)        System time:  0.0000000000000000E+000
(PID.TID 0000.0001)    Wall clock time:  6.8283319473266602E-002
(PID.TID 0000.0001)         No. starts:           6
(PID.TID 0000.0001)          No. stops:           6
(PID.TID 0000.0001)  Seconds in section "UV_CORRECTION_STEP  [FORWARD_STEP]":
(PID.TID 0000.0001)          User time:  0.8500013351440430
(PID.TID 0000.0001)        System time:  0.0000000000000000E+000
(PID.TID 0000.0001)    Wall clock time:  0.8548343181610107
(PID.TID 0000.0001)         No. starts:           6
(PID.TID 0000.0001)          No. stops:           6
(PID.TID 0000.0001)  Seconds in section "UPDATE_ETAH        [FORWARD_STEP]":
(PID.TID 0000.0001)          User time:  0.0000000000000000E+000
(PID.TID 0000.0001)        System time:  0.0000000000000000E+000
(PID.TID 0000.0001)    Wall clock time:  3.7121772766113281E-004
(PID.TID 0000.0001)         No. starts:           6
(PID.TID 0000.0001)          No. stops:           6
(PID.TID 0000.0001)  Seconds in section "CALC_R_STAR       [FORWARD_STEP]":
(PID.TID 0000.0001)          User time:  1.9998550415039063E-002
(PID.TID 0000.0001)        System time:  0.0000000000000000E+000
(PID.TID 0000.0001)    Wall clock time:  7.2853565216064453E-003
(PID.TID 0000.0001)         No. starts:           6
(PID.TID 0000.0001)          No. stops:           6
(PID.TID 0000.0001)  Seconds in section "BLOCKING_EXCHANGES  [FORWARD_STEP]":
(PID.TID 0000.0001)          User time:  2.9998779296875000E-002
(PID.TID 0000.0001)        System time:  0.0000000000000000E+000
(PID.TID 0000.0001)    Wall clock time:  4.2827367782592773E-002
(PID.TID 0000.0001)         No. starts:          12
(PID.TID 0000.0001)          No. stops:          12
(PID.TID 0000.0001)  Seconds in section "THERMODYNAMICS      [FORWARD_STEP]":
(PID.TID 0000.0001)          User time:  5.9999465942382813E-002
(PID.TID 0000.0001)        System time:  0.0000000000000000E+000
(PID.TID 0000.0001)    Wall clock time:  7.0372104644775391E-002
(PID.TID 0000.0001)         No. starts:           6
(PID.TID 0000.0001)          No. stops:           6
(PID.TID 0000.0001)  Seconds in section "TS_CORRECTION_STEP  [FORWARD_STEP]":
(PID.TID 0000.0001)          User time:  0.1200008392333984
(PID.TID 0000.0001)        System time:  0.0000000000000000E+000
(PID.TID 0000.0001)    Wall clock time:  0.1124732494354248
(PID.TID 0000.0001)         No. starts:           6
(PID.TID 0000.0001)          No. stops:           6
(PID.TID 0000.0001)  Seconds in section "FIZHI               [FORWARD_STEP]":
(PID.TID 0000.0001)          User time:  0.1500015258789063
(PID.TID 0000.0001)        System time:  0.0000000000000000E+000
(PID.TID 0000.0001)    Wall clock time:  0.1362311840057373
(PID.TID 0000.0001)         No. starts:           6
(PID.TID 0000.0001)          No. stops:           6
(PID.TID 0000.0001)  Seconds in section "PHYS2DYN          [STEP_FIZHI_CORR]":
(PID.TID 0000.0001)          User time:  3.0000686645507813E-002
(PID.TID 0000.0001)        System time:  0.0000000000000000E+000
(PID.TID 0000.0001)    Wall clock time:  3.1279802322387695E-002
(PID.TID 0000.0001)         No. starts:           6
(PID.TID 0000.0001)          No. stops:           6
(PID.TID 0000.0001)  Seconds in section "ATOC              [STEP_FIZHI_CORR]":
(PID.TID 0000.0001)          User time:  2.0000457763671875E-002
(PID.TID 0000.0001)        System time:  0.0000000000000000E+000
(PID.TID 0000.0001)    Wall clock time:  2.6233196258544922E-002
(PID.TID 0000.0001)         No. starts:           6
(PID.TID 0000.0001)          No. stops:           6
(PID.TID 0000.0001)  Seconds in section "CTOA              [STEP_FIZHI_CORR]":
(PID.TID 0000.0001)          User time:  2.9998779296875000E-002
(PID.TID 0000.0001)        System time:  0.0000000000000000E+000
(PID.TID 0000.0001)    Wall clock time:  2.6685953140258789E-002
(PID.TID 0000.0001)         No. starts:           6
(PID.TID 0000.0001)          No. stops:           6
(PID.TID 0000.0001)  Seconds in section "DYN2PHYS          [STEP_FIZHI_CORR]":
(PID.TID 0000.0001)          User time:  4.0000915527343750E-002
(PID.TID 0000.0001)        System time:  0.0000000000000000E+000
(PID.TID 0000.0001)    Wall clock time:  3.5440921783447266E-002
(PID.TID 0000.0001)         No. starts:           6
(PID.TID 0000.0001)          No. stops:           6
(PID.TID 0000.0001)  Seconds in section "DO_STATEVARS_TAVE   [FORWARD_STEP]":
(PID.TID 0000.0001)          User time:  0.0000000000000000E+000
(PID.TID 0000.0001)        System time:  0.0000000000000000E+000
(PID.TID 0000.0001)    Wall clock time:  2.4032592773437500E-004
(PID.TID 0000.0001)         No. starts:           6
(PID.TID 0000.0001)          No. stops:           6
(PID.TID 0000.0001)  Seconds in section "MONITOR             [FORWARD_STEP]":
(PID.TID 0000.0001)          User time:  7.9999923706054688E-002
(PID.TID 0000.0001)        System time:  0.0000000000000000E+000
(PID.TID 0000.0001)    Wall clock time:  8.7801218032836914E-002
(PID.TID 0000.0001)         No. starts:           6
(PID.TID 0000.0001)          No. stops:           6
(PID.TID 0000.0001)  Seconds in section "DO_THE_MODEL_IO     [FORWARD_STEP]":
(PID.TID 0000.0001)          User time:  7.9999923706054688E-002
(PID.TID 0000.0001)        System time:  2.9999986290931702E-002
(PID.TID 0000.0001)    Wall clock time:   3.696861028671265
(PID.TID 0000.0001)         No. starts:           6
(PID.TID 0000.0001)          No. stops:           6
(PID.TID 0000.0001)  Seconds in section "WRITE_CHECKPOINT    [FORWARD_STEP]":
(PID.TID 0000.0001)          User time:  0.0000000000000000E+000
(PID.TID 0000.0001)        System time:  0.0000000000000000E+000
(PID.TID 0000.0001)    Wall clock time:  2.2792816162109375E-004
(PID.TID 0000.0001)         No. starts:           6
(PID.TID 0000.0001)          No. stops:           6
(PID.TID 0000.0001)  Seconds in section "WRITE_CHECKPOINT       [THE_MODEL_MAIN]":
(PID.TID 0000.0001)          User time:  9.0000152587890625E-002
(PID.TID 0000.0001)        System time:  0.0000000000000000E+000
(PID.TID 0000.0001)    Wall clock time:   2.903553962707520
(PID.TID 0000.0001)         No. starts:           1
(PID.TID 0000.0001)          No. stops:           1
(PID.TID 0000.0001) // ======================================================
(PID.TID 0000.0001) // Tile <-> Tile communication statistics
(PID.TID 0000.0001) // ======================================================
(PID.TID 0000.0001) // o Tile number: 000001
(PID.TID 0000.0001) //         No. X exchanges =              0
(PID.TID 0000.0001) //            Max. X spins =              0
(PID.TID 0000.0001) //            Min. X spins =     1000000000
(PID.TID 0000.0001) //          Total. X spins =              0
(PID.TID 0000.0001) //            Avg. X spins =       0.00E+00
(PID.TID 0000.0001) //         No. Y exchanges =              0
(PID.TID 0000.0001) //            Max. Y spins =              0
(PID.TID 0000.0001) //            Min. Y spins =     1000000000
(PID.TID 0000.0001) //          Total. Y spins =              0
(PID.TID 0000.0001) //            Avg. Y spins =       0.00E+00
(PID.TID 0000.0001) // o Thread number: 000001
(PID.TID 0000.0001) //            No. barriers =           5388
(PID.TID 0000.0001) //      Max. barrier spins =              1
(PID.TID 0000.0001) //      Min. barrier spins =              1
(PID.TID 0000.0001) //     Total barrier spins =           5388
(PID.TID 0000.0001) //      Avg. barrier spins =       1.00E+00
