(PID.TID 0000.0001) 
(PID.TID 0000.0001) // ======================================================
(PID.TID 0000.0001) //                      MITgcm UV
(PID.TID 0000.0001) //                      =========
(PID.TID 0000.0001) // ======================================================
(PID.TID 0000.0001) // execution environment starting up...
(PID.TID 0000.0001) 
(PID.TID 0000.0001) // MITgcmUV version:  checkpoint64h
(PID.TID 0000.0001) // Build user:        jmc
(PID.TID 0000.0001) // Build host:        baudelaire
(PID.TID 0000.0001) // Build date:        Thu Jun  6 11:55:38 EDT 2013
(PID.TID 0000.0001) 
(PID.TID 0000.0001) // =======================================================
(PID.TID 0000.0001) // Execution Environment parameter file "eedata"
(PID.TID 0000.0001) // =======================================================
(PID.TID 0000.0001) ># Example "eedata" file
(PID.TID 0000.0001) ># Lines beginning "#" are comments
(PID.TID 0000.0001) ># nTx - No. threads per process in X
(PID.TID 0000.0001) ># nTy - No. threads per process in Y
(PID.TID 0000.0001) > &EEPARMS
(PID.TID 0000.0001) > nTx=1,
(PID.TID 0000.0001) > nTy=1,
(PID.TID 0000.0001) > /
(PID.TID 0000.0001) ># Note: Some systems use & as the
(PID.TID 0000.0001) ># namelist terminator. Other systems
(PID.TID 0000.0001) ># use a / character (as shown here).
(PID.TID 0000.0001) 
(PID.TID 0000.0001) // =======================================================
(PID.TID 0000.0001) // Computational Grid Specification ( see files "SIZE.h" )
(PID.TID 0000.0001) //                                  ( and "eedata"       )
(PID.TID 0000.0001) // =======================================================
(PID.TID 0000.0001)      nPx =    1 ; /* No. processes in X */
(PID.TID 0000.0001)      nPy =    1 ; /* No. processes in Y */
(PID.TID 0000.0001)      nSx =    2 ; /* No. tiles in X per process */
(PID.TID 0000.0001)      nSy =    2 ; /* No. tiles in Y per process */
(PID.TID 0000.0001)      sNx =   64 ; /* Tile size in X */
(PID.TID 0000.0001)      sNy =   32 ; /* Tile size in Y */
(PID.TID 0000.0001)      OLx =    4 ; /* Tile overlap distance in X */
(PID.TID 0000.0001)      OLy =    4 ; /* Tile overlap distance in Y */
(PID.TID 0000.0001)      nTx =    1 ; /* No. threads in X per process */
(PID.TID 0000.0001)      nTy =    1 ; /* No. threads in Y per process */
(PID.TID 0000.0001)       Nr =   15 ; /* No. levels in the vertical   */
(PID.TID 0000.0001)       Nx =  128 ; /* Total domain size in X ( = nPx*nSx*sNx ) */
(PID.TID 0000.0001)       Ny =   64 ; /* Total domain size in Y ( = nPy*nSy*sNy ) */
(PID.TID 0000.0001)   nTiles =    4 ; /* Total no. tiles per process ( = nSx*nSy ) */
(PID.TID 0000.0001)   nProcs =    1 ; /* Total no. processes ( = nPx*nPy ) */
(PID.TID 0000.0001) nThreads =    1 ; /* Total no. threads per process ( = nTx*nTy ) */
(PID.TID 0000.0001) usingMPI =    F ; /* Flag used to control whether MPI is in use */
(PID.TID 0000.0001)                   /*  note: To execute a program with MPI calls */
(PID.TID 0000.0001)                   /*  it must be launched appropriately e.g     */
(PID.TID 0000.0001)                   /*  "mpirun -np 64 ......"                    */
(PID.TID 0000.0001) useCoupler=    F ;/* Flag used to control communications with   */
(PID.TID 0000.0001)                   /*  other model components, through a coupler */
(PID.TID 0000.0001) debugMode =    F ; /* print debug msg. (sequence of S/R calls)  */
(PID.TID 0000.0001) printMapIncludesZeros=    F ; /* print zeros in Std.Output maps */
(PID.TID 0000.0001) maxLengthPrt1D=   65 /* maxLength of 1D array printed to StdOut */
(PID.TID 0000.0001) 
(PID.TID 0000.0001) // ======================================================
(PID.TID 0000.0001) // Mapping of tiles to threads
(PID.TID 0000.0001) // ======================================================
(PID.TID 0000.0001) // -o- Thread   1, tiles (   1:   2,   1:   2)
(PID.TID 0000.0001) 
(PID.TID 0000.0001) // ======================================================
(PID.TID 0000.0001) // Tile <-> Tile connectvity table
(PID.TID 0000.0001) // ======================================================
(PID.TID 0000.0001) // Tile number: 000001 (process no. = 000000)
(PID.TID 0000.0001) //        WEST: Tile = 000002, Process = 000000, Comm = put
(PID.TID 0000.0001) //                bi = 000002, bj = 000001
(PID.TID 0000.0001) //        EAST: Tile = 000002, Process = 000000, Comm = put
(PID.TID 0000.0001) //                bi = 000002, bj = 000001
(PID.TID 0000.0001) //       SOUTH: Tile = 000003, Process = 000000, Comm = put
(PID.TID 0000.0001) //                bi = 000001, bj = 000002
(PID.TID 0000.0001) //       NORTH: Tile = 000003, Process = 000000, Comm = put
(PID.TID 0000.0001) //                bi = 000001, bj = 000002
(PID.TID 0000.0001) // Tile number: 000002 (process no. = 000000)
(PID.TID 0000.0001) //        WEST: Tile = 000001, Process = 000000, Comm = put
(PID.TID 0000.0001) //                bi = 000001, bj = 000001
(PID.TID 0000.0001) //        EAST: Tile = 000001, Process = 000000, Comm = put
(PID.TID 0000.0001) //                bi = 000001, bj = 000001
(PID.TID 0000.0001) //       SOUTH: Tile = 000004, Process = 000000, Comm = put
(PID.TID 0000.0001) //                bi = 000002, bj = 000002
(PID.TID 0000.0001) //       NORTH: Tile = 000004, Process = 000000, Comm = put
(PID.TID 0000.0001) //                bi = 000002, bj = 000002
(PID.TID 0000.0001) // Tile number: 000003 (process no. = 000000)
(PID.TID 0000.0001) //        WEST: Tile = 000004, Process = 000000, Comm = put
(PID.TID 0000.0001) //                bi = 000002, bj = 000002
(PID.TID 0000.0001) //        EAST: Tile = 000004, Process = 000000, Comm = put
(PID.TID 0000.0001) //                bi = 000002, bj = 000002
(PID.TID 0000.0001) //       SOUTH: Tile = 000001, Process = 000000, Comm = put
(PID.TID 0000.0001) //                bi = 000001, bj = 000001
(PID.TID 0000.0001) //       NORTH: Tile = 000001, Process = 000000, Comm = put
(PID.TID 0000.0001) //                bi = 000001, bj = 000001
(PID.TID 0000.0001) // Tile number: 000004 (process no. = 000000)
(PID.TID 0000.0001) //        WEST: Tile = 000003, Process = 000000, Comm = put
(PID.TID 0000.0001) //                bi = 000001, bj = 000002
(PID.TID 0000.0001) //        EAST: Tile = 000003, Process = 000000, Comm = put
(PID.TID 0000.0001) //                bi = 000001, bj = 000002
(PID.TID 0000.0001) //       SOUTH: Tile = 000002, Process = 000000, Comm = put
(PID.TID 0000.0001) //                bi = 000002, bj = 000001
(PID.TID 0000.0001) //       NORTH: Tile = 000002, Process = 000000, Comm = put
(PID.TID 0000.0001) //                bi = 000002, bj = 000001
(PID.TID 0000.0001) 
(PID.TID 0000.0001)  INI_PARMS: opening model parameter file "data"
(PID.TID 0000.0001)  OPEN_COPY_DATA_FILE: opening file data
(PID.TID 0000.0001) // =======================================================
(PID.TID 0000.0001) // Parameter file "data"
(PID.TID 0000.0001) // =======================================================
(PID.TID 0000.0001) ># ====================
(PID.TID 0000.0001) ># | Model parameters |
(PID.TID 0000.0001) ># ====================
(PID.TID 0000.0001) >#
(PID.TID 0000.0001) ># Continuous equation parameters
(PID.TID 0000.0001) > &PARM01
(PID.TID 0000.0001) > tRef=15*20.,
(PID.TID 0000.0001) > sRef=15*35.,
(PID.TID 0000.0001) > viscA4=0.,
(PID.TID 0000.0001) > viscAh=5.E5,
(PID.TID 0000.0001) > diffKhT=0.E3,
(PID.TID 0000.0001) > diffKhS=0.E3,
(PID.TID 0000.0001) > viscAr=1.E-3,
(PID.TID 0000.0001) > diffKrT=5.E-5,
(PID.TID 0000.0001) > diffKrS=5.E-5,
(PID.TID 0000.0001) > ivdc_kappa=10.,
(PID.TID 0000.0001) > implicitDiffusion=.TRUE.,
(PID.TID 0000.0001) > implicitViscosity=.TRUE.,
(PID.TID 0000.0001) > allowFreezing=.TRUE.,
(PID.TID 0000.0001) > useCDscheme=.TRUE.,
(PID.TID 0000.0001) > gravity=9.81,
(PID.TID 0000.0001) > rhoConst=1035.,
(PID.TID 0000.0001) > eosType='POLY3',
(PID.TID 0000.0001) > rigidLid=.FALSE.,
(PID.TID 0000.0001) > implicitFreeSurface=.TRUE.,
(PID.TID 0000.0001) > exactConserv=.TRUE.,
(PID.TID 0000.0001) > /
(PID.TID 0000.0001) >
(PID.TID 0000.0001) ># Elliptic solver parameters
(PID.TID 0000.0001) > &PARM02
(PID.TID 0000.0001) > cg2dMaxIters=1000,
(PID.TID 0000.0001) > cg2dTargetResidual=1.E-13,
(PID.TID 0000.0001) > /
(PID.TID 0000.0001) >
(PID.TID 0000.0001) ># Time stepping parameters
(PID.TID 0000.0001) > &PARM03
(PID.TID 0000.0001) > nIter0 = 4269600,
(PID.TID 0000.0001) > nTimeSteps = 4,
(PID.TID 0000.0001) ># 100 years starting from a spinup of 5900 years:
(PID.TID 0000.0001) >#startTime = 1.835136E+11,
(PID.TID 0000.0001) >#endTime   = 1.866240E+11,
(PID.TID 0000.0001) > deltaTMom = 900.,
(PID.TID 0000.0001) > deltaTFreeSurf= 43200.,
(PID.TID 0000.0001) > deltaTtracer=   43200.,
(PID.TID 0000.0001) > deltaTClock =   43200.,
(PID.TID 0000.0001) > tauCD =     321428.,
(PID.TID 0000.0001) > abEps = 0.1,
(PID.TID 0000.0001) >#cAdjFreq = -1,
(PID.TID 0000.0001) > pChkptFreq=3110400000.,
(PID.TID 0000.0001) > chkptFreq= 3110400000.,
(PID.TID 0000.0001) > dumpFreq=  31104000.,
(PID.TID 0000.0001) > taveFreq=  31104000.,
(PID.TID 0000.0001) > monitorFreq= 1.,
(PID.TID 0000.0001) > tauThetaClimRelax = 5184000.,
(PID.TID 0000.0001) > tauSaltClimRelax =  7776000.,
(PID.TID 0000.0001) > periodicExternalForcing=.TRUE.,
(PID.TID 0000.0001) > externForcingPeriod=2592000.,
(PID.TID 0000.0001) > externForcingCycle=31104000.,
(PID.TID 0000.0001) > /
(PID.TID 0000.0001) >
(PID.TID 0000.0001) ># Gridding parameters
(PID.TID 0000.0001) > &PARM04
(PID.TID 0000.0001) > usingSphericalPolarGrid=.TRUE.,
(PID.TID 0000.0001) > delR=  50.,  70., 100., 140., 190.,
(PID.TID 0000.0001) >       240., 290., 340., 390., 440.,
(PID.TID 0000.0001) >       490., 540., 590., 640., 690.,
(PID.TID 0000.0001) > ygOrigin=-90.,
(PID.TID 0000.0001) > dxSpacing=2.8125,
(PID.TID 0000.0001) > dySpacing=2.8125,
(PID.TID 0000.0001) > /
(PID.TID 0000.0001) >
(PID.TID 0000.0001) ># Input datasets
(PID.TID 0000.0001) > &PARM05
(PID.TID 0000.0001) > bathyFile=      'depth_g77.bin',
(PID.TID 0000.0001) > hydrogThetaFile='lev_clim_temp.bin',
(PID.TID 0000.0001) > hydrogSaltFile= 'lev_clim_salt.bin',
(PID.TID 0000.0001) > zonalWindFile=  'tren_taux.bin',
(PID.TID 0000.0001) > meridWindFile=  'tren_tauy.bin',
(PID.TID 0000.0001) > thetaClimFile=  'lev_monthly_temp.bin',
(PID.TID 0000.0001) > saltClimFile=   'lev_monthly_salt.bin',
(PID.TID 0000.0001) > surfQFile=      'shi_qnet.bin',
(PID.TID 0000.0001) > EmPmRFile=      'shi_empmr_year.bin',
(PID.TID 0000.0001) > the_run_name=   'Testing CFC code',
(PID.TID 0000.0001) > /
(PID.TID 0000.0001) 
(PID.TID 0000.0001)  INI_PARMS ; starts to read PARM01
(PID.TID 0000.0001)  INI_PARMS ; read PARM01 : OK
(PID.TID 0000.0001)  INI_PARMS ; starts to read PARM02
(PID.TID 0000.0001)  INI_PARMS ; read PARM02 : OK
(PID.TID 0000.0001)  INI_PARMS ; starts to read PARM03
(PID.TID 0000.0001)  INI_PARMS ; read PARM03 : OK
(PID.TID 0000.0001)  INI_PARMS ; starts to read PARM04
(PID.TID 0000.0001)  INI_PARMS ; read PARM04 : OK
(PID.TID 0000.0001)  INI_PARMS ; starts to read PARM05
(PID.TID 0000.0001)  INI_PARMS ; read PARM05 : OK
(PID.TID 0000.0001)  INI_PARMS: finished reading file "data"
(PID.TID 0000.0001)  PACKAGES_BOOT: opening data.pkg
(PID.TID 0000.0001)  OPEN_COPY_DATA_FILE: opening file data.pkg
(PID.TID 0000.0001) // =======================================================
(PID.TID 0000.0001) // Parameter file "data.pkg"
(PID.TID 0000.0001) // =======================================================
(PID.TID 0000.0001) ># Packages
(PID.TID 0000.0001) > &PACKAGES
(PID.TID 0000.0001) > useGMRedi      =.TRUE.,
(PID.TID 0000.0001) > usePTRACERS    =.TRUE.,
(PID.TID 0000.0001) > useGCHEM       =.TRUE.,
(PID.TID 0000.0001) > useDiagnostics =.TRUE.,
(PID.TID 0000.0001) > useLayers      =.TRUE.,
(PID.TID 0000.0001) >#useMNC         =.TRUE.,
(PID.TID 0000.0001) > /
(PID.TID 0000.0001) >
(PID.TID 0000.0001) 
(PID.TID 0000.0001)  PACKAGES_BOOT: finished reading data.pkg
(PID.TID 0000.0001)  GM_READPARMS: opening data.gmredi
(PID.TID 0000.0001)  OPEN_COPY_DATA_FILE: opening file data.gmredi
(PID.TID 0000.0001) // =======================================================
(PID.TID 0000.0001) // Parameter file "data.gmredi"
(PID.TID 0000.0001) // =======================================================
(PID.TID 0000.0001) ># from MOM
(PID.TID 0000.0001) ># GM_background_K: 	isopycnal diffusion coefficien
(PID.TID 0000.0001) ># GM_maxSlope:		max slope of isopycnals
(PID.TID 0000.0001) ># GM_Scrit:		transition for scaling diffusion coefficient
(PID.TID 0000.0001) ># GM_Sd:		half width scaling for diffusion coefficient
(PID.TID 0000.0001) ># real background diff:	horizontal diffusion
(PID.TID 0000.0001) >
(PID.TID 0000.0001) ># ifdef GM_VISBECK_VARIABLE_K, include following in GM_PARM01
(PID.TID 0000.0001) ># GM_Visbeck_alpha   = 0.,
(PID.TID 0000.0001) ># GM_Visbeck_length  = 2.e+5,
(PID.TID 0000.0001) ># GM_Visbeck_depth   = 1.e+3,
(PID.TID 0000.0001) ># GM_Visbeck_maxval_K= 2.5e+3,
(PID.TID 0000.0001) >
(PID.TID 0000.0001) > &GM_PARM01
(PID.TID 0000.0001) >  GM_background_K    = 1.e+3,
(PID.TID 0000.0001) >  GM_taper_scheme    = 'gkw91',
(PID.TID 0000.0001) >  GM_maxSlope        = 1.e-2,
(PID.TID 0000.0001) >  GM_Kmin_horiz      = 100.,
(PID.TID 0000.0001) >  GM_Scrit           = 4.e-3,
(PID.TID 0000.0001) >  GM_Sd              = 1.e-3,
(PID.TID 0000.0001) > /
(PID.TID 0000.0001) >
(PID.TID 0000.0001) >
(PID.TID 0000.0001) 
(PID.TID 0000.0001)  GM_READPARMS: finished reading data.gmredi
(PID.TID 0000.0001)  PTRACERS_READPARMS: opening data.ptracers
(PID.TID 0000.0001)  OPEN_COPY_DATA_FILE: opening file data.ptracers
(PID.TID 0000.0001) // =======================================================
(PID.TID 0000.0001) // Parameter file "data.ptracers"
(PID.TID 0000.0001) // =======================================================
(PID.TID 0000.0001) > &PTRACERS_PARM01
(PID.TID 0000.0001) > PTRACERS_numInUse=2,
(PID.TID 0000.0001) > PTRACERS_Iter0= 4248000,
(PID.TID 0000.0001) >#
(PID.TID 0000.0001) ># The following option is now obsolete:
(PID.TID 0000.0001) >#  PTRACERS_write_mnc=.TRUE.,
(PID.TID 0000.0001) >#
(PID.TID 0000.0001) ># tracer 1 - dic
(PID.TID 0000.0001) > PTRACERS_names(1)='cfc11',
(PID.TID 0000.0001) > PTRACERS_long_names(1)='CFC11',
(PID.TID 0000.0001) > PTRACERS_units(1)='mol/m^3',
(PID.TID 0000.0001) > PTRACERS_advScheme(1)=77,
(PID.TID 0000.0001) > PTRACERS_diffKh(1)=0.E3,
(PID.TID 0000.0001) > PTRACERS_diffKr(1)=5.E-5,
(PID.TID 0000.0001) > PTRACERS_useGMRedi(1)=.TRUE. ,
(PID.TID 0000.0001) > PTRACERS_useKPP(1)=.FALSE. ,
(PID.TID 0000.0001) > PTRACERS_initialFile(1)=' ',
(PID.TID 0000.0001) ># tracer 2 - alk
(PID.TID 0000.0001) > PTRACERS_names(2)='cfc12',
(PID.TID 0000.0001) > PTRACERS_units(2)='mol/m^3',
(PID.TID 0000.0001) > PTRACERS_advScheme(2)=77,
(PID.TID 0000.0001) > PTRACERS_diffKh(2)=0.E3,
(PID.TID 0000.0001) > PTRACERS_diffKr(2)=5.E-5,
(PID.TID 0000.0001) > PTRACERS_useGMRedi(2)=.TRUE. ,
(PID.TID 0000.0001) > PTRACERS_useKPP(2)=.FALSE. ,
(PID.TID 0000.0001) > PTRACERS_initialFile(2)=' ',
(PID.TID 0000.0001) > /
(PID.TID 0000.0001) 
(PID.TID 0000.0001)  PTRACERS_READPARMS: finished reading data.ptracers
(PID.TID 0000.0001)  GCHEM_READPARMS: opening data.gchem
(PID.TID 0000.0001)  OPEN_COPY_DATA_FILE: opening file data.gchem
(PID.TID 0000.0001) // =======================================================
(PID.TID 0000.0001) // Parameter file "data.gchem"
(PID.TID 0000.0001) // =======================================================
(PID.TID 0000.0001) > &GCHEM_PARM01
(PID.TID 0000.0001) >  useCFC=.TRUE.,
(PID.TID 0000.0001) >  nsubtime=1,
(PID.TID 0000.0001) > /
(PID.TID 0000.0001) 
(PID.TID 0000.0001)  GCHEM_READPARMS: finished reading data.gchem
(PID.TID 0000.0001)  CFC_READPARMS: opening data.cfc
(PID.TID 0000.0001)  OPEN_COPY_DATA_FILE: opening file data.cfc
(PID.TID 0000.0001) // =======================================================
(PID.TID 0000.0001) // Parameter file "data.cfc"
(PID.TID 0000.0001) // =======================================================
(PID.TID 0000.0001) > &CFC_FORCING
(PID.TID 0000.0001) >  CFC_iceFile='fice.bin',
(PID.TID 0000.0001) >  CFC_windFile='tren_speed.bin',
(PID.TID 0000.0001) > /
(PID.TID 0000.0001) 
(PID.TID 0000.0001)  CFC_READPARMS: finished reading data.cfc
(PID.TID 0000.0001)  DIAGNOSTICS_READPARMS: opening data.diagnostics
(PID.TID 0000.0001)  OPEN_COPY_DATA_FILE: opening file data.diagnostics
(PID.TID 0000.0001) // =======================================================
(PID.TID 0000.0001) // Parameter file "data.diagnostics"
(PID.TID 0000.0001) // =======================================================
(PID.TID 0000.0001) ># Diagnostic Package Choices
(PID.TID 0000.0001) >#--------------------
(PID.TID 0000.0001) >#  dumpAtLast (logical): always write output at the end of simulation (default=F)
(PID.TID 0000.0001) >#  diag_mnc   (logical): write to NetCDF files (default=useMNC)
(PID.TID 0000.0001) >#--for each output-stream:
(PID.TID 0000.0001) >#  fileName(n) : prefix of the output file name (max 80c long) for outp.stream n
(PID.TID 0000.0001) >#  frequency(n):< 0 : write snap-shot output every |frequency| seconds
(PID.TID 0000.0001) >#               > 0 : write time-average output every frequency seconds
(PID.TID 0000.0001) >#  timePhase(n)     : write at time = timePhase + multiple of |frequency|
(PID.TID 0000.0001) >#    averagingFreq  : frequency (in s) for periodic averaging interval
(PID.TID 0000.0001) >#    averagingPhase : phase     (in s) for periodic averaging interval
(PID.TID 0000.0001) >#    repeatCycle    : number of averaging intervals in 1 cycle
(PID.TID 0000.0001) >#  levels(:,n) : list of levels to write to file (Notes: declared as REAL)
(PID.TID 0000.0001) >#                when this entry is missing, select all common levels of this list
(PID.TID 0000.0001) >#  fields(:,n) : list of selected diagnostics fields (8.c) in outp.stream n
(PID.TID 0000.0001) >#                (see "available_diagnostics.log" file for the full list of diags)
(PID.TID 0000.0001) >#  missing_value(n) : missing value for real-type fields in output file "n"
(PID.TID 0000.0001) >#  fileFlags(n)     : specific code (8c string) for output file "n"
(PID.TID 0000.0001) >#--------------------
(PID.TID 0000.0001) > &DIAGNOSTICS_LIST
(PID.TID 0000.0001) >  dumpAtLast   = .TRUE.,
(PID.TID 0000.0001) ># diag_mnc     = .FALSE.,
(PID.TID 0000.0001) >#--
(PID.TID 0000.0001) >
(PID.TID 0000.0001) >  fields(1:4,1)  = 'LaUH1TH ','LaVH1TH ','LaUH2RHO','LaVH2RHO',
(PID.TID 0000.0001) >   filename(1) = 'DiagOcnLAYERS',
(PID.TID 0000.0001) >  frequency(1) = 31104000.,
(PID.TID 0000.0001) > /
(PID.TID 0000.0001) >
(PID.TID 0000.0001) >#--------------------
(PID.TID 0000.0001) ># Parameter for Diagnostics of per level statistics:
(PID.TID 0000.0001) >#--------------------
(PID.TID 0000.0001) >#  diagSt_mnc (logical): write stat-diags to NetCDF files (default=diag_mnc)
(PID.TID 0000.0001) >#  diagSt_regMaskFile : file containing the region-mask to read-in
(PID.TID 0000.0001) >#  nSetRegMskFile   : number of region-mask sets within the region-mask file
(PID.TID 0000.0001) >#  set_regMask(i)   : region-mask set-index that identifies the region "i"
(PID.TID 0000.0001) >#  val_regMask(i)   : region "i" identifier value in the region mask
(PID.TID 0000.0001) >#--for each output-stream:
(PID.TID 0000.0001) >#  stat_fName(n) : prefix of the output file name (max 80c long) for outp.stream n
(PID.TID 0000.0001) >#  stat_freq(n):< 0 : write snap-shot output every |stat_freq| seconds
(PID.TID 0000.0001) >#               > 0 : write time-average output every stat_freq seconds
(PID.TID 0000.0001) >#  stat_phase(n)    : write at time = stat_phase + multiple of |stat_freq|
(PID.TID 0000.0001) >#  stat_region(:,n) : list of "regions" (default: 1 region only=global)
(PID.TID 0000.0001) >#  stat_fields(:,n) : list of selected diagnostics fields (8.c) in outp.stream n
(PID.TID 0000.0001) >#                (see "available_diagnostics.log" file for the full list of diags)
(PID.TID 0000.0001) >#--------------------
(PID.TID 0000.0001) > &DIAG_STATIS_PARMS
(PID.TID 0000.0001) > stat_fields(1:5,1)  = 'ETAN    ','DETADT2 ','momKE   ',
(PID.TID 0000.0001) >                       'TRAC01  ','TRAC02  ',
(PID.TID 0000.0001) >  stat_fName(1) = 'dynStDiag',
(PID.TID 0000.0001) >   stat_freq(1) = 31104000.,
(PID.TID 0000.0001) ># stat_phase(1) = 0.,
(PID.TID 0000.0001) > /
(PID.TID 0000.0001) >
(PID.TID 0000.0001) 
(PID.TID 0000.0001) S/R DIAGNOSTICS_READPARMS, read namelist "diagnostics_list": start
(PID.TID 0000.0001) S/R DIAGNOSTICS_READPARMS, read namelist "diagnostics_list": OK
(PID.TID 0000.0001) S/R DIAGNOSTICS_READPARMS, read namelist "DIAG_STATIS_PARMS": start
(PID.TID 0000.0001) S/R DIAGNOSTICS_READPARMS, read namelist "DIAG_STATIS_PARMS": OK
(PID.TID 0000.0001)  DIAGNOSTICS_READPARMS: global parameter summary:
(PID.TID 0000.0001)  dumpAtLast = /* always write time-ave diags at the end */
(PID.TID 0000.0001)                   T
(PID.TID 0000.0001)     ;
(PID.TID 0000.0001)  diag_mnc =   /* write NetCDF output files */
(PID.TID 0000.0001)                   F
(PID.TID 0000.0001)     ;
(PID.TID 0000.0001)  useMissingValue = /* put MissingValue where mask = 0 */
(PID.TID 0000.0001)                   F
(PID.TID 0000.0001)     ;
(PID.TID 0000.0001)  diagCG_maxIters = /* max number of iters in diag_cg2d */
(PID.TID 0000.0001)                    1000
(PID.TID 0000.0001)     ;
(PID.TID 0000.0001)  diagCG_resTarget = /* residual target for diag_cg2d */
(PID.TID 0000.0001)                 1.000000000000000E-13
(PID.TID 0000.0001)     ;
(PID.TID 0000.0001) -----------------------------------------------------
(PID.TID 0000.0001)  DIAGNOSTICS_READPARMS: active diagnostics summary:
(PID.TID 0000.0001) -----------------------------------------------------
(PID.TID 0000.0001) Creating Output Stream: DiagOcnLAYERS
(PID.TID 0000.0001) Output Frequency:   31104000.000000 ; Phase:           0.000000
(PID.TID 0000.0001)  Averaging Freq.:   31104000.000000 , Phase:           0.000000 , Cycle:   1
(PID.TID 0000.0001)  missing value: -9.990000000000E+02
(PID.TID 0000.0001)  Levels:    will be set later
(PID.TID 0000.0001)  Fields:    LaUH1TH  LaVH1TH  LaUH2RHO LaVH2RHO
(PID.TID 0000.0001) -----------------------------------------------------
(PID.TID 0000.0001)  DIAGNOSTICS_READPARMS: statistics diags. summary:
(PID.TID 0000.0001) Creating Stats. Output Stream: dynStDiag
(PID.TID 0000.0001) Output Frequency:   31104000.000000 ; Phase:           0.000000
(PID.TID 0000.0001)  Regions:   0
(PID.TID 0000.0001)  Fields:    ETAN     DETADT2  momKE    TRAC01   TRAC02
(PID.TID 0000.0001) -----------------------------------------------------
(PID.TID 0000.0001) 
(PID.TID 0000.0001) LAYERS_READPARMS: opening data.layers
(PID.TID 0000.0001)  OPEN_COPY_DATA_FILE: opening file data.layers
(PID.TID 0000.0001) // =======================================================
(PID.TID 0000.0001) // Parameter file "data.layers"
(PID.TID 0000.0001) // =======================================================
(PID.TID 0000.0001) > &LAYERS_PARM01
(PID.TID 0000.0001) > layers_taveFreq=0.,
(PID.TID 0000.0001) > layers_diagFreq=0.,
(PID.TID 0000.0001) > layers_name(1) ='TH',
(PID.TID 0000.0001) > layers_bolus(1)=.FALSE.,
(PID.TID 0000.0001) > layers_bounds(1:41,1)= -5.,
(PID.TID 0000.0001) >                     -4., -3., -2., -1.,  0.,  1.,  2.,  3.,  4.,  5.,
(PID.TID 0000.0001) >                      6.,  7.,  8.,  9., 10., 11., 12., 13., 14., 15.,
(PID.TID 0000.0001) >                     16., 17., 18., 19., 20., 21., 22., 23., 24., 25.,
(PID.TID 0000.0001) >                     26., 27., 28., 29., 30., 31., 32., 33., 34., 35.,
(PID.TID 0000.0001) >
(PID.TID 0000.0001) > layers_name(2) = 'RHO',
(PID.TID 0000.0001) > layers_bolus(2)=.TRUE.,
(PID.TID 0000.0001) > layers_bounds(1:41,2) =
(PID.TID 0000.0001) >       1017.0, 1017.2, 1017.5, 1017.8, 1018.0, 1018.2, 1018.5, 1018.8, 1019.0,
(PID.TID 0000.0001) >       1019.2, 1019.5, 1019.8, 1020.0, 1020.2, 1020.5, 1020.8, 1021.0, 1021.2,
(PID.TID 0000.0001) >       1021.5, 1021.8, 1022.0, 1022.2, 1022.5, 1022.8, 1023.0, 1023.2, 1023.5,
(PID.TID 0000.0001) >       1023.8, 1024.0, 1024.2, 1024.5, 1024.8, 1025.0, 1025.2, 1025.5, 1025.8,
(PID.TID 0000.0001) >       1026.0, 1026.2, 1026.5, 1026.8, 1027.0,
(PID.TID 0000.0001) > /
(PID.TID 0000.0001) 
(PID.TID 0000.0001) LAYERS_READPARMS: finished reading data.layers
(PID.TID 0000.0001) SET_PARMS: done
(PID.TID 0000.0001) Enter INI_VERTICAL_GRID: setInterFDr=    T ; setCenterDr=    F
(PID.TID 0000.0001) %MON XC_max                       =   3.5859375000000E+02
(PID.TID 0000.0001) %MON XC_min                       =   1.4062500000000E+00
(PID.TID 0000.0001) %MON XC_mean                      =   1.8000000000000E+02
(PID.TID 0000.0001) %MON XC_sd                        =   1.0391987692599E+02
(PID.TID 0000.0001) %MON XG_max                       =   3.5718750000000E+02
(PID.TID 0000.0001) %MON XG_min                       =   0.0000000000000E+00
(PID.TID 0000.0001) %MON XG_mean                      =   1.7859375000000E+02
(PID.TID 0000.0001) %MON XG_sd                        =   1.0391987692599E+02
(PID.TID 0000.0001) %MON DXC_max                      =   3.1259246843155E+05
(PID.TID 0000.0001) %MON DXC_min                      =   7.6737143816223E+03
(PID.TID 0000.0001) %MON DXC_mean                     =   1.9908248704234E+05
(PID.TID 0000.0001) %MON DXC_sd                       =   9.6190602240067E+04
(PID.TID 0000.0001) %MON DXF_max                      =   3.1259246843155E+05
(PID.TID 0000.0001) %MON DXF_min                      =   7.6737143816223E+03
(PID.TID 0000.0001) %MON DXF_mean                     =   1.9908248704234E+05
(PID.TID 0000.0001) %MON DXF_sd                       =   9.6190602240067E+04
(PID.TID 0000.0001) %MON DXG_max                      =   3.1268664380261E+05
(PID.TID 0000.0001) %MON DXG_min                      =   0.0000000000000E+00
(PID.TID 0000.0001) %MON DXG_mean                     =   1.9902252711933E+05
(PID.TID 0000.0001) %MON DXG_sd                       =   9.6314600686012E+04
(PID.TID 0000.0001) %MON DXV_max                      =   3.1268664380261E+05
(PID.TID 0000.0001) %MON DXV_min                      =   0.0000000000000E+00
(PID.TID 0000.0001) %MON DXV_mean                     =   1.9902252711933E+05
(PID.TID 0000.0001) %MON DXV_sd                       =   9.6314600686012E+04
(PID.TID 0000.0001) %MON YC_max                       =   8.8593750000000E+01
(PID.TID 0000.0001) %MON YC_min                       =  -8.8593750000000E+01
(PID.TID 0000.0001) %MON YC_mean                      =   0.0000000000000E+00
(PID.TID 0000.0001) %MON YC_sd                        =   5.1955180880375E+01
(PID.TID 0000.0001) %MON YG_max                       =   8.7187500000000E+01
(PID.TID 0000.0001) %MON YG_min                       =  -9.0000000000000E+01
(PID.TID 0000.0001) %MON YG_mean                      =  -1.4062500000000E+00
(PID.TID 0000.0001) %MON YG_sd                        =   5.1955180880375E+01
(PID.TID 0000.0001) %MON DYC_max                      =   3.1268664380261E+05
(PID.TID 0000.0001) %MON DYC_min                      =   3.1268664380261E+05
(PID.TID 0000.0001) %MON DYC_mean                     =   3.1268664380260E+05
(PID.TID 0000.0001) %MON DYC_sd                       =   4.3655745685101E-09
(PID.TID 0000.0001) %MON DYF_max                      =   3.1268664380261E+05
(PID.TID 0000.0001) %MON DYF_min                      =   3.1268664380261E+05
(PID.TID 0000.0001) %MON DYF_mean                     =   3.1268664380260E+05
(PID.TID 0000.0001) %MON DYF_sd                       =   4.3655745685101E-09
(PID.TID 0000.0001) %MON DYG_max                      =   3.1268664380261E+05
(PID.TID 0000.0001) %MON DYG_min                      =   3.1268664380261E+05
(PID.TID 0000.0001) %MON DYG_mean                     =   3.1268664380260E+05
(PID.TID 0000.0001) %MON DYG_sd                       =   4.3655745685101E-09
(PID.TID 0000.0001) %MON DYU_max                      =   3.1268664380261E+05
(PID.TID 0000.0001) %MON DYU_min                      =   3.1268664380261E+05
(PID.TID 0000.0001) %MON DYU_mean                     =   3.1268664380260E+05
(PID.TID 0000.0001) %MON DYU_sd                       =   4.3655745685101E-09
(PID.TID 0000.0001) %MON RA_max                       =   9.7733676797555E+10
(PID.TID 0000.0001) %MON RA_min                       =   2.3992270990190E+09
(PID.TID 0000.0001) %MON RA_mean                      =   6.2244185031956E+10
(PID.TID 0000.0001) %MON RA_sd                        =   3.0074496923945E+10
(PID.TID 0000.0001) %MON RAW_max                      =   9.7733676797555E+10
(PID.TID 0000.0001) %MON RAW_min                      =   2.3992270990190E+09
(PID.TID 0000.0001) %MON RAW_mean                     =   6.2244185031956E+10
(PID.TID 0000.0001) %MON RAW_sd                       =   3.0074496923945E+10
(PID.TID 0000.0001) %MON RAS_max                      =   9.7763121221868E+10
(PID.TID 0000.0001) %MON RAS_min                      =   0.0000000000000E+00
(PID.TID 0000.0001) %MON RAS_mean                     =   6.2225438247155E+10
(PID.TID 0000.0001) %MON RAS_sd                       =   3.0113265689232E+10
(PID.TID 0000.0001) %MON RAZ_max                      =   9.7763121221868E+10
(PID.TID 0000.0001) %MON RAZ_min                      =   0.0000000000000E+00
(PID.TID 0000.0001) %MON RAZ_mean                     =   6.2225438247155E+10
(PID.TID 0000.0001) %MON RAZ_sd                       =   3.0113265689232E+10
(PID.TID 0000.0001) %MON AngleCS_max                  =   1.0000000000000E+00
(PID.TID 0000.0001) %MON AngleCS_min                  =   1.0000000000000E+00
(PID.TID 0000.0001) %MON AngleCS_mean                 =   1.0000000000000E+00
(PID.TID 0000.0001) %MON AngleCS_sd                   =   0.0000000000000E+00
(PID.TID 0000.0001) %MON AngleSN_max                  =   0.0000000000000E+00
(PID.TID 0000.0001) %MON AngleSN_min                  =   0.0000000000000E+00
(PID.TID 0000.0001) %MON AngleSN_mean                 =   0.0000000000000E+00
(PID.TID 0000.0001) %MON AngleSN_sd                   =   0.0000000000000E+00
(PID.TID 0000.0001)  MDS_READ_FIELD: opening global file: depth_g77.bin
(PID.TID 0000.0001) // =======================================================
(PID.TID 0000.0001) // Field Model R_low (ini_masks_etc)
(PID.TID 0000.0001) // CMIN =         -5.200000000000000E+03
(PID.TID 0000.0001) // CMAX =         -5.000000000000000E+01
(PID.TID 0000.0001) // CINT =          1.907407407407407E+02
(PID.TID 0000.0001) // SYMBOLS (CMIN->CMAX): -abcdefghijklmnopqrstuvwxyz+
(PID.TID 0000.0001) //                  0.0: .
(PID.TID 0000.0001) // RANGE I (Lo:Hi:Step):(    -3:   132:     1)
(PID.TID 0000.0001) // RANGE J (Lo:Hi:Step):(    68:    -3:    -1)
(PID.TID 0000.0001) // RANGE K (Lo:Hi:Step):(   1:   1:   1)
(PID.TID 0000.0001) // =======================================================
(PID.TID 0000.0001) K =   1
(PID.TID 0000.0001) //                I=6       I=16      I=26      I=36      I=46      I=56      I=66      I=68      I=78      I=88      I=98      I=108     I=118     I=128
(PID.TID 0000.0001) // |--J--|321012345|789012345|789012345|789012345|789012345|789012345|789012345|781234567|901234567|901234567|901234567|901234567|901234567|901234567|9012
(PID.TID 0000.0001) //     68 ................................................................................................................................................
(PID.TID 0000.0001) //     67 ................................................................................................................................................
(PID.TID 0000.0001) //     66 ................................................................................................................................................
(PID.TID 0000.0001) //     65 ................................................................................................................................................
(PID.TID 0000.0001) //     64 ................................................................................................................................................
(PID.TID 0000.0001) //     63 ................................................................................................................................................
(PID.TID 0000.0001) //     62 ................................................................................................................................................
(PID.TID 0000.0001) //     61 +zvoovxyyy...+zzzzz+++++...............................................................................................................++zvoovxy
(PID.TID 0000.0001) //     60 +yvmmorw.....+++++zzzzz+.........................................................................................+....................zz+yvmmorw
(PID.TID 0000.0001) //     59 ojjjmmooty++zzzzzzzzzz+.........................................................................................+xwwwyz..............+ztojjjmmoo
(PID.TID 0000.0001) //     58 troommmorxzz+++zzzzz++.............................................................................................wttyz............+yvttroommmo
(PID.TID 0000.0001) //     57 vrmmmmmrv............................................................................................................xxz............xwvvvrmmmmmr
(PID.TID 0000.0001) //     56 vrjjrvyz..............................................................................................................zy........yyzxx..zvrjjrvyz
(PID.TID 0000.0001) //     55 ywrrvy..............................................................++......++.......................................+yvv.....vrrtxyyzyyywrrvy..
(PID.TID 0000.0001) //     54 xzz++............................................................vtt++++.vtt++++......................................yommv..vmmrvtoortwxzz++...
(PID.TID 0000.0001) //     53 y...++.................................................++++...wvtjggmrz+tjggmrz+++....xojmt...........................+tmjjmmmmrtoootwyxy...++..
(PID.TID 0000.0001) //     52 ....++................................................+zyyy...rrojjrmjjtojjrmjjt+.yvrjjjjjjr............................wtjjjjmrommmtvtt....++..
(PID.TID 0000.0001) //     51 .......................................................zvvx..ggjjmotvoomjmotvoomjdddddgggjjjrz..........................+yrjjjjjmmjjmmry........
(PID.TID 0000.0001) //     50 y+.....................................................+vvxyd--ggdd-----gdd-------ddddddgggjmox..........................+yrogggjmmggggty+......
(PID.TID 0000.0001) //     49 gj+....................................................+vvmd----g-------g--------------ddddgjomx..........................+wrgggjmojggddgj+.....
(PID.TID 0000.0001) //     48 vxx.....................................................vd------g-------g--------------ddgggjmmv.....................+xrrxwgdggjjoomjggjvxx.....
(PID.TID 0000.0001) //     47 v......................................................m------d-gd------gd-------------ddddggjjt...................ywgd--dggdddgrrojgddgv.......
(PID.TID 0000.0001) //     46 w.....................................................xd-----gd-jdgd----jdgd-----------dd---dddm..................rgddg-----dggmttvogdjjw.......
(PID.TID 0000.0001) //     45 m.....................................................m-----gd--gjjjjj--gjjjjj-------------ddddgt................tgddddg-ggggjoooojddgomm.......
(PID.TID 0000.0001) //     44 .................................................+.wttg----gj----jgggg---jgggg---dd-------ddddggjw..............zj--ggdd--dgjomjjoj-djmm........
(PID.TID 0000.0001) //     43 ................................................+zxmjrg----------dddggdd-dddggdd--d----ddddggddggmx............+wg--dd----djmmgddjd-djow........
(PID.TID 0000.0001) //     42 ...............................................+zyomjjrmd-----------djjj----djjjjdgd----dddddddgggj............wwd-------ddjmgd---d-gmx.........
(PID.TID 0000.0001) //     41 .........................tt.....................mgjjggrgddjddd----d---gg--d---ggtjjggd----ddddggggjm++.......vwwwv-------dgmjd------go..........
(PID.TID 0000.0001) //     40 .........................roo.................yytdd--gdmogggjjgd--jomd-gj-jomd-gjgdgovd-------ddggggjmm.......xxx.xvj-----dgmgd--ddddgt..........
(PID.TID 0000.0001) //     39 ........................xjjjr.....vrr.......vovtd---ddgogjgddggggmjjjmmmgmjjjmmmg--gmd--------dgggjjmmt......oortw.tttg-ddgmgd--ddgjjr..........
(PID.TID 0000.0001) //     38 .......................rmjggjt...rmmo+.....xrov.m--dddgogddddgggddgddddjddgddddjg----------dd-ddgggjmjmmov.....ytmmggttdddjjjdd---dtjr..........
(PID.TID 0000.0001) //     37 ....................zvvtjggggt..+jjjrx+....vmmy.t--ddgmmg--ddjmmg-d-d--dg-d-d--ddd-------dddddddggggjjmmjjjo...toovttwxjdddjjgd----ddo..........
(PID.TID 0000.0001) //     36 ......................tjmgdddrw.+jjjrxz....vty...--gmommmgdddmgor------gr------ggmgg--d---dddddddgggjmmjjggjm+.ww......rjdddgjgd----gm..........
(PID.TID 0000.0001) //     35 ......................dgjmgggmrv+jgjoxz....ww....--mjjorrommjgdjmj---d--mj---d--dgmgdddd-dddddddggggggjjjjjjjtx.........zyggddgjjgggmdjx........
(PID.TID 0000.0001) //     34 rrrrrtz..............rdddjmjgmrmgggjjw........zyxojjggmgggjmjjdgdjd--d--djd--d---djodddddddddddddgggggjjjjjmtrmr..........ymgggjmjggjddgrrrrrtz.
(PID.TID 0000.0001) //     33 dddddgr.............tddggggmjjogdddjjj.........zxxojgjmgggjoojdddmg--dd-dmg--dd--ddmjdgdddddgddddgggggjjjmmtrmmy...........+jgggjmjjdddddddddgr.
(PID.TID 0000.0001) //     32 gdddggo............rgddgddgjjjjddddgddm.........xx..+ttttrrrojggggo--dd-ggo--dd----dgddddddddddddddgggjjjjjtror..............oogdddgggjjgdddggo.
(PID.TID 0000.0001) //     31 jgddgdgy..........vgddgwrjgjmrg--ddgdddr........xxz.....y.xvtomjjdd---ddjdd---dd-jdddddddddddddddddggjjjjgggjjj................tg----dgmjgddgdgy
(PID.TID 0000.0001) //     30 jgdgd-dm..........vggjjovmgjmwd---dgddddmy...+xxxxy++....oo.vtjjgddg--ddgddg--dddjgddddddgjdddddddggjjjgggggggg................zd---dgjmjgdgd-dm
(PID.TID 0000.0001) //     29 jggd--dgy.........wjmmmjmyomjm---ddgdddddgjmooxxxx++++.+..vtvxrrgddjjjjggddjjjjggjmg-dgddgrgddgggggjmmjggggggddr...............yd---dgjmjggd--dg
(PID.TID 0000.0001) //     36 ......................tjmgdddrw.+jjjrxz....vty...--gmommmgdddmgor------gr------ggmgg--d---dddddddgggjmmjjggjm+.ww......rjdddgjgd----gm..........
(PID.TID 0000.0001) //     35 ......................dgjmgggmrv+jgjoxz....ww....--mjjorrommjgdjmj---d--mj---d--dgmgdddd-dddddddggggggjjjjjjjtx.........zyggddgjjgggmdjx........
(PID.TID 0000.0001) //     34 rrrrrtz..............rdddjmjgmrmgggjjw........zyxojjggmgggjmjjdgdjd--d--djd--d---djodddddddddddddgggggjjjjjmtrmr..........ymgggjmjggjddgrrrrrtz.
(PID.TID 0000.0001) //     33 dddddgr.............tddggggmjjogdddjjj.........zxxojgjmgggjoojdddmg--dd-dmg--dd--ddmjdgdddddgddddgggggjjjmmtrmmy...........+jgggjmjjdddddddddgr.
(PID.TID 0000.0001) //     32 gdddggo............rgddgddgjjjjddddgddm.........xx..+ttttrrrojggggo--dd-ggo--dd----dgddddddddddddddgggjjjjjtror..............oogdddgggjjgdddggo.
(PID.TID 0000.0001) //     31 jgddgdgy..........vgddgwrjgjmrg--ddgdddr........xxz.....y.xvtomjjdd---ddjdd---dd-jdddddddddddddddddggjjjjgggjjj................tg----dgmjgddgdgy
(PID.TID 0000.0001) //     30 jgdgd-dm..........vggjjovmgjmwd---dgddddmy...+xxxxy++....oo.vtjjgddg--ddgddg--dddjgddddddgjdddddddggjjjgggggggg................zd---dgjmjgdgd-dm
(PID.TID 0000.0001) //     29 jggd--dgy.........wjmmmjmyomjm---ddgdddddgjmooxxxx++++.+..vtvxrrgddjjjjggddjjjjggjmg-dgddgrgddgggggjmmjggggggddr...............yd---dgjmjggd--dg
(PID.TID 0000.0001) //     28 jjdd---gy.........wtr.gggymmjg--ddgj-djdggggggmxx+.....+ommromrvorrrtmmgorrrtmmgdgm--dgddgggggggggjjmjgggggggddd..............+gg---dgmmjjdd---g
(PID.TID 0000.0001) //     27 jgdd---g..........ww..gggymmjgdd-djj-dd---dgjjw+........vtmmmjjxmmotvrrgmmotvrrgddd-ggmtvroggggggjjmjjggjjggddddo.............ygd---dgjmjgdd---g
(PID.TID 0000.0001) //     26 jgdd---o..........rx..ddoromjgdd--gj-d-----jtw+..........ytrrotwrmrzvrjgrmrzvrjgdddgggojmromjgggjjjmjggggggddddjjg............yjd---dgjmjgdd---o
(PID.TID 0000.0001) //     25 jdd--dmo.........roz.rdomgjmmgddddgjd---dggox.............ztxxzyrmmmtv--rmmmtv----dgggggggmmjggggjjjjgggggggggmjddj...........rjgd--ddgmjdd--dmo
(PID.TID 0000.0001) //     24 gd---gogt.......zmjx.jdgdgggmjggddgjd--ddgmr..............zrrtmwoggjto--oggjto----ddddgggggjmjjjjjmjjgggjjjjjmmgdjj..........vjgd----djmgd---gog
(PID.TID 0000.0001) //     23 jgdddojdo.......wjgowj---dgjjmjggggjdddmdddr..............yjrtmrmjgjtmd-mjgjtmd------ddjmjgggggjjjmmmmmmmjjjjjjjggo........+omgddddddgjmjgdddojd
(PID.TID 0000.0001) //     22 jgddmgddj+.....yrddoojddgjggggmjgggooommgddd+.............yjrtororjmt-d-orjmt-d-------dddggdgggggjjmmmjjjjjjjgggggw........rjjmoojdddgjmjgddmgdd
(PID.TID 0000.0001) //     21 ggjjjdddgv.....mrddrogdjjgdddgjmjjmrgjmmgddgt....++.......rgrvovtrmom---trmom------------ddddgggggjmmjjjggjjjggggg+.......wjgggmmjdgggjjggjjjddd
(PID.TID 0000.0001) //     20 ggjgd---dgy.xjgjjddjjjjjgddddggjjjjgggdddddgjttjjjjt......gggrvtt.xrj--dt.xrj--d----------ddggjjggjjjjjjjjjjgggggj.......zjdddddgggggjjjggjgd---
(PID.TID 0000.0001) //     19 jjgd----gggjgjggddgjjjjgd-dddggjjjgggggddddddd------gv...jdddjtww..xjd-dw..xjd-dj--d-------dddddgggjjjgggjjjgggggj......zj-----ddggggjjjjjgd----
(PID.TID 0000.0001) //     18 jjgggdddjg--gjggdgjjjjjgd--dggjjjjjjjjggggddddd------dj..jddddjvy..tjjggy..tjjggdg-----------ddddggjjjggggjjjjgggv......r-------dddgjjjjjjgggddd
(PID.TID 0000.0001) //     17 gggjgdgdddddd--djjjjjjjgddddggjjjjjjjjjjggggdddddddddddvyjddddgv..wwwwrj..wwwwrjd-d-----------ddggjjjjjggggggjjjjz...++t--------ddddgjjjgggjgdgd
(PID.TID 0000.0001) //     16 jjgggdjgdddd--djjjjjjjjgddgjjjjjjjjjjjjjjjgggggdddddggdjrjddddj..vtrjgd-.vtrjgd----dddd-----ddddggjjjjjggdddggjjj....++r----------ddgjjjjjgggdjg
(PID.TID 0000.0001) //     15 jjjjjjjjgdddddgjggggggggdgjx.yjjjggggjjjjjjjjjgggggjjjgjjjdddgjjjjjjjd--jjjjjd------ddddddddddggjjjjjjggddddddggj....++xtjddggdddgjdgggjjjjjjjjj
(PID.TID 0000.0001) //     14 jjjjjjjjjjjjjgdddgjjjgggddgjjjjjjgdgggggggjjgggggggjjjjjggddjjjjjjjd----jjjd------dddddggjggggggjjjjjgggdddddddgjj..+jjjjjjjjjjjjgjjddggjjjjjjjj
(PID.TID 0000.0001) //     13 jjjjjjjgddgggg---gjggggddddjjjjjjgdddgggggggdddddddggjjjjgggjgjjjg------jg------ddddgjjjjjjjjjjjjjjjgggdgd----ddgjjjjjjjjjjjjjjjjggggddgjjjjjjjg
(PID.TID 0000.0001) //     12 gjggdd----dd--------------djjjjjjjdddddgdddddddddddddgjjjjjjjgd-----dddd----dddddddgjjjjjjjjjgggggdddddddddd---dddgjjjjgggjjjjjjjjvggggggjggdd--
(PID.TID 0000.0001) //     11 ------------------------dddddjjjrtjddddddddddddddddddgggjjjjjjjgddddddggddddddgggggjjjjjjgggdggddd--------------ddgjjjjjrrrvttrrjjjgggdd--------
(PID.TID 0000.0001) //     10 ----ggd--------d--ddgdddddgggggjjjjjjjjjjjjjjjjgggjjjjggggjjjjjjjjjjjjjjjjjjjjjjjjjjjjjgggddddd-----------dddddddggjrv..zvjjjggdddddd-------ggd-
(PID.TID 0000.0001) //      9 --ddjjggjjdddddjjggjtw..wrrrrrrrvvvw+........zxx++...zxvttrrjrjjjjjjjjjjjjjjjjjjjjgggggggggddddddddddddddddgdddggjt+...yxrjgdddddddgd-----ddjjgg
(PID.TID 0000.0001) //      8 jjjjjjjtvrjjjjv..............++.............................+trrjjjjjjggjjjjjjggggggdddddddddggjjjjggggddggjjjjjtz....+xxrjgggddddddddddjjjjjjjt
(PID.TID 0000.0001) //      7 .................................................................vttvtjg.vttvtjggggddgggddgggjjjjrttrrvxyzzyyyyy+......xxvtrjjggggggjjv+........
(PID.TID 0000.0001) //      6 ...............................................................+zyyyywjjzyyyywjjjjjgggjjrtwx+.........................+yxxyyyxwttvwy............
(PID.TID 0000.0001) //      5 ................................................................yyyyyyyyyyyyyyyyyyyyz.................................zzz+..+yy+................
(PID.TID 0000.0001) //      4 ................................................................................................................................................
(PID.TID 0000.0001) //      3 ................................................................................................................................................
(PID.TID 0000.0001) //      2 ................................................................................................................................................
(PID.TID 0000.0001) //      1 ................................................................................................................................................
(PID.TID 0000.0001) //      0 ................................................................................................................................................
(PID.TID 0000.0001) //     -1 ................................................................................................................................................
(PID.TID 0000.0001) //     -2 ................................................................................................................................................
(PID.TID 0000.0001) //     -3 ................................................................................................................................................
(PID.TID 0000.0001) // =======================================================
(PID.TID 0000.0001) // END OF FIELD                                          =
(PID.TID 0000.0001) // =======================================================
(PID.TID 0000.0001) 
(PID.TID 0000.0001) // =======================================================
(PID.TID 0000.0001) // Field Model Ro_surf (ini_masks_etc)
(PID.TID 0000.0001) // CMIN =          1.000000000000000E+32
(PID.TID 0000.0001) // CMAX =         -1.000000000000000E+32
(PID.TID 0000.0001) // CINT =          0.000000000000000E+00
(PID.TID 0000.0001) // SYMBOLS (CMIN->CMAX): -abcdefghijklmnopqrstuvwxyz+
(PID.TID 0000.0001) //                  0.0: .
(PID.TID 0000.0001) // RANGE I (Lo:Hi:Step):(    -3:   132:     1)
(PID.TID 0000.0001) // RANGE J (Lo:Hi:Step):(    68:    -3:    -1)
(PID.TID 0000.0001) // RANGE K (Lo:Hi:Step):(   1:   1:   1)
(PID.TID 0000.0001) // =======================================================
(PID.TID 0000.0001) // =======================================================
(PID.TID 0000.0001) // END OF FIELD                                          =
(PID.TID 0000.0001) // =======================================================
(PID.TID 0000.0001) 
(PID.TID 0000.0001) // =======================================================
(PID.TID 0000.0001) // Field hFacC at iteration          0
(PID.TID 0000.0001) // CMIN =          1.000000000000000E+00
(PID.TID 0000.0001) // CMAX =          1.000000000000000E+00
(PID.TID 0000.0001) // CINT =          0.000000000000000E+00
(PID.TID 0000.0001) // SYMBOLS (CMIN->CMAX): -abcdefghijklmnopqrstuvwxyz+
(PID.TID 0000.0001) //                  0.0: .
(PID.TID 0000.0001) // RANGE I (Lo:Hi:Step):(    -3:   132:     1)
(PID.TID 0000.0001) // RANGE J (Lo:Hi:Step):(    68:    -3:    -1)
(PID.TID 0000.0001) // RANGE K (Lo:Hi:Step):(   1:   1:   1)
(PID.TID 0000.0001) // =======================================================
(PID.TID 0000.0001) // =======================================================
(PID.TID 0000.0001) // END OF FIELD                                          =
(PID.TID 0000.0001) // =======================================================
(PID.TID 0000.0001) 
(PID.TID 0000.0001) // =======================================================
(PID.TID 0000.0001) // Field hFacW at iteration          0
(PID.TID 0000.0001) // CMIN =          1.000000000000000E+00
(PID.TID 0000.0001) // CMAX =          1.000000000000000E+00
(PID.TID 0000.0001) // CINT =          0.000000000000000E+00
(PID.TID 0000.0001) // SYMBOLS (CMIN->CMAX): -abcdefghijklmnopqrstuvwxyz+
(PID.TID 0000.0001) //                  0.0: .
(PID.TID 0000.0001) // RANGE I (Lo:Hi:Step):(    -3:   132:     1)
(PID.TID 0000.0001) // RANGE J (Lo:Hi:Step):(    68:    -3:    -1)
(PID.TID 0000.0001) // RANGE K (Lo:Hi:Step):(   1:   1:   1)
(PID.TID 0000.0001) // =======================================================
(PID.TID 0000.0001) // =======================================================
(PID.TID 0000.0001) // END OF FIELD                                          =
(PID.TID 0000.0001) // =======================================================
(PID.TID 0000.0001) 
(PID.TID 0000.0001) // =======================================================
(PID.TID 0000.0001) // Field hFacS at iteration          0
(PID.TID 0000.0001) // CMIN =          1.000000000000000E+00
(PID.TID 0000.0001) // CMAX =          1.000000000000000E+00
(PID.TID 0000.0001) // CINT =          0.000000000000000E+00
(PID.TID 0000.0001) // SYMBOLS (CMIN->CMAX): -abcdefghijklmnopqrstuvwxyz+
(PID.TID 0000.0001) //                  0.0: .
(PID.TID 0000.0001) // RANGE I (Lo:Hi:Step):(    -3:   132:     1)
(PID.TID 0000.0001) // RANGE J (Lo:Hi:Step):(    68:    -3:    -1)
(PID.TID 0000.0001) // RANGE K (Lo:Hi:Step):(   1:   1:   1)
(PID.TID 0000.0001) // =======================================================
(PID.TID 0000.0001) // =======================================================
(PID.TID 0000.0001) // END OF FIELD                                          =
(PID.TID 0000.0001) // =======================================================
(PID.TID 0000.0001) 
(PID.TID 0000.0001) GAD_INIT_FIXED: GAD_OlMinSize=  1  0  1
(PID.TID 0000.0001) 
(PID.TID 0000.0001) // ===================================
(PID.TID 0000.0001) // GAD parameters :
(PID.TID 0000.0001) // ===================================
(PID.TID 0000.0001) tempAdvScheme =   /* Temp. Horiz.Advection scheme selector */
(PID.TID 0000.0001)                       2
(PID.TID 0000.0001)     ;
(PID.TID 0000.0001) tempVertAdvScheme =   /* Temp. Vert. Advection scheme selector */
(PID.TID 0000.0001)                       2
(PID.TID 0000.0001)     ;
(PID.TID 0000.0001) tempMultiDimAdvec =   /* use Muti-Dim Advec method for Temp */
(PID.TID 0000.0001)                   F
(PID.TID 0000.0001)     ;
(PID.TID 0000.0001) tempSOM_Advection = /* use 2nd Order Moment Advection for Temp */
(PID.TID 0000.0001)                   F
(PID.TID 0000.0001)     ;
(PID.TID 0000.0001) AdamsBashforthGt = /* apply Adams-Bashforth extrapolation on Gt */
(PID.TID 0000.0001)                   T
(PID.TID 0000.0001)     ;
(PID.TID 0000.0001) AdamsBashforth_T = /* apply Adams-Bashforth extrapolation on Temp */
(PID.TID 0000.0001)                   F
(PID.TID 0000.0001)     ;
(PID.TID 0000.0001) saltAdvScheme =   /* Salt. Horiz.advection scheme selector */
(PID.TID 0000.0001)                       2
(PID.TID 0000.0001)     ;
(PID.TID 0000.0001) saltVertAdvScheme =   /* Salt. Vert. Advection scheme selector */
(PID.TID 0000.0001)                       2
(PID.TID 0000.0001)     ;
(PID.TID 0000.0001) saltMultiDimAdvec =   /* use Muti-Dim Advec method for Salt */
(PID.TID 0000.0001)                   F
(PID.TID 0000.0001)     ;
(PID.TID 0000.0001) saltSOM_Advection = /* use 2nd Order Moment Advection for Salt */
(PID.TID 0000.0001)                   F
(PID.TID 0000.0001)     ;
(PID.TID 0000.0001) AdamsBashforthGs = /* apply Adams-Bashforth extrapolation on Gs */
(PID.TID 0000.0001)                   T
(PID.TID 0000.0001)     ;
(PID.TID 0000.0001) AdamsBashforth_S = /* apply Adams-Bashforth extrapolation on Salt */
(PID.TID 0000.0001)                   F
(PID.TID 0000.0001)     ;
(PID.TID 0000.0001) // ===================================
 QQ start cfc params
 QQ read cfc atmos data
(PID.TID 0000.0001) S/R CFC_ATMOS: reading CFC atmospheric data
(PID.TID 0000.0001) year,acfc11_n,acfc12_n,acfc11_s,acfc12_s =    0.00    0.00    0.00    0.00
(PID.TID 0000.0001) year,acfc11_n,acfc12_n,acfc11_s,acfc12_s =    0.00    0.01    0.00    0.01
(PID.TID 0000.0001) year,acfc11_n,acfc12_n,acfc11_s,acfc12_s =    0.00    0.02    0.00    0.01
(PID.TID 0000.0001) year,acfc11_n,acfc12_n,acfc11_s,acfc12_s =    0.00    0.03    0.00    0.02
(PID.TID 0000.0001) year,acfc11_n,acfc12_n,acfc11_s,acfc12_s =    0.00    0.04    0.00    0.03
(PID.TID 0000.0001) year,acfc11_n,acfc12_n,acfc11_s,acfc12_s =    0.00    0.07    0.00    0.04
(PID.TID 0000.0001) year,acfc11_n,acfc12_n,acfc11_s,acfc12_s =    0.00    0.11    0.00    0.07
(PID.TID 0000.0001) year,acfc11_n,acfc12_n,acfc11_s,acfc12_s =    0.00    0.17    0.00    0.11
(PID.TID 0000.0001) year,acfc11_n,acfc12_n,acfc11_s,acfc12_s =    0.01    0.25    0.00    0.17
(PID.TID 0000.0001) year,acfc11_n,acfc12_n,acfc11_s,acfc12_s =    0.01    0.37    0.01    0.25
(PID.TID 0000.0001) year,acfc11_n,acfc12_n,acfc11_s,acfc12_s =    0.02    0.53    0.01    0.36
(PID.TID 0000.0001) year,acfc11_n,acfc12_n,acfc11_s,acfc12_s =    0.02    0.72    0.02    0.51
(PID.TID 0000.0001) year,acfc11_n,acfc12_n,acfc11_s,acfc12_s =    0.03    0.94    0.02    0.69
(PID.TID 0000.0001) year,acfc11_n,acfc12_n,acfc11_s,acfc12_s =    0.04    1.25    0.03    0.91
(PID.TID 0000.0001) year,acfc11_n,acfc12_n,acfc11_s,acfc12_s =    0.05    1.65    0.04    1.21
(PID.TID 0000.0001) year,acfc11_n,acfc12_n,acfc11_s,acfc12_s =    0.08    2.33    0.05    1.64
(PID.TID 0000.0001) year,acfc11_n,acfc12_n,acfc11_s,acfc12_s =    0.14    3.42    0.08    2.33
(PID.TID 0000.0001) year,acfc11_n,acfc12_n,acfc11_s,acfc12_s =    0.24    4.73    0.14    3.32
(PID.TID 0000.0001) year,acfc11_n,acfc12_n,acfc11_s,acfc12_s =    0.42    6.10    0.25    4.48
(PID.TID 0000.0001) year,acfc11_n,acfc12_n,acfc11_s,acfc12_s =    0.67    7.58    0.42    5.77
(PID.TID 0000.0001) year,acfc11_n,acfc12_n,acfc11_s,acfc12_s =    1.02    9.23    0.66    7.19
(PID.TID 0000.0001) year,acfc11_n,acfc12_n,acfc11_s,acfc12_s =    1.53   10.94    1.01    8.72
(PID.TID 0000.0001) year,acfc11_n,acfc12_n,acfc11_s,acfc12_s =    2.21   12.82    1.49   10.37
(PID.TID 0000.0001) year,acfc11_n,acfc12_n,acfc11_s,acfc12_s =    3.07   14.97    2.13   12.20
(PID.TID 0000.0001) year,acfc11_n,acfc12_n,acfc11_s,acfc12_s =    4.11   17.40    2.93   14.25
(PID.TID 0000.0001) year,acfc11_n,acfc12_n,acfc11_s,acfc12_s =    5.39   20.22    3.92   16.59
(PID.TID 0000.0001) year,acfc11_n,acfc12_n,acfc11_s,acfc12_s =    6.84   23.45    5.11   19.28
(PID.TID 0000.0001) year,acfc11_n,acfc12_n,acfc11_s,acfc12_s =    8.19   26.86    6.39   22.28
(PID.TID 0000.0001) year,acfc11_n,acfc12_n,acfc11_s,acfc12_s =    9.47   30.58    7.63   25.52
(PID.TID 0000.0001) year,acfc11_n,acfc12_n,acfc11_s,acfc12_s =   11.13   35.03    8.96   29.18
(PID.TID 0000.0001) year,acfc11_n,acfc12_n,acfc11_s,acfc12_s =   13.38   40.12   10.63   33.42
(PID.TID 0000.0001) year,acfc11_n,acfc12_n,acfc11_s,acfc12_s =   16.23   45.89   12.78   38.25
(PID.TID 0000.0001) year,acfc11_n,acfc12_n,acfc11_s,acfc12_s =   19.72   52.66   15.47   43.80
(PID.TID 0000.0001) year,acfc11_n,acfc12_n,acfc11_s,acfc12_s =   23.87   60.57   18.75   50.28
(PID.TID 0000.0001) year,acfc11_n,acfc12_n,acfc11_s,acfc12_s =   28.57   69.53   22.61   57.76
(PID.TID 0000.0001) year,acfc11_n,acfc12_n,acfc11_s,acfc12_s =   33.78   79.46   26.99   66.21
(PID.TID 0000.0001) year,acfc11_n,acfc12_n,acfc11_s,acfc12_s =   39.63   90.60   31.91   75.67
(PID.TID 0000.0001) year,acfc11_n,acfc12_n,acfc11_s,acfc12_s =   46.27  103.16   37.46   86.31
(PID.TID 0000.0001) year,acfc11_n,acfc12_n,acfc11_s,acfc12_s =   53.96  117.17   43.80   98.25
(PID.TID 0000.0001) year,acfc11_n,acfc12_n,acfc11_s,acfc12_s =   62.75  132.52   51.07  111.52
(PID.TID 0000.0001) year,acfc11_n,acfc12_n,acfc11_s,acfc12_s =   72.36  149.00   59.27  126.02
(PID.TID 0000.0001) year,acfc11_n,acfc12_n,acfc11_s,acfc12_s =   83.04  166.85   68.34  141.70
(PID.TID 0000.0001) year,acfc11_n,acfc12_n,acfc11_s,acfc12_s =   95.27  186.59   78.54  158.82
(PID.TID 0000.0001) year,acfc11_n,acfc12_n,acfc11_s,acfc12_s =  108.81  208.14   90.04  177.62
(PID.TID 0000.0001) year,acfc11_n,acfc12_n,acfc11_s,acfc12_s =  121.86  229.37  102.29  197.54
(PID.TID 0000.0001) year,acfc11_n,acfc12_n,acfc11_s,acfc12_s =  134.47  249.51  114.40  217.31
(PID.TID 0000.0001) year,acfc11_n,acfc12_n,acfc11_s,acfc12_s =  146.47  268.67  126.28  236.49
(PID.TID 0000.0001) year,acfc11_n,acfc12_n,acfc11_s,acfc12_s =  157.18  286.35  137.45  254.72
(PID.TID 0000.0001) year,acfc11_n,acfc12_n,acfc11_s,acfc12_s =  166.67  303.74  147.60  272.00
(PID.TID 0000.0001) year,acfc11_n,acfc12_n,acfc11_s,acfc12_s =  175.11  320.96  158.08  290.34
(PID.TID 0000.0001) year,acfc11_n,acfc12_n,acfc11_s,acfc12_s =  182.81  337.33  166.54  306.90
(PID.TID 0000.0001) year,acfc11_n,acfc12_n,acfc11_s,acfc12_s =  189.88  352.01  174.69  323.74
(PID.TID 0000.0001) year,acfc11_n,acfc12_n,acfc11_s,acfc12_s =  197.72  367.69  183.03  341.15
(PID.TID 0000.0001) year,acfc11_n,acfc12_n,acfc11_s,acfc12_s =  206.34  383.86  190.95  357.80
(PID.TID 0000.0001) year,acfc11_n,acfc12_n,acfc11_s,acfc12_s =  216.12  401.25  200.50  376.45
(PID.TID 0000.0001) year,acfc11_n,acfc12_n,acfc11_s,acfc12_s =  227.48  420.96  209.82  394.00
(PID.TID 0000.0001) year,acfc11_n,acfc12_n,acfc11_s,acfc12_s =  239.67  441.49  220.60  412.82
(PID.TID 0000.0001) year,acfc11_n,acfc12_n,acfc11_s,acfc12_s =  251.05  463.22  231.46  433.46
(PID.TID 0000.0001) year,acfc11_n,acfc12_n,acfc11_s,acfc12_s =  257.28  481.80  240.38  452.97
(PID.TID 0000.0001) year,acfc11_n,acfc12_n,acfc11_s,acfc12_s =  263.65  493.96  249.23  470.55
(PID.TID 0000.0001) year,acfc11_n,acfc12_n,acfc11_s,acfc12_s =  266.33  504.64  254.53  484.07
(PID.TID 0000.0001) year,acfc11_n,acfc12_n,acfc11_s,acfc12_s =  266.00  512.87  258.80  495.65
(PID.TID 0000.0001) year,acfc11_n,acfc12_n,acfc11_s,acfc12_s =  267.58  520.12  260.56  504.49
(PID.TID 0000.0001) year,acfc11_n,acfc12_n,acfc11_s,acfc12_s =  267.24  526.58  261.73  512.31
(PID.TID 0000.0001) year,acfc11_n,acfc12_n,acfc11_s,acfc12_s =  266.38  531.59  261.29  518.39
(PID.TID 0000.0001) year,acfc11_n,acfc12_n,acfc11_s,acfc12_s =  265.25  534.81  261.08  523.50
(PID.TID 0000.0001) year,acfc11_n,acfc12_n,acfc11_s,acfc12_s =  263.84  537.67  260.16  528.18
(PID.TID 0000.0001) year,acfc11_n,acfc12_n,acfc11_s,acfc12_s =  263.84  537.67  260.16  528.18
(PID.TID 0000.0001) LAYERS_INIT_FIXED Debugging:
(PID.TID 0000.0001) // ZZc=   2.5, MapIndex(  1)=  1, MapFact(  1)=1.0000, CellIndex(  1)=  1
(PID.TID 0000.0001) // ZZc=   7.5, MapIndex(  2)=  1, MapFact(  2)=1.0000, CellIndex(  2)=  1
(PID.TID 0000.0001) // ZZc=  12.5, MapIndex(  3)=  1, MapFact(  3)=1.0000, CellIndex(  3)=  1
(PID.TID 0000.0001) // ZZc=  17.5, MapIndex(  4)=  1, MapFact(  4)=1.0000, CellIndex(  4)=  1
(PID.TID 0000.0001) // ZZc=  22.5, MapIndex(  5)=  1, MapFact(  5)=1.0000, CellIndex(  5)=  1
(PID.TID 0000.0001) // ZZc=  27.5, MapIndex(  6)=  1, MapFact(  6)=0.9583, CellIndex(  6)=  1
(PID.TID 0000.0001) // ZZc=  32.5, MapIndex(  7)=  1, MapFact(  7)=0.8750, CellIndex(  7)=  1
(PID.TID 0000.0001) // ZZc=  37.5, MapIndex(  8)=  1, MapFact(  8)=0.7917, CellIndex(  8)=  1
(PID.TID 0000.0001) // ZZc=  42.5, MapIndex(  9)=  1, MapFact(  9)=0.7083, CellIndex(  9)=  1
(PID.TID 0000.0001) // ZZc=  47.5, MapIndex( 10)=  1, MapFact( 10)=0.6250, CellIndex( 10)=  1
(PID.TID 0000.0001) // ZZc=  53.5, MapIndex( 11)=  1, MapFact( 11)=0.5250, CellIndex( 11)=  2
(PID.TID 0000.0001) // ZZc=  60.5, MapIndex( 12)=  1, MapFact( 12)=0.4083, CellIndex( 12)=  2
(PID.TID 0000.0001) // ZZc=  67.5, MapIndex( 13)=  1, MapFact( 13)=0.2917, CellIndex( 13)=  2
(PID.TID 0000.0001) // ZZc=  74.5, MapIndex( 14)=  1, MapFact( 14)=0.1750, CellIndex( 14)=  2
(PID.TID 0000.0001) // ZZc=  81.5, MapIndex( 15)=  1, MapFact( 15)=0.0583, CellIndex( 15)=  2
(PID.TID 0000.0001) // ZZc=  88.5, MapIndex( 16)=  2, MapFact( 16)=0.9588, CellIndex( 16)=  2
(PID.TID 0000.0001) // ZZc=  95.5, MapIndex( 17)=  2, MapFact( 17)=0.8765, CellIndex( 17)=  2
(PID.TID 0000.0001) // ZZc= 102.5, MapIndex( 18)=  2, MapFact( 18)=0.7941, CellIndex( 18)=  2
(PID.TID 0000.0001) // ZZc= 109.5, MapIndex( 19)=  2, MapFact( 19)=0.7118, CellIndex( 19)=  2
(PID.TID 0000.0001) // ZZc= 116.5, MapIndex( 20)=  2, MapFact( 20)=0.6294, CellIndex( 20)=  2
(PID.TID 0000.0001) // ZZc= 125.0, MapIndex( 21)=  2, MapFact( 21)=0.5294, CellIndex( 21)=  3
(PID.TID 0000.0001) // ZZc= 135.0, MapIndex( 22)=  2, MapFact( 22)=0.4118, CellIndex( 22)=  3
(PID.TID 0000.0001) // ZZc= 145.0, MapIndex( 23)=  2, MapFact( 23)=0.2941, CellIndex( 23)=  3
(PID.TID 0000.0001) // ZZc= 155.0, MapIndex( 24)=  2, MapFact( 24)=0.1765, CellIndex( 24)=  3
(PID.TID 0000.0001) // ZZc= 165.0, MapIndex( 25)=  2, MapFact( 25)=0.0588, CellIndex( 25)=  3
(PID.TID 0000.0001) // ZZc= 175.0, MapIndex( 26)=  3, MapFact( 26)=0.9583, CellIndex( 26)=  3
(PID.TID 0000.0001) // ZZc= 185.0, MapIndex( 27)=  3, MapFact( 27)=0.8750, CellIndex( 27)=  3
(PID.TID 0000.0001) // ZZc= 195.0, MapIndex( 28)=  3, MapFact( 28)=0.7917, CellIndex( 28)=  3
(PID.TID 0000.0001) // ZZc= 205.0, MapIndex( 29)=  3, MapFact( 29)=0.7083, CellIndex( 29)=  3
(PID.TID 0000.0001) // ZZc= 215.0, MapIndex( 30)=  3, MapFact( 30)=0.6250, CellIndex( 30)=  3
(PID.TID 0000.0001) // ZZc= 227.0, MapIndex( 31)=  3, MapFact( 31)=0.5250, CellIndex( 31)=  4
(PID.TID 0000.0001) // ZZc= 241.0, MapIndex( 32)=  3, MapFact( 32)=0.4083, CellIndex( 32)=  4
(PID.TID 0000.0001) // ZZc= 255.0, MapIndex( 33)=  3, MapFact( 33)=0.2917, CellIndex( 33)=  4
(PID.TID 0000.0001) // ZZc= 269.0, MapIndex( 34)=  3, MapFact( 34)=0.1750, CellIndex( 34)=  4
(PID.TID 0000.0001) // ZZc= 283.0, MapIndex( 35)=  3, MapFact( 35)=0.0583, CellIndex( 35)=  4
(PID.TID 0000.0001) // ZZc= 297.0, MapIndex( 36)=  4, MapFact( 36)=0.9576, CellIndex( 36)=  4
(PID.TID 0000.0001) // ZZc= 311.0, MapIndex( 37)=  4, MapFact( 37)=0.8727, CellIndex( 37)=  4
(PID.TID 0000.0001) // ZZc= 325.0, MapIndex( 38)=  4, MapFact( 38)=0.7879, CellIndex( 38)=  4
(PID.TID 0000.0001) // ZZc= 339.0, MapIndex( 39)=  4, MapFact( 39)=0.7030, CellIndex( 39)=  4
(PID.TID 0000.0001) // ZZc= 353.0, MapIndex( 40)=  4, MapFact( 40)=0.6182, CellIndex( 40)=  4
(PID.TID 0000.0001) // ZZc= 369.5, MapIndex( 41)=  4, MapFact( 41)=0.5182, CellIndex( 41)=  5
(PID.TID 0000.0001) // ZZc= 388.5, MapIndex( 42)=  4, MapFact( 42)=0.4030, CellIndex( 42)=  5
(PID.TID 0000.0001) // ZZc= 407.5, MapIndex( 43)=  4, MapFact( 43)=0.2879, CellIndex( 43)=  5
(PID.TID 0000.0001) // ZZc= 426.5, MapIndex( 44)=  4, MapFact( 44)=0.1727, CellIndex( 44)=  5
(PID.TID 0000.0001) // ZZc= 445.5, MapIndex( 45)=  4, MapFact( 45)=0.0576, CellIndex( 45)=  5
(PID.TID 0000.0001) // ZZc= 464.5, MapIndex( 46)=  5, MapFact( 46)=0.9558, CellIndex( 46)=  5
(PID.TID 0000.0001) // ZZc= 483.5, MapIndex( 47)=  5, MapFact( 47)=0.8674, CellIndex( 47)=  5
(PID.TID 0000.0001) // ZZc= 502.5, MapIndex( 48)=  5, MapFact( 48)=0.7791, CellIndex( 48)=  5
(PID.TID 0000.0001) // ZZc= 521.5, MapIndex( 49)=  5, MapFact( 49)=0.6907, CellIndex( 49)=  5
(PID.TID 0000.0001) // ZZc= 540.5, MapIndex( 50)=  5, MapFact( 50)=0.6023, CellIndex( 50)=  5
(PID.TID 0000.0001) // ZZc= 562.0, MapIndex( 51)=  5, MapFact( 51)=0.5023, CellIndex( 51)=  6
(PID.TID 0000.0001) // ZZc= 586.0, MapIndex( 52)=  5, MapFact( 52)=0.3907, CellIndex( 52)=  6
(PID.TID 0000.0001) // ZZc= 610.0, MapIndex( 53)=  5, MapFact( 53)=0.2791, CellIndex( 53)=  6
(PID.TID 0000.0001) // ZZc= 634.0, MapIndex( 54)=  5, MapFact( 54)=0.1674, CellIndex( 54)=  6
(PID.TID 0000.0001) // ZZc= 658.0, MapIndex( 55)=  5, MapFact( 55)=0.0558, CellIndex( 55)=  6
(PID.TID 0000.0001) // ZZc= 682.0, MapIndex( 56)=  6, MapFact( 56)=0.9547, CellIndex( 56)=  6
(PID.TID 0000.0001) // ZZc= 706.0, MapIndex( 57)=  6, MapFact( 57)=0.8642, CellIndex( 57)=  6
(PID.TID 0000.0001) // ZZc= 730.0, MapIndex( 58)=  6, MapFact( 58)=0.7736, CellIndex( 58)=  6
(PID.TID 0000.0001) // ZZc= 754.0, MapIndex( 59)=  6, MapFact( 59)=0.6830, CellIndex( 59)=  6
(PID.TID 0000.0001) // ZZc= 778.0, MapIndex( 60)=  6, MapFact( 60)=0.5925, CellIndex( 60)=  6
(PID.TID 0000.0001) // ZZc= 804.5, MapIndex( 61)=  6, MapFact( 61)=0.4925, CellIndex( 61)=  7
(PID.TID 0000.0001) // ZZc= 833.5, MapIndex( 62)=  6, MapFact( 62)=0.3830, CellIndex( 62)=  7
(PID.TID 0000.0001) // ZZc= 862.5, MapIndex( 63)=  6, MapFact( 63)=0.2736, CellIndex( 63)=  7
(PID.TID 0000.0001) // ZZc= 891.5, MapIndex( 64)=  6, MapFact( 64)=0.1642, CellIndex( 64)=  7
(PID.TID 0000.0001) // ZZc= 920.5, MapIndex( 65)=  6, MapFact( 65)=0.0547, CellIndex( 65)=  7
(PID.TID 0000.0001) // ZZc= 949.5, MapIndex( 66)=  7, MapFact( 66)=0.9540, CellIndex( 66)=  7
(PID.TID 0000.0001) // ZZc= 978.5, MapIndex( 67)=  7, MapFact( 67)=0.8619, CellIndex( 67)=  7
(PID.TID 0000.0001) // ZZc=1007.5, MapIndex( 68)=  7, MapFact( 68)=0.7698, CellIndex( 68)=  7
(PID.TID 0000.0001) // ZZc=1036.5, MapIndex( 69)=  7, MapFact( 69)=0.6778, CellIndex( 69)=  7
(PID.TID 0000.0001) // ZZc=1065.5, MapIndex( 70)=  7, MapFact( 70)=0.5857, CellIndex( 70)=  7
(PID.TID 0000.0001) // ZZc=1097.0, MapIndex( 71)=  7, MapFact( 71)=0.4857, CellIndex( 71)=  8
(PID.TID 0000.0001) // ZZc=1131.0, MapIndex( 72)=  7, MapFact( 72)=0.3778, CellIndex( 72)=  8
(PID.TID 0000.0001) // ZZc=1165.0, MapIndex( 73)=  7, MapFact( 73)=0.2698, CellIndex( 73)=  8
(PID.TID 0000.0001) // ZZc=1199.0, MapIndex( 74)=  7, MapFact( 74)=0.1619, CellIndex( 74)=  8
(PID.TID 0000.0001) // ZZc=1233.0, MapIndex( 75)=  7, MapFact( 75)=0.0540, CellIndex( 75)=  8
(PID.TID 0000.0001) // ZZc=1267.0, MapIndex( 76)=  8, MapFact( 76)=0.9534, CellIndex( 76)=  8
(PID.TID 0000.0001) // ZZc=1301.0, MapIndex( 77)=  8, MapFact( 77)=0.8603, CellIndex( 77)=  8
(PID.TID 0000.0001) // ZZc=1335.0, MapIndex( 78)=  8, MapFact( 78)=0.7671, CellIndex( 78)=  8
(PID.TID 0000.0001) // ZZc=1369.0, MapIndex( 79)=  8, MapFact( 79)=0.6740, CellIndex( 79)=  8
(PID.TID 0000.0001) // ZZc=1403.0, MapIndex( 80)=  8, MapFact( 80)=0.5808, CellIndex( 80)=  8
(PID.TID 0000.0001) // ZZc=1439.5, MapIndex( 81)=  8, MapFact( 81)=0.4808, CellIndex( 81)=  9
(PID.TID 0000.0001) // ZZc=1478.5, MapIndex( 82)=  8, MapFact( 82)=0.3740, CellIndex( 82)=  9
(PID.TID 0000.0001) // ZZc=1517.5, MapIndex( 83)=  8, MapFact( 83)=0.2671, CellIndex( 83)=  9
(PID.TID 0000.0001) // ZZc=1556.5, MapIndex( 84)=  8, MapFact( 84)=0.1603, CellIndex( 84)=  9
(PID.TID 0000.0001) // ZZc=1595.5, MapIndex( 85)=  8, MapFact( 85)=0.0534, CellIndex( 85)=  9
(PID.TID 0000.0001) // ZZc=1634.5, MapIndex( 86)=  9, MapFact( 86)=0.9530, CellIndex( 86)=  9
(PID.TID 0000.0001) // ZZc=1673.5, MapIndex( 87)=  9, MapFact( 87)=0.8590, CellIndex( 87)=  9
(PID.TID 0000.0001) // ZZc=1712.5, MapIndex( 88)=  9, MapFact( 88)=0.7651, CellIndex( 88)=  9
(PID.TID 0000.0001) // ZZc=1751.5, MapIndex( 89)=  9, MapFact( 89)=0.6711, CellIndex( 89)=  9
(PID.TID 0000.0001) // ZZc=1790.5, MapIndex( 90)=  9, MapFact( 90)=0.5771, CellIndex( 90)=  9
(PID.TID 0000.0001) // ZZc=1832.0, MapIndex( 91)=  9, MapFact( 91)=0.4771, CellIndex( 91)= 10
(PID.TID 0000.0001) // ZZc=1876.0, MapIndex( 92)=  9, MapFact( 92)=0.3711, CellIndex( 92)= 10
(PID.TID 0000.0001) // ZZc=1920.0, MapIndex( 93)=  9, MapFact( 93)=0.2651, CellIndex( 93)= 10
(PID.TID 0000.0001) // ZZc=1964.0, MapIndex( 94)=  9, MapFact( 94)=0.1590, CellIndex( 94)= 10
(PID.TID 0000.0001) // ZZc=2008.0, MapIndex( 95)=  9, MapFact( 95)=0.0530, CellIndex( 95)= 10
(PID.TID 0000.0001) // ZZc=2052.0, MapIndex( 96)= 10, MapFact( 96)=0.9527, CellIndex( 96)= 10
(PID.TID 0000.0001) // ZZc=2096.0, MapIndex( 97)= 10, MapFact( 97)=0.8581, CellIndex( 97)= 10
(PID.TID 0000.0001) // ZZc=2140.0, MapIndex( 98)= 10, MapFact( 98)=0.7634, CellIndex( 98)= 10
(PID.TID 0000.0001) // ZZc=2184.0, MapIndex( 99)= 10, MapFact( 99)=0.6688, CellIndex( 99)= 10
(PID.TID 0000.0001) // ZZc=2228.0, MapIndex(100)= 10, MapFact(100)=0.5742, CellIndex(100)= 10
(PID.TID 0000.0001) // ZZc=2274.5, MapIndex(101)= 10, MapFact(101)=0.4742, CellIndex(101)= 11
(PID.TID 0000.0001) // ZZc=2323.5, MapIndex(102)= 10, MapFact(102)=0.3688, CellIndex(102)= 11
(PID.TID 0000.0001) // ZZc=2372.5, MapIndex(103)= 10, MapFact(103)=0.2634, CellIndex(103)= 11
(PID.TID 0000.0001) // ZZc=2421.5, MapIndex(104)= 10, MapFact(104)=0.1581, CellIndex(104)= 11
(PID.TID 0000.0001) // ZZc=2470.5, MapIndex(105)= 10, MapFact(105)=0.0527, CellIndex(105)= 11
(PID.TID 0000.0001) // ZZc=2519.5, MapIndex(106)= 11, MapFact(106)=0.9524, CellIndex(106)= 11
(PID.TID 0000.0001) // ZZc=2568.5, MapIndex(107)= 11, MapFact(107)=0.8573, CellIndex(107)= 11
(PID.TID 0000.0001) // ZZc=2617.5, MapIndex(108)= 11, MapFact(108)=0.7621, CellIndex(108)= 11
(PID.TID 0000.0001) // ZZc=2666.5, MapIndex(109)= 11, MapFact(109)=0.6670, CellIndex(109)= 11
(PID.TID 0000.0001) // ZZc=2715.5, MapIndex(110)= 11, MapFact(110)=0.5718, CellIndex(110)= 11
(PID.TID 0000.0001) // ZZc=2767.0, MapIndex(111)= 11, MapFact(111)=0.4718, CellIndex(111)= 12
(PID.TID 0000.0001) // ZZc=2821.0, MapIndex(112)= 11, MapFact(112)=0.3670, CellIndex(112)= 12
(PID.TID 0000.0001) // ZZc=2875.0, MapIndex(113)= 11, MapFact(113)=0.2621, CellIndex(113)= 12
(PID.TID 0000.0001) // ZZc=2929.0, MapIndex(114)= 11, MapFact(114)=0.1573, CellIndex(114)= 12
(PID.TID 0000.0001) // ZZc=2983.0, MapIndex(115)= 11, MapFact(115)=0.0524, CellIndex(115)= 12
(PID.TID 0000.0001) // ZZc=3037.0, MapIndex(116)= 12, MapFact(116)=0.9522, CellIndex(116)= 12
(PID.TID 0000.0001) // ZZc=3091.0, MapIndex(117)= 12, MapFact(117)=0.8566, CellIndex(117)= 12
(PID.TID 0000.0001) // ZZc=3145.0, MapIndex(118)= 12, MapFact(118)=0.7611, CellIndex(118)= 12
(PID.TID 0000.0001) // ZZc=3199.0, MapIndex(119)= 12, MapFact(119)=0.6655, CellIndex(119)= 12
(PID.TID 0000.0001) // ZZc=3253.0, MapIndex(120)= 12, MapFact(120)=0.5699, CellIndex(120)= 12
(PID.TID 0000.0001) // ZZc=3309.5, MapIndex(121)= 12, MapFact(121)=0.4699, CellIndex(121)= 13
(PID.TID 0000.0001) // ZZc=3368.5, MapIndex(122)= 12, MapFact(122)=0.3655, CellIndex(122)= 13
(PID.TID 0000.0001) // ZZc=3427.5, MapIndex(123)= 12, MapFact(123)=0.2611, CellIndex(123)= 13
(PID.TID 0000.0001) // ZZc=3486.5, MapIndex(124)= 12, MapFact(124)=0.1566, CellIndex(124)= 13
(PID.TID 0000.0001) // ZZc=3545.5, MapIndex(125)= 12, MapFact(125)=0.0522, CellIndex(125)= 13
(PID.TID 0000.0001) // ZZc=3604.5, MapIndex(126)= 13, MapFact(126)=0.9520, CellIndex(126)= 13
(PID.TID 0000.0001) // ZZc=3663.5, MapIndex(127)= 13, MapFact(127)=0.8561, CellIndex(127)= 13
(PID.TID 0000.0001) // ZZc=3722.5, MapIndex(128)= 13, MapFact(128)=0.7602, CellIndex(128)= 13
(PID.TID 0000.0001) // ZZc=3781.5, MapIndex(129)= 13, MapFact(129)=0.6642, CellIndex(129)= 13
(PID.TID 0000.0001) // ZZc=3840.5, MapIndex(130)= 13, MapFact(130)=0.5683, CellIndex(130)= 13
(PID.TID 0000.0001) // ZZc=3902.0, MapIndex(131)= 13, MapFact(131)=0.4683, CellIndex(131)= 14
(PID.TID 0000.0001) // ZZc=3966.0, MapIndex(132)= 13, MapFact(132)=0.3642, CellIndex(132)= 14
(PID.TID 0000.0001) // ZZc=4030.0, MapIndex(133)= 13, MapFact(133)=0.2602, CellIndex(133)= 14
(PID.TID 0000.0001) // ZZc=4094.0, MapIndex(134)= 13, MapFact(134)=0.1561, CellIndex(134)= 14
(PID.TID 0000.0001) // ZZc=4158.0, MapIndex(135)= 13, MapFact(135)=0.0520, CellIndex(135)= 14
(PID.TID 0000.0001) // ZZc=4222.0, MapIndex(136)= 14, MapFact(136)=0.9519, CellIndex(136)= 14
(PID.TID 0000.0001) // ZZc=4286.0, MapIndex(137)= 14, MapFact(137)=0.8556, CellIndex(137)= 14
(PID.TID 0000.0001) // ZZc=4350.0, MapIndex(138)= 14, MapFact(138)=0.7594, CellIndex(138)= 14
(PID.TID 0000.0001) // ZZc=4414.0, MapIndex(139)= 14, MapFact(139)=0.6632, CellIndex(139)= 14
(PID.TID 0000.0001) // ZZc=4478.0, MapIndex(140)= 14, MapFact(140)=0.5669, CellIndex(140)= 14
(PID.TID 0000.0001) // ZZc=4544.5, MapIndex(141)= 14, MapFact(141)=0.4669, CellIndex(141)= 15
(PID.TID 0000.0001) // ZZc=4613.5, MapIndex(142)= 14, MapFact(142)=0.3632, CellIndex(142)= 15
(PID.TID 0000.0001) // ZZc=4682.5, MapIndex(143)= 14, MapFact(143)=0.2594, CellIndex(143)= 15
(PID.TID 0000.0001) // ZZc=4751.5, MapIndex(144)= 14, MapFact(144)=0.1556, CellIndex(144)= 15
(PID.TID 0000.0001) // ZZc=4820.5, MapIndex(145)= 14, MapFact(145)=0.0519, CellIndex(145)= 15
(PID.TID 0000.0001) // ZZc=4889.5, MapIndex(146)= 14, MapFact(146)=0.0000, CellIndex(146)= 15
(PID.TID 0000.0001) // ZZc=4958.5, MapIndex(147)= 14, MapFact(147)=0.0000, CellIndex(147)= 15
(PID.TID 0000.0001) // ZZc=5027.5, MapIndex(148)= 14, MapFact(148)=0.0000, CellIndex(148)= 15
(PID.TID 0000.0001) // ZZc=5096.5, MapIndex(149)= 14, MapFact(149)=0.0000, CellIndex(149)= 15
(PID.TID 0000.0001) // ZZc=5165.5, MapIndex(150)= 14, MapFact(150)=0.0000, CellIndex(150)= 15
(PID.TID 0000.0001) ------------------------------------------------------------
(PID.TID 0000.0001) DIAGNOSTICS_SET_LEVELS: done
(PID.TID 0000.0001)  Total Nb of available Diagnostics: ndiagt=   245
(PID.TID 0000.0001)  write list of available Diagnostics to file: available_diagnostics.log
(PID.TID 0000.0001) SETDIAG: Allocate 40 x  1 Levels for Diagnostic #   230 LaUH1TH
(PID.TID 0000.0001) SETDIAG: Allocate 40 x  1 Levels for Diagnostic #   231 LaVH1TH
(PID.TID 0000.0001) SETDIAG: Allocate 40 x  1 Levels for Diagnostic #   238 LaUH2RHO
(PID.TID 0000.0001) SETDIAG: Allocate 40 x  1 Levels for Diagnostic #   239 LaVH2RHO
(PID.TID 0000.0001)   space allocated for all diagnostics:     160 levels
(PID.TID 0000.0001)   set mate pointer for diag #   230  LaUH1TH  , Parms: UU      MX , mate:   231
(PID.TID 0000.0001)   set mate pointer for diag #   231  LaVH1TH  , Parms: VV      MX , mate:   230
(PID.TID 0000.0001)   set mate pointer for diag #   238  LaUH2RHO , Parms: UU      MX , mate:   239
(PID.TID 0000.0001)   set mate pointer for diag #   239  LaVH2RHO , Parms: VV      MX , mate:   238
(PID.TID 0000.0001) DIAGNOSTICS_SET_POINTERS: Set levels for Outp.Stream: DiagOcnLAYERS
(PID.TID 0000.0001)  Levels:       1.   2.   3.   4.   5.   6.   7.   8.   9.  10.  11.  12.  13.  14.  15.  16.  17.  18.  19.  20.
(PID.TID 0000.0001)  Levels:      21.  22.  23.  24.  25.  26.  27.  28.  29.  30.  31.  32.  33.  34.  35.  36.  37.  38.  39.  40.
(PID.TID 0000.0001) DIAGNOSTICS_SET_POINTERS: done
(PID.TID 0000.0001) ------------------------------------------------------------
(PID.TID 0000.0001) DIAGSTATS_SET_REGIONS: define no region
(PID.TID 0000.0001) ------------------------------------------------------------
(PID.TID 0000.0001) SETDIAG: Allocate  1 Levels for Stats-Diag #    23 ETAN
(PID.TID 0000.0001) SETDIAG: Allocate  1 Levels for Stats-Diag #    25 DETADT2
(PID.TID 0000.0001) SETDIAG: Allocate 15 Levels for Stats-Diag #   147 momKE
(PID.TID 0000.0001) SETDIAG: Allocate 15 Levels for Stats-Diag #   205 TRAC01
(PID.TID 0000.0001) SETDIAG: Allocate 15 Levels for Stats-Diag #   217 TRAC02
(PID.TID 0000.0001)   space allocated for all stats-diags:      47 levels
(PID.TID 0000.0001) DIAGSTATS_SET_POINTERS: done
(PID.TID 0000.0001) ------------------------------------------------------------
(PID.TID 0000.0001) DIAGSTATS_INI_IO: open file: dynStDiag.0004269600.txt , unit=     9
(PID.TID 0000.0001) %MON fCori_max                    =   1.4579854531444E-04
(PID.TID 0000.0001) %MON fCori_min                    =  -1.4579854531444E-04
(PID.TID 0000.0001) %MON fCori_mean                   =   2.3039296165317E-19
(PID.TID 0000.0001) %MON fCori_sd                     =   1.0312619976228E-04
(PID.TID 0000.0001) %MON fCoriG_max                   =   1.4566679669714E-04
(PID.TID 0000.0001) %MON fCoriG_min                   =  -1.4584247033981E-04
(PID.TID 0000.0001) %MON fCoriG_mean                  =  -2.2787885990593E-06
(PID.TID 0000.0001) %MON fCoriG_sd                    =   1.0310101939326E-04
(PID.TID 0000.0001) %MON fCoriCos_max                 =   1.4579854531444E-04
(PID.TID 0000.0001) %MON fCoriCos_min                 =   3.5791533929553E-06
(PID.TID 0000.0001) %MON fCoriCos_mean                =   9.2855522572229E-05
(PID.TID 0000.0001) %MON fCoriCos_sd                  =   4.4864964117307E-05
(PID.TID 0000.0001) INI_CG2D: CG2D normalisation factor =  6.8918025187312258E-05
(PID.TID 0000.0001) 
(PID.TID 0000.0001) // =======================================================
(PID.TID 0000.0001) // Model configuration
(PID.TID 0000.0001) // =======================================================
(PID.TID 0000.0001) //
(PID.TID 0000.0001) // "Physical" paramters ( PARM01 in namelist )
(PID.TID 0000.0001) //
(PID.TID 0000.0001) buoyancyRelation = /* Type of relation to get Buoyancy */
(PID.TID 0000.0001)               'OCEANIC'
(PID.TID 0000.0001)     ;
(PID.TID 0000.0001) fluidIsAir   =  /* fluid major constituent is Air */
(PID.TID 0000.0001)                   F
(PID.TID 0000.0001)     ;
(PID.TID 0000.0001) fluidIsWater =  /* fluid major constituent is Water */
(PID.TID 0000.0001)                   T
(PID.TID 0000.0001)     ;
(PID.TID 0000.0001) usingPCoords =  /* use p (or p*) vertical coordinate */
(PID.TID 0000.0001)                   F
(PID.TID 0000.0001)     ;
(PID.TID 0000.0001) usingZCoords =  /* use z (or z*) vertical coordinate */
(PID.TID 0000.0001)                   T
(PID.TID 0000.0001)     ;
(PID.TID 0000.0001) tRef =   /* Reference temperature profile ( oC or K ) */
(PID.TID 0000.0001)    15 @  2.000000000000000E+01              /* K =  1: 15 */
(PID.TID 0000.0001)     ;
(PID.TID 0000.0001) sRef =   /* Reference salinity profile ( psu ) */
(PID.TID 0000.0001)    15 @  3.500000000000000E+01              /* K =  1: 15 */
(PID.TID 0000.0001)     ;
(PID.TID 0000.0001) viscAh  =   /* Lateral eddy viscosity ( m^2/s ) */
(PID.TID 0000.0001)                 5.000000000000000E+05
(PID.TID 0000.0001)     ;
(PID.TID 0000.0001) viscAhMax = /* Maximum lateral eddy viscosity ( m^2/s ) */
(PID.TID 0000.0001)                 1.000000000000000E+21
(PID.TID 0000.0001)     ;
(PID.TID 0000.0001) viscAhGrid = /* Grid dependent lateral eddy viscosity ( non-dim. ) */
(PID.TID 0000.0001)                 0.000000000000000E+00
(PID.TID 0000.0001)     ;
(PID.TID 0000.0001) useFullLeith = /* Use Full Form of Leith Viscosity on/off flag*/
(PID.TID 0000.0001)                   F
(PID.TID 0000.0001)     ;
(PID.TID 0000.0001) useStrainTensionVisc= /* Use StrainTension Form of Viscous Operator flag*/
(PID.TID 0000.0001)                   F
(PID.TID 0000.0001)     ;
(PID.TID 0000.0001) useAreaViscLength = /* Use area for visc length instead of geom. mean*/
(PID.TID 0000.0001)                   F
(PID.TID 0000.0001)     ;
(PID.TID 0000.0001) viscC2leith = /* Leith harmonic visc. factor (on grad(vort),non-dim.) */
(PID.TID 0000.0001)                 0.000000000000000E+00
(PID.TID 0000.0001)     ;
(PID.TID 0000.0001) viscC2leithD = /* Leith harmonic viscosity factor (on grad(div),non-dim.)*/
(PID.TID 0000.0001)                 0.000000000000000E+00
(PID.TID 0000.0001)     ;
(PID.TID 0000.0001) viscC2smag = /* Smagorinsky harmonic viscosity factor (non-dim.) */
(PID.TID 0000.0001)                 0.000000000000000E+00
(PID.TID 0000.0001)     ;
(PID.TID 0000.0001) viscA4  =   /* Lateral biharmonic viscosity ( m^4/s ) */
(PID.TID 0000.0001)                 0.000000000000000E+00
(PID.TID 0000.0001)     ;
(PID.TID 0000.0001) viscA4Max = /* Maximum biharmonic viscosity ( m^2/s ) */
(PID.TID 0000.0001)                 1.000000000000000E+21
(PID.TID 0000.0001)     ;
(PID.TID 0000.0001) viscA4Grid = /* Grid dependent biharmonic viscosity ( non-dim. ) */
(PID.TID 0000.0001)                 0.000000000000000E+00
(PID.TID 0000.0001)     ;
(PID.TID 0000.0001) viscC4leith = /* Leith biharm viscosity factor (on grad(vort), non-dim.)*/
(PID.TID 0000.0001)                 0.000000000000000E+00
(PID.TID 0000.0001)     ;
(PID.TID 0000.0001) viscC4leithD = /* Leith biharm viscosity factor (on grad(div), non-dim.) */
(PID.TID 0000.0001)                 0.000000000000000E+00
(PID.TID 0000.0001)     ;
(PID.TID 0000.0001) viscC4Smag = /* Smagorinsky biharm viscosity factor (non-dim) */
(PID.TID 0000.0001)                 0.000000000000000E+00
(PID.TID 0000.0001)     ;
(PID.TID 0000.0001) no_slip_sides =  /* Viscous BCs: No-slip sides */
(PID.TID 0000.0001)                   T
(PID.TID 0000.0001)     ;
(PID.TID 0000.0001) sideDragFactor = /* side-drag scaling factor (non-dim) */
(PID.TID 0000.0001)                 2.000000000000000E+00
(PID.TID 0000.0001)     ;
(PID.TID 0000.0001) viscArNr = /* vertical profile of vertical viscosity ( m^2/s )*/
(PID.TID 0000.0001)    15 @  1.000000000000000E-03              /* K =  1: 15 */
(PID.TID 0000.0001)     ;
(PID.TID 0000.0001) no_slip_bottom =  /* Viscous BCs: No-slip bottom */
(PID.TID 0000.0001)                   T
(PID.TID 0000.0001)     ;
(PID.TID 0000.0001) bottomDragLinear = /* linear bottom-drag coefficient ( m/s ) */
(PID.TID 0000.0001)                 0.000000000000000E+00
(PID.TID 0000.0001)     ;
(PID.TID 0000.0001) bottomDragQuadratic = /* quadratic bottom-drag coefficient (-) */
(PID.TID 0000.0001)                 0.000000000000000E+00
(PID.TID 0000.0001)     ;
(PID.TID 0000.0001) diffKhT =   /* Laplacian diffusion of heat laterally ( m^2/s ) */
(PID.TID 0000.0001)                 0.000000000000000E+00
(PID.TID 0000.0001)     ;
(PID.TID 0000.0001) diffK4T =   /* Biharmonic diffusion of heat laterally ( m^4/s ) */
(PID.TID 0000.0001)                 0.000000000000000E+00
(PID.TID 0000.0001)     ;
(PID.TID 0000.0001) diffKhS =   /* Laplacian diffusion of salt laterally ( m^2/s ) */
(PID.TID 0000.0001)                 0.000000000000000E+00
(PID.TID 0000.0001)     ;
(PID.TID 0000.0001) diffK4S =   /* Biharmonic diffusion of salt laterally ( m^4/s ) */
(PID.TID 0000.0001)                 0.000000000000000E+00
(PID.TID 0000.0001)     ;
(PID.TID 0000.0001) diffKrNrT = /* vertical profile of vertical diffusion of Temp ( m^2/s )*/
(PID.TID 0000.0001)    15 @  5.000000000000000E-05              /* K =  1: 15 */
(PID.TID 0000.0001)     ;
(PID.TID 0000.0001) diffKrNrS = /* vertical profile of vertical diffusion of Salt ( m^2/s )*/
(PID.TID 0000.0001)    15 @  5.000000000000000E-05              /* K =  1: 15 */
(PID.TID 0000.0001)     ;
(PID.TID 0000.0001) diffKrBL79surf = /* Surface diffusion for Bryan and Lewis 79 ( m^2/s ) */
(PID.TID 0000.0001)                 0.000000000000000E+00
(PID.TID 0000.0001)     ;
(PID.TID 0000.0001) diffKrBL79deep = /* Deep diffusion for Bryan and Lewis 1979 ( m^2/s ) */
(PID.TID 0000.0001)                 0.000000000000000E+00
(PID.TID 0000.0001)     ;
(PID.TID 0000.0001) diffKrBL79scl = /* Depth scale for Bryan and Lewis 1979 ( m ) */
(PID.TID 0000.0001)                 2.000000000000000E+02
(PID.TID 0000.0001)     ;
(PID.TID 0000.0001) diffKrBL79Ho = /* Turning depth for Bryan and Lewis 1979 ( m ) */
(PID.TID 0000.0001)                -2.000000000000000E+03
(PID.TID 0000.0001)     ;
(PID.TID 0000.0001) ivdc_kappa = /* Implicit Vertical Diffusivity for Convection ( m^2/s) */
(PID.TID 0000.0001)                 1.000000000000000E+01
(PID.TID 0000.0001)     ;
(PID.TID 0000.0001) hMixCriteria=  /* Criteria for mixed-layer diagnostic */
(PID.TID 0000.0001)                -8.000000000000000E-01
(PID.TID 0000.0001)     ;
(PID.TID 0000.0001) dRhoSmall =  /* Parameter for mixed-layer diagnostic */
(PID.TID 0000.0001)                 1.000000000000000E-06
(PID.TID 0000.0001)     ;
(PID.TID 0000.0001) hMixSmooth=  /* Smoothing parameter for mixed-layer diagnostic */
(PID.TID 0000.0001)                 0.000000000000000E+00
(PID.TID 0000.0001)     ;
(PID.TID 0000.0001) eosType =  /* Type of Equation of State */
(PID.TID 0000.0001)               'POLY3 '
(PID.TID 0000.0001)     ;
(PID.TID 0000.0001)   1  13.497  32.600  24.570  -0.202   0.771  -0.005  -0.002   0.000   0.000   0.000   0.000   0.000
(PID.TID 0000.0001)   2  13.488  32.600  24.840  -0.203   0.770  -0.005  -0.002   0.000   0.000   0.000   0.000   0.000
(PID.TID 0000.0001)   3  13.476  32.600  25.221  -0.205   0.770  -0.005  -0.002   0.000   0.000   0.000   0.000   0.000
(PID.TID 0000.0001)   4   8.469  35.150  28.657  -0.163   0.781  -0.005  -0.002   0.001   0.000   0.000   0.000   0.000
(PID.TID 0000.0001)   5   8.451  35.150  29.405  -0.167   0.780  -0.005  -0.002   0.001   0.000   0.000   0.000   0.000
(PID.TID 0000.0001)   6   5.940  34.900  30.574  -0.145   0.784  -0.006  -0.002   0.001   0.000   0.000   0.000   0.000
(PID.TID 0000.0001)   7   4.425  34.900  31.991  -0.135   0.786  -0.006  -0.003   0.000   0.000   0.000   0.000   0.000
(PID.TID 0000.0001)   8   2.911  34.750  33.505  -0.125   0.787  -0.006  -0.003  -0.000   0.000   0.000   0.000   0.000
(PID.TID 0000.0001)   9   1.893  34.800  35.333  -0.123   0.787  -0.006  -0.003  -0.000   0.000   0.000   0.000   0.000
(PID.TID 0000.0001)  10   1.367  34.800  37.279  -0.129   0.785  -0.006  -0.003  -0.001   0.000   0.000   0.000   0.000
(PID.TID 0000.0001)  11   1.328  34.800  39.372  -0.141   0.781  -0.006  -0.003  -0.002   0.000   0.000   0.000   0.000
(PID.TID 0000.0001)  12   0.792  34.800  41.739  -0.149   0.778  -0.006  -0.003  -0.001   0.000   0.000   0.000   0.000
(PID.TID 0000.0001)  13   0.737  34.750  44.192  -0.163   0.774  -0.005  -0.002  -0.003   0.000   0.000   0.000   0.000
(PID.TID 0000.0001)  14   0.188  34.750  46.956  -0.174   0.770  -0.005  -0.002  -0.002   0.000   0.000   0.000   0.000
(PID.TID 0000.0001)  15   0.596  34.750  49.726  -0.195   0.764  -0.005  -0.002  -0.001   0.000   0.000   0.000   0.000
(PID.TID 0000.0001) celsius2K = /* 0 degree Celsius converted to Kelvin ( K ) */
(PID.TID 0000.0001)                 2.731500000000000E+02
(PID.TID 0000.0001)     ;
(PID.TID 0000.0001) rhoConst  = /* Reference density (Boussinesq)  ( kg/m^3 ) */
(PID.TID 0000.0001)                 1.035000000000000E+03
(PID.TID 0000.0001)     ;
(PID.TID 0000.0001) rhoFacC = /* normalized Reference density @ cell-Center (-) */
(PID.TID 0000.0001)    15 @  1.000000000000000E+00              /* K =  1: 15 */
(PID.TID 0000.0001)     ;
(PID.TID 0000.0001) rhoFacF = /* normalized Reference density @ W-Interface (-) */
(PID.TID 0000.0001)    16 @  1.000000000000000E+00              /* K =  1: 16 */
(PID.TID 0000.0001)     ;
(PID.TID 0000.0001) rhoConstFresh = /* Fresh-water reference density ( kg/m^3 ) */
(PID.TID 0000.0001)                 1.035000000000000E+03
(PID.TID 0000.0001)     ;
(PID.TID 0000.0001) gravity =   /* Gravitational acceleration ( m/s^2 ) */
(PID.TID 0000.0001)                 9.810000000000000E+00
(PID.TID 0000.0001)     ;
(PID.TID 0000.0001) gBaro =   /* Barotropic gravity ( m/s^2 ) */
(PID.TID 0000.0001)                 9.810000000000000E+00
(PID.TID 0000.0001)     ;
(PID.TID 0000.0001) rotationPeriod =   /* Rotation Period ( s ) */
(PID.TID 0000.0001)                 8.616400000000000E+04
(PID.TID 0000.0001)     ;
(PID.TID 0000.0001) omega =   /* Angular velocity ( rad/s ) */
(PID.TID 0000.0001)                 7.292123516990375E-05
(PID.TID 0000.0001)     ;
(PID.TID 0000.0001) f0 =   /* Reference coriolis parameter ( 1/s ) */
(PID.TID 0000.0001)                 1.000000000000000E-04
(PID.TID 0000.0001)     ;
(PID.TID 0000.0001) beta =   /* Beta ( 1/(m.s) ) */
(PID.TID 0000.0001)                 9.999999999999999E-12
(PID.TID 0000.0001)     ;
(PID.TID 0000.0001) fPrime =   /* Second coriolis parameter ( 1/s ) */
(PID.TID 0000.0001)                 0.000000000000000E+00
(PID.TID 0000.0001)     ;
(PID.TID 0000.0001) rigidLid =   /* Rigid lid on/off flag */
(PID.TID 0000.0001)                   F
(PID.TID 0000.0001)     ;
(PID.TID 0000.0001) implicitFreeSurface =   /* Implicit free surface on/off flag */
(PID.TID 0000.0001)                   T
(PID.TID 0000.0001)     ;
(PID.TID 0000.0001) freeSurfFac =   /* Implicit free surface factor */
(PID.TID 0000.0001)                 1.000000000000000E+00
(PID.TID 0000.0001)     ;
(PID.TID 0000.0001) implicSurfPress =  /* Surface Pressure implicit factor (0-1)*/
(PID.TID 0000.0001)                 1.000000000000000E+00
(PID.TID 0000.0001)     ;
(PID.TID 0000.0001) implicDiv2Dflow =  /* Barot. Flow Div. implicit factor (0-1)*/
(PID.TID 0000.0001)                 1.000000000000000E+00
(PID.TID 0000.0001)     ;
(PID.TID 0000.0001) uniformLin_PhiSurf = /* use uniform Bo_surf on/off flag*/
(PID.TID 0000.0001)                   T
(PID.TID 0000.0001)     ;
(PID.TID 0000.0001) uniformFreeSurfLev = /* free-surface level-index is uniform */
(PID.TID 0000.0001)                   T
(PID.TID 0000.0001)     ;
(PID.TID 0000.0001) hFacMin =   /* minimum partial cell factor (hFac) */
(PID.TID 0000.0001)                 1.000000000000000E+00
(PID.TID 0000.0001)     ;
(PID.TID 0000.0001) hFacMinDr = /* minimum partial cell thickness ( m) */
(PID.TID 0000.0001)                 1.000000000000000E+00
(PID.TID 0000.0001)     ;
(PID.TID 0000.0001) exactConserv =  /* Exact Volume Conservation on/off flag*/
(PID.TID 0000.0001)                   T
(PID.TID 0000.0001)     ;
(PID.TID 0000.0001) linFSConserveTr = /* Tracer correction for Lin Free Surface on/off flag*/
(PID.TID 0000.0001)                   F
(PID.TID 0000.0001)     ;
(PID.TID 0000.0001) nonlinFreeSurf = /* Non-linear Free Surf. options (-1,0,1,2,3)*/
(PID.TID 0000.0001)                       0
(PID.TID 0000.0001)      -1,0= Off ; 1,2,3= On, 2=+rescale gU,gV, 3=+update cg2d solv.
(PID.TID 0000.0001)     ;
(PID.TID 0000.0001) hFacInf =   /* lower threshold for hFac (nonlinFreeSurf only)*/
(PID.TID 0000.0001)                 2.000000000000000E-01
(PID.TID 0000.0001)     ;
(PID.TID 0000.0001) hFacSup =   /* upper threshold for hFac (nonlinFreeSurf only)*/
(PID.TID 0000.0001)                 2.000000000000000E+00
(PID.TID 0000.0001)     ;
(PID.TID 0000.0001) select_rStar = /* r* Vertical coord. options (=0 r coord.; >0 uses r*)*/
(PID.TID 0000.0001)                       0
(PID.TID 0000.0001)     ;
(PID.TID 0000.0001) useRealFreshWaterFlux = /* Real Fresh Water Flux on/off flag*/
(PID.TID 0000.0001)                   F
(PID.TID 0000.0001)     ;
(PID.TID 0000.0001) temp_EvPrRn = /* Temp. of Evap/Prec/R (UNSET=use local T)(oC)*/
(PID.TID 0000.0001)                 1.234567000000000E+05
(PID.TID 0000.0001)     ;
(PID.TID 0000.0001) salt_EvPrRn = /* Salin. of Evap/Prec/R (UNSET=use local S)(psu)*/
(PID.TID 0000.0001)                 0.000000000000000E+00
(PID.TID 0000.0001)     ;
(PID.TID 0000.0001) selectAddFluid = /* option for mass source/sink of fluid (=0: off) */
(PID.TID 0000.0001)                       0
(PID.TID 0000.0001)     ;
(PID.TID 0000.0001) temp_addMass = /* Temp. of addMass array (UNSET=use local T)(oC)*/
(PID.TID 0000.0001)                 1.234567000000000E+05
(PID.TID 0000.0001)     ;
(PID.TID 0000.0001) salt_addMass = /* Salin. of addMass array (UNSET=use local S)(psu)*/
(PID.TID 0000.0001)                 0.000000000000000E+00
(PID.TID 0000.0001)     ;
(PID.TID 0000.0001) convertFW2Salt = /* convert F.W. Flux to Salt Flux (-1=use local S)(psu)*/
(PID.TID 0000.0001)                 3.500000000000000E+01
(PID.TID 0000.0001)     ;
(PID.TID 0000.0001) use3Dsolver = /* use 3-D pressure solver on/off flag */
(PID.TID 0000.0001)                   F
(PID.TID 0000.0001)     ;
(PID.TID 0000.0001) nonHydrostatic =  /* Non-Hydrostatic on/off flag */
(PID.TID 0000.0001)                   F
(PID.TID 0000.0001)     ;
(PID.TID 0000.0001) nh_Am2 = /* Non-Hydrostatic terms scaling factor */
(PID.TID 0000.0001)                 1.000000000000000E+00
(PID.TID 0000.0001)     ;
(PID.TID 0000.0001) implicitNHPress = /* Non-Hyd Pressure implicit factor (0-1)*/
(PID.TID 0000.0001)                 1.000000000000000E+00
(PID.TID 0000.0001)     ;
(PID.TID 0000.0001) selectNHfreeSurf = /* Non-Hyd (free-)Surface option */
(PID.TID 0000.0001)                       0
(PID.TID 0000.0001)     ;
(PID.TID 0000.0001) quasiHydrostatic = /* Quasi-Hydrostatic on/off flag */
(PID.TID 0000.0001)                   F
(PID.TID 0000.0001)     ;
(PID.TID 0000.0001) calc_wVelocity = /* vertical velocity calculation on/off flag */
(PID.TID 0000.0001)                   T
(PID.TID 0000.0001)     ;
(PID.TID 0000.0001) momStepping =  /* Momentum equation on/off flag */
(PID.TID 0000.0001)                   T
(PID.TID 0000.0001)     ;
(PID.TID 0000.0001) vectorInvariantMomentum= /* Vector-Invariant Momentum on/off */
(PID.TID 0000.0001)                   F
(PID.TID 0000.0001)     ;
(PID.TID 0000.0001) momAdvection =  /* Momentum advection on/off flag */
(PID.TID 0000.0001)                   T
(PID.TID 0000.0001)     ;
(PID.TID 0000.0001) momViscosity =  /* Momentum viscosity on/off flag */
(PID.TID 0000.0001)                   T
(PID.TID 0000.0001)     ;
(PID.TID 0000.0001) momImplVertAdv= /* Momentum implicit vert. advection on/off*/
(PID.TID 0000.0001)                   F
(PID.TID 0000.0001)     ;
(PID.TID 0000.0001) implicitViscosity = /* Implicit viscosity on/off flag */
(PID.TID 0000.0001)                   T
(PID.TID 0000.0001)     ;
(PID.TID 0000.0001) metricTerms =  /* metric-Terms on/off flag */
(PID.TID 0000.0001)                   T
(PID.TID 0000.0001)     ;
(PID.TID 0000.0001) useNHMTerms = /* Non-Hydrostatic Metric-Terms on/off */
(PID.TID 0000.0001)                   F
(PID.TID 0000.0001)     ;
(PID.TID 0000.0001) selectCoriMap = /* Coriolis Map options (0,1,2,3)*/
(PID.TID 0000.0001)                       2
(PID.TID 0000.0001)     0= f-Plane ; 1= Beta-Plane ; 2= Spherical ; 3= read from file
(PID.TID 0000.0001)     ;
(PID.TID 0000.0001) use3dCoriolis = /* 3-D Coriolis on/off flag */
(PID.TID 0000.0001)                   F
(PID.TID 0000.0001)     ;
(PID.TID 0000.0001) useCoriolis =  /* Coriolis on/off flag */
(PID.TID 0000.0001)                   T
(PID.TID 0000.0001)     ;
(PID.TID 0000.0001) useCDscheme =  /* CD scheme on/off flag */
(PID.TID 0000.0001)                   T
(PID.TID 0000.0001)     ;
(PID.TID 0000.0001) useEnergyConservingCoriolis= /* Flx-Form Coriolis scheme flag */
(PID.TID 0000.0001)                   F
(PID.TID 0000.0001)     ;
(PID.TID 0000.0001) useJamartWetPoints= /* Coriolis WetPoints method flag */
(PID.TID 0000.0001)                   F
(PID.TID 0000.0001)     ;
(PID.TID 0000.0001) useJamartMomAdv= /* V.I Non-linear terms Jamart flag */
(PID.TID 0000.0001)                   F
(PID.TID 0000.0001)     ;
(PID.TID 0000.0001) useAbsVorticity= /* V.I Works with f+zeta in Coriolis */
(PID.TID 0000.0001)                   F
(PID.TID 0000.0001)     ;
(PID.TID 0000.0001) selectVortScheme= /* V.I Scheme selector for Vorticity-Term */
(PID.TID 0000.0001)               123456789
(PID.TID 0000.0001)    = 0 : enstrophy (Shallow-Water Eq.) conserving scheme by Sadourny, JAS 75
(PID.TID 0000.0001)    = 1 : same as 0 with modified hFac
(PID.TID 0000.0001)    = 2 : energy conserving scheme (used by Sadourny in JAS 75 paper)
(PID.TID 0000.0001)    = 3 : energy (general) and enstrophy (2D, nonDiv.) conserving scheme
(PID.TID 0000.0001)          from Sadourny (Burridge & Haseler, ECMWF Rep.4, 1977)
(PID.TID 0000.0001)     ;
(PID.TID 0000.0001) upwindVorticity= /* V.I Upwind bias vorticity flag */
(PID.TID 0000.0001)                   F
(PID.TID 0000.0001)     ;
(PID.TID 0000.0001) highOrderVorticity= /* V.I High order vort. advect. flag */
(PID.TID 0000.0001)                   F
(PID.TID 0000.0001)     ;
(PID.TID 0000.0001) upwindShear= /* V.I Upwind vertical Shear advection flag */
(PID.TID 0000.0001)                   F
(PID.TID 0000.0001)     ;
(PID.TID 0000.0001) selectKEscheme= /* V.I Kinetic Energy scheme selector */
(PID.TID 0000.0001)                       0
(PID.TID 0000.0001)     ;
(PID.TID 0000.0001) momForcing =  /* Momentum forcing on/off flag */
(PID.TID 0000.0001)                   T
(PID.TID 0000.0001)     ;
(PID.TID 0000.0001) momPressureForcing =  /* Momentum pressure term on/off flag */
(PID.TID 0000.0001)                   T
(PID.TID 0000.0001)     ;
(PID.TID 0000.0001) implicitIntGravWave= /* Implicit Internal Gravity Wave flag */
(PID.TID 0000.0001)                   F
(PID.TID 0000.0001)     ;
(PID.TID 0000.0001) staggerTimeStep =    /* Stagger time stepping on/off flag */
(PID.TID 0000.0001)                   F
(PID.TID 0000.0001)     ;
(PID.TID 0000.0001) doResetHFactors = /* reset thickness factors @ each time-step */
(PID.TID 0000.0001)                   F
(PID.TID 0000.0001)     ;
(PID.TID 0000.0001) multiDimAdvection =  /* enable/disable Multi-Dim Advection */
(PID.TID 0000.0001)                   T
(PID.TID 0000.0001)     ;
(PID.TID 0000.0001) useMultiDimAdvec =   /* Multi-Dim Advection is/is-not used */
(PID.TID 0000.0001)                   T
(PID.TID 0000.0001)     ;
(PID.TID 0000.0001) implicitDiffusion = /* Implicit Diffusion on/off flag */
(PID.TID 0000.0001)                   T
(PID.TID 0000.0001)     ;
(PID.TID 0000.0001) tempStepping =  /* Temperature equation on/off flag */
(PID.TID 0000.0001)                   T
(PID.TID 0000.0001)     ;
(PID.TID 0000.0001) tempAdvection = /* Temperature advection on/off flag */
(PID.TID 0000.0001)                   T
(PID.TID 0000.0001)     ;
(PID.TID 0000.0001) tempImplVertAdv = /* Temp. implicit vert. advection on/off */
(PID.TID 0000.0001)                   F
(PID.TID 0000.0001)     ;
(PID.TID 0000.0001) tempForcing  =  /* Temperature forcing on/off flag */
(PID.TID 0000.0001)                   T
(PID.TID 0000.0001)     ;
(PID.TID 0000.0001) doThetaClimRelax = /* apply SST relaxation on/off flag */
(PID.TID 0000.0001)                   T
(PID.TID 0000.0001)     ;
(PID.TID 0000.0001) tempIsActiveTr = /* Temp. is a dynamically Active Tracer */
(PID.TID 0000.0001)                   T
(PID.TID 0000.0001)     ;
(PID.TID 0000.0001) saltStepping =  /* Salinity equation on/off flag */
(PID.TID 0000.0001)                   T
(PID.TID 0000.0001)     ;
(PID.TID 0000.0001) saltAdvection = /* Salinity advection on/off flag */
(PID.TID 0000.0001)                   T
(PID.TID 0000.0001)     ;
(PID.TID 0000.0001) saltImplVertAdv = /* Sali. implicit vert. advection on/off */
(PID.TID 0000.0001)                   F
(PID.TID 0000.0001)     ;
(PID.TID 0000.0001) saltForcing  =  /* Salinity forcing on/off flag */
(PID.TID 0000.0001)                   T
(PID.TID 0000.0001)     ;
(PID.TID 0000.0001) doSaltClimRelax = /* apply SSS relaxation on/off flag */
(PID.TID 0000.0001)                   T
(PID.TID 0000.0001)     ;
(PID.TID 0000.0001) saltIsActiveTr = /* Salt  is a dynamically Active Tracer */
(PID.TID 0000.0001)                   T
(PID.TID 0000.0001)     ;
(PID.TID 0000.0001)  readBinaryPrec = /* Precision used for reading binary files */
(PID.TID 0000.0001)                      32
(PID.TID 0000.0001)     ;
(PID.TID 0000.0001) writeBinaryPrec = /* Precision used for writing binary files */
(PID.TID 0000.0001)                      32
(PID.TID 0000.0001)     ;
(PID.TID 0000.0001)  globalFiles = /* write "global" (=not per tile) files */
(PID.TID 0000.0001)                   F
(PID.TID 0000.0001)     ;
(PID.TID 0000.0001)  useSingleCpuIO = /* only master MPI process does I/O */
(PID.TID 0000.0001)                   F
(PID.TID 0000.0001)     ;
(PID.TID 0000.0001) /* debLev[*]  : level of debug & auxiliary message printing */
(PID.TID 0000.0001) debLevZero =  0 ; /* level of disabled aux. msg printing */
(PID.TID 0000.0001)    debLevA =  1 ; /* level of minimum  aux. msg printing */
(PID.TID 0000.0001)    debLevB =  2 ; /* level of low aux. print (report read-file opening)*/
(PID.TID 0000.0001)    debLevC =  3 ; /* level of moderate debug prt (most pkgs debug msg) */
(PID.TID 0000.0001)    debLevD =  4 ; /* level of enhanced debug prt (add DEBUG_STATS prt) */
(PID.TID 0000.0001)    debLevE =  5 ; /* level of extensive debug printing */
(PID.TID 0000.0001) debugLevel =  /* select debug printing level */
(PID.TID 0000.0001)                       2
(PID.TID 0000.0001)     ;
(PID.TID 0000.0001) //
(PID.TID 0000.0001) // Elliptic solver(s) paramters ( PARM02 in namelist )
(PID.TID 0000.0001) //
(PID.TID 0000.0001) cg2dMaxIters =   /* Upper limit on 2d con. grad iterations  */
(PID.TID 0000.0001)                    1000
(PID.TID 0000.0001)     ;
(PID.TID 0000.0001) cg2dChkResFreq =   /* 2d con. grad convergence test frequency */
(PID.TID 0000.0001)                       1
(PID.TID 0000.0001)     ;
(PID.TID 0000.0001) cg2dUseMinResSol= /* use cg2d last-iter(=0) / min-resid.(=1) solution */
(PID.TID 0000.0001)                       0
(PID.TID 0000.0001)     ;
(PID.TID 0000.0001) cg2dTargetResidual =   /* 2d con. grad target residual  */
(PID.TID 0000.0001)                 1.000000000000000E-13
(PID.TID 0000.0001)     ;
(PID.TID 0000.0001) cg2dTargetResWunit =   /* CG2d target residual [W units] */
(PID.TID 0000.0001)                -1.000000000000000E+00
(PID.TID 0000.0001)     ;
(PID.TID 0000.0001) cg2dPreCondFreq =   /* Freq. for updating cg2d preconditioner */
(PID.TID 0000.0001)                       1
(PID.TID 0000.0001)     ;
(PID.TID 0000.0001) useSRCGSolver =  /* use single reduction CG solver(s) */
(PID.TID 0000.0001)                   F
(PID.TID 0000.0001)     ;
(PID.TID 0000.0001) printResidualFreq = /* Freq. for printing CG residual */
(PID.TID 0000.0001)                       0
(PID.TID 0000.0001)     ;
(PID.TID 0000.0001) //
(PID.TID 0000.0001) // Time stepping paramters ( PARM03 in namelist )
(PID.TID 0000.0001) //
(PID.TID 0000.0001) deltaTMom =   /* Momentum equation timestep ( s ) */
(PID.TID 0000.0001)                 9.000000000000000E+02
(PID.TID 0000.0001)     ;
(PID.TID 0000.0001) deltaTFreeSurf = /* FreeSurface equation timestep ( s ) */
(PID.TID 0000.0001)                 4.320000000000000E+04
(PID.TID 0000.0001)     ;
(PID.TID 0000.0001) dTtracerLev =  /* Tracer equation timestep ( s ) */
(PID.TID 0000.0001)    15 @  4.320000000000000E+04              /* K =  1: 15 */
(PID.TID 0000.0001)     ;
(PID.TID 0000.0001) deltaTClock  =   /* Model clock timestep ( s ) */
(PID.TID 0000.0001)                 4.320000000000000E+04
(PID.TID 0000.0001)     ;
(PID.TID 0000.0001) cAdjFreq =   /* Convective adjustment interval ( s ) */
(PID.TID 0000.0001)                 0.000000000000000E+00
(PID.TID 0000.0001)     ;
(PID.TID 0000.0001) momForcingOutAB = /* =1: take Momentum Forcing out of Adams-Bash. stepping */
(PID.TID 0000.0001)                       0
(PID.TID 0000.0001)     ;
(PID.TID 0000.0001) tracForcingOutAB = /* =1: take T,S,pTr Forcing out of Adams-Bash. stepping */
(PID.TID 0000.0001)                       0
(PID.TID 0000.0001)     ;
(PID.TID 0000.0001) momDissip_In_AB = /* put Dissipation Tendency in Adams-Bash. stepping */
(PID.TID 0000.0001)                   T
(PID.TID 0000.0001)     ;
(PID.TID 0000.0001) doAB_onGtGs = /* apply AB on Tendencies (rather than on T,S)*/
(PID.TID 0000.0001)                   T
(PID.TID 0000.0001)     ;
(PID.TID 0000.0001) abEps =   /* Adams-Bashforth-2 stabilizing weight */
(PID.TID 0000.0001)                 1.000000000000000E-01
(PID.TID 0000.0001)     ;
(PID.TID 0000.0001) tauCD =   /* CD coupling time-scale ( s ) */
(PID.TID 0000.0001)                 3.214280000000000E+05
(PID.TID 0000.0001)     ;
(PID.TID 0000.0001) rCD =   /* Normalised CD coupling parameter */
(PID.TID 0000.0001)                 9.971999950222133E-01
(PID.TID 0000.0001)     ;
(PID.TID 0000.0001) epsAB_CD = /* AB-2 stabilizing weight for CD-scheme*/
(PID.TID 0000.0001)                 1.000000000000000E-01
(PID.TID 0000.0001)     ;
(PID.TID 0000.0001) pickupStrictlyMatch= /* stop if pickup do not strictly match */
(PID.TID 0000.0001)                   T
(PID.TID 0000.0001)     ;
(PID.TID 0000.0001) nIter0   =   /* Run starting timestep number */
(PID.TID 0000.0001)                 4269600
(PID.TID 0000.0001)     ;
(PID.TID 0000.0001) nTimeSteps = /* Number of timesteps */
(PID.TID 0000.0001)                       4
(PID.TID 0000.0001)     ;
(PID.TID 0000.0001) nEndIter =   /* Run ending timestep number */
(PID.TID 0000.0001)                 4269604
(PID.TID 0000.0001)     ;
(PID.TID 0000.0001) baseTime =   /* Model base time ( s ) */
(PID.TID 0000.0001)                 0.000000000000000E+00
(PID.TID 0000.0001)     ;
(PID.TID 0000.0001) startTime =  /* Run start time ( s ) */
(PID.TID 0000.0001)                 1.844467200000000E+11
(PID.TID 0000.0001)     ;
(PID.TID 0000.0001) endTime  =   /* Integration ending time ( s ) */
(PID.TID 0000.0001)                 1.844468928000000E+11
(PID.TID 0000.0001)     ;
(PID.TID 0000.0001) pChkPtFreq = /* Permanent restart/pickup file interval ( s ) */
(PID.TID 0000.0001)                 3.110400000000000E+09
(PID.TID 0000.0001)     ;
(PID.TID 0000.0001) chkPtFreq  = /* Rolling restart/pickup file interval ( s ) */
(PID.TID 0000.0001)                 3.110400000000000E+09
(PID.TID 0000.0001)     ;
(PID.TID 0000.0001) pickup_write_mdsio =   /* Model IO flag. */
(PID.TID 0000.0001)                   T
(PID.TID 0000.0001)     ;
(PID.TID 0000.0001) pickup_read_mdsio =   /* Model IO flag. */
(PID.TID 0000.0001)                   T
(PID.TID 0000.0001)     ;
(PID.TID 0000.0001) pickup_write_mnc =   /* Model IO flag. */
(PID.TID 0000.0001)                   F
(PID.TID 0000.0001)     ;
(PID.TID 0000.0001) pickup_read_mnc =   /* Model IO flag. */
(PID.TID 0000.0001)                   F
(PID.TID 0000.0001)     ;
(PID.TID 0000.0001) pickup_write_immed =   /* Model IO flag. */
(PID.TID 0000.0001)                   F
(PID.TID 0000.0001)     ;
(PID.TID 0000.0001) writePickupAtEnd =   /* Model IO flag. */
(PID.TID 0000.0001)                   T
(PID.TID 0000.0001)     ;
(PID.TID 0000.0001) dumpFreq =   /* Model state write out interval ( s ). */
(PID.TID 0000.0001)                 3.110400000000000E+07
(PID.TID 0000.0001)     ;
(PID.TID 0000.0001) dumpInitAndLast= /* write out Initial & Last iter. model state */
(PID.TID 0000.0001)                   T
(PID.TID 0000.0001)     ;
(PID.TID 0000.0001) snapshot_mdsio =   /* Model IO flag. */
(PID.TID 0000.0001)                   T
(PID.TID 0000.0001)     ;
(PID.TID 0000.0001) snapshot_mnc =   /* Model IO flag. */
(PID.TID 0000.0001)                   F
(PID.TID 0000.0001)     ;
(PID.TID 0000.0001) monitorFreq =   /* Monitor output interval ( s ). */
(PID.TID 0000.0001)                 1.000000000000000E+00
(PID.TID 0000.0001)     ;
(PID.TID 0000.0001) monitorSelect = /* select group of variables to monitor */
(PID.TID 0000.0001)                       3
(PID.TID 0000.0001)     ;
(PID.TID 0000.0001) monitor_stdio =   /* Model IO flag. */
(PID.TID 0000.0001)                   T
(PID.TID 0000.0001)     ;
(PID.TID 0000.0001) monitor_mnc =   /* Model IO flag. */
(PID.TID 0000.0001)                   F
(PID.TID 0000.0001)     ;
(PID.TID 0000.0001) externForcingPeriod =   /* forcing period (s) */
(PID.TID 0000.0001)                 2.592000000000000E+06
(PID.TID 0000.0001)     ;
(PID.TID 0000.0001) externForcingCycle =   /* period of the cyle (s). */
(PID.TID 0000.0001)                 3.110400000000000E+07
(PID.TID 0000.0001)     ;
(PID.TID 0000.0001) tauThetaClimRelax =   /* relaxation time scale (s) */
(PID.TID 0000.0001)                 5.184000000000000E+06
(PID.TID 0000.0001)     ;
(PID.TID 0000.0001) tauSaltClimRelax =   /* relaxation time scale (s) */
(PID.TID 0000.0001)                 7.776000000000000E+06
(PID.TID 0000.0001)     ;
(PID.TID 0000.0001) latBandClimRelax =   /* max. Lat. where relaxation */
(PID.TID 0000.0001)                 1.800000000000000E+02
(PID.TID 0000.0001)     ;
(PID.TID 0000.0001) //
(PID.TID 0000.0001) // Gridding paramters ( PARM04 in namelist )
(PID.TID 0000.0001) //
(PID.TID 0000.0001) usingCartesianGrid = /* Cartesian coordinates flag ( True/False ) */
(PID.TID 0000.0001)                   F
(PID.TID 0000.0001)     ;
(PID.TID 0000.0001) usingCylindricalGrid = /* Cylindrical coordinates flag ( True/False ) */
(PID.TID 0000.0001)                   F
(PID.TID 0000.0001)     ;
(PID.TID 0000.0001) usingSphericalPolarGrid = /* Spherical coordinates flag ( True/False ) */
(PID.TID 0000.0001)                   T
(PID.TID 0000.0001)     ;
(PID.TID 0000.0001) usingCurvilinearGrid = /* Curvilinear coordinates flag ( True/False ) */
(PID.TID 0000.0001)                   F
(PID.TID 0000.0001)     ;
(PID.TID 0000.0001) selectSigmaCoord = /* Hybrid-Sigma Vert. Coordinate option */
(PID.TID 0000.0001)                       0
(PID.TID 0000.0001)     ;
(PID.TID 0000.0001) Ro_SeaLevel = /* r(1) ( units of r ==  m ) */
(PID.TID 0000.0001)                 0.000000000000000E+00
(PID.TID 0000.0001)     ;
(PID.TID 0000.0001) rSigmaBnd = /* r/sigma transition ( units of r ==  m ) */
(PID.TID 0000.0001)                 1.234567000000000E+05
(PID.TID 0000.0001)     ;
(PID.TID 0000.0001) rkSign =   /* index orientation relative to vertical coordinate */
(PID.TID 0000.0001)                -1.000000000000000E+00
(PID.TID 0000.0001)     ;
(PID.TID 0000.0001) gravitySign = /* gravity orientation relative to vertical coordinate */
(PID.TID 0000.0001)                -1.000000000000000E+00
(PID.TID 0000.0001)     ;
(PID.TID 0000.0001) mass2rUnit = /* convert mass per unit area [kg/m2] to r-units [m] */
(PID.TID 0000.0001)                 9.661835748792270E-04
(PID.TID 0000.0001)     ;
(PID.TID 0000.0001) rUnit2mass = /* convert r-units [m] to mass per unit area [kg/m2] */
(PID.TID 0000.0001)                 1.035000000000000E+03
(PID.TID 0000.0001)     ;
(PID.TID 0000.0001) drC =   /* C spacing ( units of r ) */
(PID.TID 0000.0001)                 2.500000000000000E+01,      /* K =  1 */
(PID.TID 0000.0001)                 6.000000000000000E+01,      /* K =  2 */
(PID.TID 0000.0001)                 8.500000000000000E+01,      /* K =  3 */
(PID.TID 0000.0001)                 1.200000000000000E+02,      /* K =  4 */
(PID.TID 0000.0001)                 1.650000000000000E+02,      /* K =  5 */
(PID.TID 0000.0001)                 2.150000000000000E+02,      /* K =  6 */
(PID.TID 0000.0001)                 2.650000000000000E+02,      /* K =  7 */
(PID.TID 0000.0001)                 3.150000000000000E+02,      /* K =  8 */
(PID.TID 0000.0001)                 3.650000000000000E+02,      /* K =  9 */
(PID.TID 0000.0001)                 4.150000000000000E+02,      /* K = 10 */
(PID.TID 0000.0001)                 4.650000000000000E+02,      /* K = 11 */
(PID.TID 0000.0001)                 5.150000000000000E+02,      /* K = 12 */
(PID.TID 0000.0001)                 5.650000000000000E+02,      /* K = 13 */
(PID.TID 0000.0001)                 6.150000000000000E+02,      /* K = 14 */
(PID.TID 0000.0001)                 6.650000000000000E+02       /* K = 15 */
(PID.TID 0000.0001)     ;
(PID.TID 0000.0001) drF =   /* W spacing ( units of r ) */
(PID.TID 0000.0001)                 5.000000000000000E+01,      /* K =  1 */
(PID.TID 0000.0001)                 7.000000000000000E+01,      /* K =  2 */
(PID.TID 0000.0001)                 1.000000000000000E+02,      /* K =  3 */
(PID.TID 0000.0001)                 1.400000000000000E+02,      /* K =  4 */
(PID.TID 0000.0001)                 1.900000000000000E+02,      /* K =  5 */
(PID.TID 0000.0001)                 2.400000000000000E+02,      /* K =  6 */
(PID.TID 0000.0001)                 2.900000000000000E+02,      /* K =  7 */
(PID.TID 0000.0001)                 3.400000000000000E+02,      /* K =  8 */
(PID.TID 0000.0001)                 3.900000000000000E+02,      /* K =  9 */
(PID.TID 0000.0001)                 4.400000000000000E+02,      /* K = 10 */
(PID.TID 0000.0001)                 4.900000000000000E+02,      /* K = 11 */
(PID.TID 0000.0001)                 5.400000000000000E+02,      /* K = 12 */
(PID.TID 0000.0001)                 5.900000000000000E+02,      /* K = 13 */
(PID.TID 0000.0001)                 6.400000000000000E+02,      /* K = 14 */
(PID.TID 0000.0001)                 6.900000000000000E+02       /* K = 15 */
(PID.TID 0000.0001)     ;
(PID.TID 0000.0001) delX = /* U spacing ( m - cartesian, degrees - spherical ) */
(PID.TID 0000.0001)   128 @  2.812500000000000E+00              /* I =  1:128 */
(PID.TID 0000.0001)     ;
(PID.TID 0000.0001) delY = /* V spacing ( m - cartesian, degrees - spherical ) */
(PID.TID 0000.0001)    64 @  2.812500000000000E+00              /* J =  1: 64 */
(PID.TID 0000.0001)     ;
(PID.TID 0000.0001) xgOrigin = /* X-axis origin of West  edge (cartesian: m, lat-lon: deg) */
(PID.TID 0000.0001)                 0.000000000000000E+00
(PID.TID 0000.0001)     ;
(PID.TID 0000.0001) ygOrigin = /* Y-axis origin of South edge (cartesian: m, lat-lon: deg) */
(PID.TID 0000.0001)                -9.000000000000000E+01
(PID.TID 0000.0001)     ;
(PID.TID 0000.0001) rSphere =  /* Radius ( ignored - cartesian, m - spherical ) */
(PID.TID 0000.0001)                 6.370000000000000E+06
(PID.TID 0000.0001)     ;
(PID.TID 0000.0001) deepAtmosphere = /* Deep/Shallow Atmosphere flag (True/False) */
(PID.TID 0000.0001)                   F
(PID.TID 0000.0001)     ;
(PID.TID 0000.0001) xC =  /* xC(:,1,:,1) : P-point X coord ( deg. or m if cartesian) */
(PID.TID 0000.0001)                 1.406250000000000E+00,      /* I =  1 */
(PID.TID 0000.0001)                 4.218750000000000E+00,      /* I =  2 */
(PID.TID 0000.0001)                 7.031250000000000E+00,      /* I =  3 */
(PID.TID 0000.0001)      . . .
(PID.TID 0000.0001)                 8.296875000000000E+01,      /* I = 30 */
(PID.TID 0000.0001)                 8.578125000000000E+01,      /* I = 31 */
(PID.TID 0000.0001)                 8.859375000000000E+01,      /* I = 32 */
(PID.TID 0000.0001)                 9.140625000000000E+01,      /* I = 33 */
(PID.TID 0000.0001)                 9.421875000000000E+01,      /* I = 34 */
(PID.TID 0000.0001)                 9.703125000000000E+01,      /* I = 35 */
(PID.TID 0000.0001)      . . .
(PID.TID 0000.0001)                 1.729687500000000E+02,      /* I = 62 */
(PID.TID 0000.0001)                 1.757812500000000E+02,      /* I = 63 */
(PID.TID 0000.0001)                 1.785937500000000E+02,      /* I = 64 */
(PID.TID 0000.0001)                 1.814062500000000E+02,      /* I = 65 */
(PID.TID 0000.0001)                 1.842187500000000E+02,      /* I = 66 */
(PID.TID 0000.0001)                 1.870312500000000E+02,      /* I = 67 */
(PID.TID 0000.0001)      . . .
(PID.TID 0000.0001)                 2.629687500000000E+02,      /* I = 94 */
(PID.TID 0000.0001)                 2.657812500000000E+02,      /* I = 95 */
(PID.TID 0000.0001)                 2.685937500000000E+02,      /* I = 96 */
(PID.TID 0000.0001)                 2.714062500000000E+02,      /* I = 97 */
(PID.TID 0000.0001)                 2.742187500000000E+02,      /* I = 98 */
(PID.TID 0000.0001)                 2.770312500000000E+02,      /* I = 99 */
(PID.TID 0000.0001)      . . .
(PID.TID 0000.0001)                 3.529687500000000E+02,      /* I =126 */
(PID.TID 0000.0001)                 3.557812500000000E+02,      /* I =127 */
(PID.TID 0000.0001)                 3.585937500000000E+02       /* I =128 */
(PID.TID 0000.0001)     ;
(PID.TID 0000.0001) yC =  /* yC(1,:,1,:) : P-point Y coord ( deg. or m if cartesian) */
(PID.TID 0000.0001)                -8.859375000000000E+01,      /* J =  1 */
(PID.TID 0000.0001)                -8.578125000000000E+01,      /* J =  2 */
(PID.TID 0000.0001)                -8.296875000000000E+01,      /* J =  3 */
(PID.TID 0000.0001)                -8.015625000000000E+01,      /* J =  4 */
(PID.TID 0000.0001)                -7.734375000000000E+01,      /* J =  5 */
(PID.TID 0000.0001)                -7.453125000000000E+01,      /* J =  6 */
(PID.TID 0000.0001)                -7.171875000000000E+01,      /* J =  7 */
(PID.TID 0000.0001)                -6.890625000000000E+01,      /* J =  8 */
(PID.TID 0000.0001)                -6.609375000000000E+01,      /* J =  9 */
(PID.TID 0000.0001)                -6.328125000000000E+01,      /* J = 10 */
(PID.TID 0000.0001)                -6.046875000000000E+01,      /* J = 11 */
(PID.TID 0000.0001)                -5.765625000000000E+01,      /* J = 12 */
(PID.TID 0000.0001)                -5.484375000000000E+01,      /* J = 13 */
(PID.TID 0000.0001)                -5.203125000000000E+01,      /* J = 14 */
(PID.TID 0000.0001)                -4.921875000000000E+01,      /* J = 15 */
(PID.TID 0000.0001)                -4.640625000000000E+01,      /* J = 16 */
(PID.TID 0000.0001)                -4.359375000000000E+01,      /* J = 17 */
(PID.TID 0000.0001)                -4.078125000000000E+01,      /* J = 18 */
(PID.TID 0000.0001)                -3.796875000000000E+01,      /* J = 19 */
(PID.TID 0000.0001)                -3.515625000000000E+01,      /* J = 20 */
(PID.TID 0000.0001)                -3.234375000000000E+01,      /* J = 21 */
(PID.TID 0000.0001)                -2.953125000000000E+01,      /* J = 22 */
(PID.TID 0000.0001)                -2.671875000000000E+01,      /* J = 23 */
(PID.TID 0000.0001)                -2.390625000000000E+01,      /* J = 24 */
(PID.TID 0000.0001)                -2.109375000000000E+01,      /* J = 25 */
(PID.TID 0000.0001)                -1.828125000000000E+01,      /* J = 26 */
(PID.TID 0000.0001)                -1.546875000000000E+01,      /* J = 27 */
(PID.TID 0000.0001)                -1.265625000000000E+01,      /* J = 28 */
(PID.TID 0000.0001)                -9.843750000000000E+00,      /* J = 29 */
(PID.TID 0000.0001)                -7.031250000000000E+00,      /* J = 30 */
(PID.TID 0000.0001)                -4.218750000000000E+00,      /* J = 31 */
(PID.TID 0000.0001)                -1.406250000000000E+00,      /* J = 32 */
(PID.TID 0000.0001)                 1.406250000000000E+00,      /* J = 33 */
(PID.TID 0000.0001)                 4.218750000000000E+00,      /* J = 34 */
(PID.TID 0000.0001)                 7.031250000000000E+00,      /* J = 35 */
(PID.TID 0000.0001)                 9.843750000000000E+00,      /* J = 36 */
(PID.TID 0000.0001)                 1.265625000000000E+01,      /* J = 37 */
(PID.TID 0000.0001)                 1.546875000000000E+01,      /* J = 38 */
(PID.TID 0000.0001)                 1.828125000000000E+01,      /* J = 39 */
(PID.TID 0000.0001)                 2.109375000000000E+01,      /* J = 40 */
(PID.TID 0000.0001)                 2.390625000000000E+01,      /* J = 41 */
(PID.TID 0000.0001)                 2.671875000000000E+01,      /* J = 42 */
(PID.TID 0000.0001)                 2.953125000000000E+01,      /* J = 43 */
(PID.TID 0000.0001)                 3.234375000000000E+01,      /* J = 44 */
(PID.TID 0000.0001)                 3.515625000000000E+01,      /* J = 45 */
(PID.TID 0000.0001)                 3.796875000000000E+01,      /* J = 46 */
(PID.TID 0000.0001)                 4.078125000000000E+01,      /* J = 47 */
(PID.TID 0000.0001)                 4.359375000000000E+01,      /* J = 48 */
(PID.TID 0000.0001)                 4.640625000000000E+01,      /* J = 49 */
(PID.TID 0000.0001)                 4.921875000000000E+01,      /* J = 50 */
(PID.TID 0000.0001)                 5.203125000000000E+01,      /* J = 51 */
(PID.TID 0000.0001)                 5.484375000000000E+01,      /* J = 52 */
(PID.TID 0000.0001)                 5.765625000000000E+01,      /* J = 53 */
(PID.TID 0000.0001)                 6.046875000000000E+01,      /* J = 54 */
(PID.TID 0000.0001)                 6.328125000000000E+01,      /* J = 55 */
(PID.TID 0000.0001)                 6.609375000000000E+01,      /* J = 56 */
(PID.TID 0000.0001)                 6.890625000000000E+01,      /* J = 57 */
(PID.TID 0000.0001)                 7.171875000000000E+01,      /* J = 58 */
(PID.TID 0000.0001)                 7.453125000000000E+01,      /* J = 59 */
(PID.TID 0000.0001)                 7.734375000000000E+01,      /* J = 60 */
(PID.TID 0000.0001)                 8.015625000000000E+01,      /* J = 61 */
(PID.TID 0000.0001)                 8.296875000000000E+01,      /* J = 62 */
(PID.TID 0000.0001)                 8.578125000000000E+01,      /* J = 63 */
(PID.TID 0000.0001)                 8.859375000000000E+01       /* J = 64 */
(PID.TID 0000.0001)     ;
(PID.TID 0000.0001) rcoord = /* P-point R coordinate (  units of r ) */
(PID.TID 0000.0001)                -2.500000000000000E+01,      /* K =  1 */
(PID.TID 0000.0001)                -8.500000000000000E+01,      /* K =  2 */
(PID.TID 0000.0001)                -1.700000000000000E+02,      /* K =  3 */
(PID.TID 0000.0001)                -2.900000000000000E+02,      /* K =  4 */
(PID.TID 0000.0001)                -4.550000000000000E+02,      /* K =  5 */
(PID.TID 0000.0001)                -6.700000000000000E+02,      /* K =  6 */
(PID.TID 0000.0001)                -9.350000000000000E+02,      /* K =  7 */
(PID.TID 0000.0001)                -1.250000000000000E+03,      /* K =  8 */
(PID.TID 0000.0001)                -1.615000000000000E+03,      /* K =  9 */
(PID.TID 0000.0001)                -2.030000000000000E+03,      /* K = 10 */
(PID.TID 0000.0001)                -2.495000000000000E+03,      /* K = 11 */
(PID.TID 0000.0001)                -3.010000000000000E+03,      /* K = 12 */
(PID.TID 0000.0001)                -3.575000000000000E+03,      /* K = 13 */
(PID.TID 0000.0001)                -4.190000000000000E+03,      /* K = 14 */
(PID.TID 0000.0001)                -4.855000000000000E+03       /* K = 15 */
(PID.TID 0000.0001)     ;
(PID.TID 0000.0001) rF =   /* W-Interf. R coordinate (  units of r ) */
(PID.TID 0000.0001)                 0.000000000000000E+00,      /* K =  1 */
(PID.TID 0000.0001)                -5.000000000000000E+01,      /* K =  2 */
(PID.TID 0000.0001)                -1.200000000000000E+02,      /* K =  3 */
(PID.TID 0000.0001)                -2.200000000000000E+02,      /* K =  4 */
(PID.TID 0000.0001)                -3.600000000000000E+02,      /* K =  5 */
(PID.TID 0000.0001)                -5.500000000000000E+02,      /* K =  6 */
(PID.TID 0000.0001)                -7.900000000000000E+02,      /* K =  7 */
(PID.TID 0000.0001)                -1.080000000000000E+03,      /* K =  8 */
(PID.TID 0000.0001)                -1.420000000000000E+03,      /* K =  9 */
(PID.TID 0000.0001)                -1.810000000000000E+03,      /* K = 10 */
(PID.TID 0000.0001)                -2.250000000000000E+03,      /* K = 11 */
(PID.TID 0000.0001)                -2.740000000000000E+03,      /* K = 12 */
(PID.TID 0000.0001)                -3.280000000000000E+03,      /* K = 13 */
(PID.TID 0000.0001)                -3.870000000000000E+03,      /* K = 14 */
(PID.TID 0000.0001)                -4.510000000000000E+03,      /* K = 15 */
(PID.TID 0000.0001)                -5.200000000000000E+03       /* K = 16 */
(PID.TID 0000.0001)     ;
(PID.TID 0000.0001) deepFacC = /* deep-model grid factor @ cell-Center (-) */
(PID.TID 0000.0001)    15 @  1.000000000000000E+00              /* K =  1: 15 */
(PID.TID 0000.0001)     ;
(PID.TID 0000.0001) deepFacF = /* deep-model grid factor @ W-Interface (-) */
(PID.TID 0000.0001)    16 @  1.000000000000000E+00              /* K =  1: 16 */
(PID.TID 0000.0001)     ;
(PID.TID 0000.0001) rVel2wUnit = /* convert units: rVel -> wSpeed (=1 if z-coord)*/
(PID.TID 0000.0001)    16 @  1.000000000000000E+00              /* K =  1: 16 */
(PID.TID 0000.0001)     ;
(PID.TID 0000.0001) wUnit2rVel = /* convert units: wSpeed -> rVel (=1 if z-coord)*/
(PID.TID 0000.0001)    16 @  1.000000000000000E+00              /* K =  1: 16 */
(PID.TID 0000.0001)     ;
(PID.TID 0000.0001) dBdrRef = /* Vertical grad. of reference buoyancy [(m/s/r)^2] */
(PID.TID 0000.0001)    15 @  0.000000000000000E+00              /* K =  1: 15 */
(PID.TID 0000.0001)     ;
(PID.TID 0000.0001) rotateGrid = /* use rotated grid ( True/False ) */
(PID.TID 0000.0001)                   F
(PID.TID 0000.0001)     ;
(PID.TID 0000.0001) phiEuler = /* Euler angle, rotation about original z-coordinate [rad] */
(PID.TID 0000.0001)                 0.000000000000000E+00
(PID.TID 0000.0001)     ;
(PID.TID 0000.0001) thetaEuler = /* Euler angle, rotation about new x-coordinate [rad] */
(PID.TID 0000.0001)                 0.000000000000000E+00
(PID.TID 0000.0001)     ;
(PID.TID 0000.0001) psiEuler = /* Euler angle, rotation about new z-coordinate [rad] */
(PID.TID 0000.0001)                 0.000000000000000E+00
(PID.TID 0000.0001)     ;
(PID.TID 0000.0001) dxF =  /* dxF(:,1,:,1) ( units: m ) */
(PID.TID 0000.0001)   128 @  7.673714381622299E+03              /* I =  1:128 */
(PID.TID 0000.0001)     ;
(PID.TID 0000.0001) dxF =  /* dxF(1,:,1,:) ( units: m ) */
(PID.TID 0000.0001)                 7.673714381622299E+03,      /* J =  1 */
(PID.TID 0000.0001)                 2.300265649478360E+04,      /* J =  2 */
(PID.TID 0000.0001)                 3.827618319365421E+04,      /* J =  3 */
(PID.TID 0000.0001)                 5.345749921461356E+04,      /* J =  4 */
(PID.TID 0000.0001)                 6.851003143764105E+04,      /* J =  5 */
(PID.TID 0000.0001)                 8.339751699416524E+04,      /* J =  6 */
(PID.TID 0000.0001)                 9.808409062749070E+04,      /* J =  7 */
(PID.TID 0000.0001)                 1.125343710953429E+05,      /* J =  8 */
(PID.TID 0000.0001)                 1.267135464063795E+05,      /* J =  9 */
(PID.TID 0000.0001)                 1.405874576853274E+05,      /* J = 10 */
(PID.TID 0000.0001)                 1.541226814647045E+05,      /* J = 11 */
(PID.TID 0000.0001)                 1.672866102048804E+05,      /* J = 12 */
(PID.TID 0000.0001)                 1.800475308484964E+05,      /* J = 13 */
(PID.TID 0000.0001)                 1.923747012199971E+05,      /* J = 14 */
(PID.TID 0000.0001)                 2.042384240862251E+05,      /* J = 15 */
(PID.TID 0000.0001)                 2.156101186996563E+05,      /* J = 16 */
(PID.TID 0000.0001)                 2.264623896519241E+05,      /* J = 17 */
(PID.TID 0000.0001)                 2.367690928717577E+05,      /* J = 18 */
(PID.TID 0000.0001)                 2.465053986083400E+05,      /* J = 19 */
(PID.TID 0000.0001)                 2.556478512483520E+05,      /* J = 20 */
(PID.TID 0000.0001)                 2.641744258225996E+05,      /* J = 21 */
(PID.TID 0000.0001)                 2.720645810660936E+05,      /* J = 22 */
(PID.TID 0000.0001)                 2.792993089037565E+05,      /* J = 23 */
(PID.TID 0000.0001)                 2.858611802425402E+05,      /* J = 24 */
(PID.TID 0000.0001)                 2.917343869596373E+05,      /* J = 25 */
(PID.TID 0000.0001)                 2.969047799856344E+05,      /* J = 26 */
(PID.TID 0000.0001)                 3.013599033908587E+05,      /* J = 27 */
(PID.TID 0000.0001)                 3.050890243928043E+05,      /* J = 28 */
(PID.TID 0000.0001)                 3.080831592123453E+05,      /* J = 29 */
(PID.TID 0000.0001)                 3.103350947164461E+05,      /* J = 30 */
(PID.TID 0000.0001)                 3.118394057952309E+05,      /* J = 31 */
(PID.TID 0000.0001)     2 @  3.125924684315491E+05,             /* J = 32: 33 */
(PID.TID 0000.0001)                 3.118394057952309E+05,      /* J = 34 */
(PID.TID 0000.0001)                 3.103350947164461E+05,      /* J = 35 */
(PID.TID 0000.0001)                 3.080831592123453E+05,      /* J = 36 */
(PID.TID 0000.0001)                 3.050890243928043E+05,      /* J = 37 */
(PID.TID 0000.0001)                 3.013599033908587E+05,      /* J = 38 */
(PID.TID 0000.0001)                 2.969047799856344E+05,      /* J = 39 */
(PID.TID 0000.0001)                 2.917343869596373E+05,      /* J = 40 */
(PID.TID 0000.0001)                 2.858611802425402E+05,      /* J = 41 */
(PID.TID 0000.0001)                 2.792993089037565E+05,      /* J = 42 */
(PID.TID 0000.0001)                 2.720645810660936E+05,      /* J = 43 */
(PID.TID 0000.0001)                 2.641744258225996E+05,      /* J = 44 */
(PID.TID 0000.0001)                 2.556478512483520E+05,      /* J = 45 */
(PID.TID 0000.0001)                 2.465053986083400E+05,      /* J = 46 */
(PID.TID 0000.0001)                 2.367690928717577E+05,      /* J = 47 */
(PID.TID 0000.0001)                 2.264623896519241E+05,      /* J = 48 */
(PID.TID 0000.0001)                 2.156101186996563E+05,      /* J = 49 */
(PID.TID 0000.0001)                 2.042384240862251E+05,      /* J = 50 */
(PID.TID 0000.0001)                 1.923747012199971E+05,      /* J = 51 */
(PID.TID 0000.0001)                 1.800475308484964E+05,      /* J = 52 */
(PID.TID 0000.0001)                 1.672866102048804E+05,      /* J = 53 */
(PID.TID 0000.0001)                 1.541226814647045E+05,      /* J = 54 */
(PID.TID 0000.0001)                 1.405874576853274E+05,      /* J = 55 */
(PID.TID 0000.0001)                 1.267135464063795E+05,      /* J = 56 */
(PID.TID 0000.0001)                 1.125343710953429E+05,      /* J = 57 */
(PID.TID 0000.0001)                 9.808409062749070E+04,      /* J = 58 */
(PID.TID 0000.0001)                 8.339751699416524E+04,      /* J = 59 */
(PID.TID 0000.0001)                 6.851003143764105E+04,      /* J = 60 */
(PID.TID 0000.0001)                 5.345749921461356E+04,      /* J = 61 */
(PID.TID 0000.0001)                 3.827618319365421E+04,      /* J = 62 */
(PID.TID 0000.0001)                 2.300265649478360E+04,      /* J = 63 */
(PID.TID 0000.0001)                 7.673714381622299E+03       /* J = 64 */
(PID.TID 0000.0001)     ;
(PID.TID 0000.0001) dyF =  /* dyF(:,1,:,1) ( units: m ) */
(PID.TID 0000.0001)   128 @  3.126866438026091E+05              /* I =  1:128 */
(PID.TID 0000.0001)     ;
(PID.TID 0000.0001) dyF =  /* dyF(1,:,1,:) ( units: m ) */
(PID.TID 0000.0001)    64 @  3.126866438026091E+05              /* J =  1: 64 */
(PID.TID 0000.0001)     ;
(PID.TID 0000.0001) dxG =  /* dxG(:,1,:,1) ( units: m ) */
(PID.TID 0000.0001)   128 @  0.000000000000000E+00              /* I =  1:128 */
(PID.TID 0000.0001)     ;
(PID.TID 0000.0001) dxG =  /* dxG(1,:,1,:) ( units: m ) */
(PID.TID 0000.0001)                 0.000000000000000E+00,      /* J =  1 */
(PID.TID 0000.0001)                 1.534280640463982E+04,      /* J =  2 */
(PID.TID 0000.0001)                 3.064865064477965E+04,      /* J =  3 */
(PID.TID 0000.0001)                 4.588065960101153E+04,      /* J =  4 */
(PID.TID 0000.0001)                 6.100213802959342E+04,      /* J =  5 */
(PID.TID 0000.0001)                 7.597665696450579E+04,      /* J =  6 */
(PID.TID 0000.0001)                 9.076814147802141E+04,      /* J =  7 */
(PID.TID 0000.0001)                 1.053409575883663E+05,      /* J =  8 */
(PID.TID 0000.0001)                 1.196599981051027E+05,      /* J =  9 */
(PID.TID 0000.0001)                 1.336907672054259E+05,      /* J = 10 */
(PID.TID 0000.0001)                 1.473994635376230E+05,      /* J = 11 */
(PID.TID 0000.0001)                 1.607530616514898E+05,      /* J = 12 */
(PID.TID 0000.0001)                 1.737193915595329E+05,      /* J = 13 */
(PID.TID 0000.0001)                 1.862672162372875E+05,      /* J = 14 */
(PID.TID 0000.0001)                 1.983663068760452E+05,      /* J = 15 */
(PID.TID 0000.0001)                 2.099875157067021E+05,      /* J = 16 */
(PID.TID 0000.0001)                 2.211028462192875E+05,      /* J = 17 */
(PID.TID 0000.0001)                 2.316855206090085E+05,      /* J = 18 */
(PID.TID 0000.0001)                 2.417100442863276E+05,      /* J = 19 */
(PID.TID 0000.0001)                 2.511522672956614E+05,      /* J = 20 */
(PID.TID 0000.0001)                 2.599894424947394E+05,      /* J = 21 */
(PID.TID 0000.0001)                 2.682002803544621E+05,      /* J = 22 */
(PID.TID 0000.0001)                 2.757650002472408E+05,      /* J = 23 */
(PID.TID 0000.0001)                 2.826653781002625E+05,      /* J = 24 */
(PID.TID 0000.0001)                 2.888847902988777E+05,      /* J = 25 */
(PID.TID 0000.0001)                 2.944082537343438E+05,      /* J = 26 */
(PID.TID 0000.0001)                 2.992224618994463E+05,      /* J = 27 */
(PID.TID 0000.0001)                 3.033158169450409E+05,      /* J = 28 */
(PID.TID 0000.0001)                 3.066784576202870E+05,      /* J = 29 */
(PID.TID 0000.0001)                 3.093022830292655E+05,      /* J = 30 */
(PID.TID 0000.0001)                 3.111809721467461E+05,      /* J = 31 */
(PID.TID 0000.0001)                 3.123099990460912E+05,      /* J = 32 */
(PID.TID 0000.0001)                 3.126866438026091E+05,      /* J = 33 */
(PID.TID 0000.0001)                 3.123099990460912E+05,      /* J = 34 */
(PID.TID 0000.0001)                 3.111809721467461E+05,      /* J = 35 */
(PID.TID 0000.0001)                 3.093022830292655E+05,      /* J = 36 */
(PID.TID 0000.0001)                 3.066784576202870E+05,      /* J = 37 */
(PID.TID 0000.0001)                 3.033158169450409E+05,      /* J = 38 */
(PID.TID 0000.0001)                 2.992224618994463E+05,      /* J = 39 */
(PID.TID 0000.0001)                 2.944082537343438E+05,      /* J = 40 */
(PID.TID 0000.0001)                 2.888847902988777E+05,      /* J = 41 */
(PID.TID 0000.0001)                 2.826653781002625E+05,      /* J = 42 */
(PID.TID 0000.0001)                 2.757650002472408E+05,      /* J = 43 */
(PID.TID 0000.0001)                 2.682002803544621E+05,      /* J = 44 */
(PID.TID 0000.0001)                 2.599894424947394E+05,      /* J = 45 */
(PID.TID 0000.0001)                 2.511522672956614E+05,      /* J = 46 */
(PID.TID 0000.0001)                 2.417100442863276E+05,      /* J = 47 */
(PID.TID 0000.0001)                 2.316855206090085E+05,      /* J = 48 */
(PID.TID 0000.0001)                 2.211028462192875E+05,      /* J = 49 */
(PID.TID 0000.0001)                 2.099875157067021E+05,      /* J = 50 */
(PID.TID 0000.0001)                 1.983663068760452E+05,      /* J = 51 */
(PID.TID 0000.0001)                 1.862672162372875E+05,      /* J = 52 */
(PID.TID 0000.0001)                 1.737193915595329E+05,      /* J = 53 */
(PID.TID 0000.0001)                 1.607530616514898E+05,      /* J = 54 */
(PID.TID 0000.0001)                 1.473994635376230E+05,      /* J = 55 */
(PID.TID 0000.0001)                 1.336907672054259E+05,      /* J = 56 */
(PID.TID 0000.0001)                 1.196599981051027E+05,      /* J = 57 */
(PID.TID 0000.0001)                 1.053409575883663E+05,      /* J = 58 */
(PID.TID 0000.0001)                 9.076814147802141E+04,      /* J = 59 */
(PID.TID 0000.0001)                 7.597665696450579E+04,      /* J = 60 */
(PID.TID 0000.0001)                 6.100213802959342E+04,      /* J = 61 */
(PID.TID 0000.0001)                 4.588065960101153E+04,      /* J = 62 */
(PID.TID 0000.0001)                 3.064865064477965E+04,      /* J = 63 */
(PID.TID 0000.0001)                 1.534280640463982E+04       /* J = 64 */
(PID.TID 0000.0001)     ;
(PID.TID 0000.0001) dyG =  /* dyG(:,1,:,1) ( units: m ) */
(PID.TID 0000.0001)   128 @  3.126866438026091E+05              /* I =  1:128 */
(PID.TID 0000.0001)     ;
(PID.TID 0000.0001) dyG =  /* dyG(1,:,1,:) ( units: m ) */
(PID.TID 0000.0001)    64 @  3.126866438026091E+05              /* J =  1: 64 */
(PID.TID 0000.0001)     ;
(PID.TID 0000.0001) dxC =  /* dxC(:,1,:,1) ( units: m ) */
(PID.TID 0000.0001)   128 @  7.673714381622299E+03              /* I =  1:128 */
(PID.TID 0000.0001)     ;
(PID.TID 0000.0001) dxC =  /* dxC(1,:,1,:) ( units: m ) */
(PID.TID 0000.0001)                 7.673714381622299E+03,      /* J =  1 */
(PID.TID 0000.0001)                 2.300265649478360E+04,      /* J =  2 */
(PID.TID 0000.0001)                 3.827618319365421E+04,      /* J =  3 */
(PID.TID 0000.0001)                 5.345749921461356E+04,      /* J =  4 */
(PID.TID 0000.0001)                 6.851003143764105E+04,      /* J =  5 */
(PID.TID 0000.0001)                 8.339751699416524E+04,      /* J =  6 */
(PID.TID 0000.0001)                 9.808409062749070E+04,      /* J =  7 */
(PID.TID 0000.0001)                 1.125343710953429E+05,      /* J =  8 */
(PID.TID 0000.0001)                 1.267135464063795E+05,      /* J =  9 */
(PID.TID 0000.0001)                 1.405874576853274E+05,      /* J = 10 */
(PID.TID 0000.0001)                 1.541226814647045E+05,      /* J = 11 */
(PID.TID 0000.0001)                 1.672866102048804E+05,      /* J = 12 */
(PID.TID 0000.0001)                 1.800475308484964E+05,      /* J = 13 */
(PID.TID 0000.0001)                 1.923747012199971E+05,      /* J = 14 */
(PID.TID 0000.0001)                 2.042384240862251E+05,      /* J = 15 */
(PID.TID 0000.0001)                 2.156101186996563E+05,      /* J = 16 */
(PID.TID 0000.0001)                 2.264623896519241E+05,      /* J = 17 */
(PID.TID 0000.0001)                 2.367690928717577E+05,      /* J = 18 */
(PID.TID 0000.0001)                 2.465053986083400E+05,      /* J = 19 */
(PID.TID 0000.0001)                 2.556478512483520E+05,      /* J = 20 */
(PID.TID 0000.0001)                 2.641744258225996E+05,      /* J = 21 */
(PID.TID 0000.0001)                 2.720645810660936E+05,      /* J = 22 */
(PID.TID 0000.0001)                 2.792993089037565E+05,      /* J = 23 */
(PID.TID 0000.0001)                 2.858611802425402E+05,      /* J = 24 */
(PID.TID 0000.0001)                 2.917343869596373E+05,      /* J = 25 */
(PID.TID 0000.0001)                 2.969047799856344E+05,      /* J = 26 */
(PID.TID 0000.0001)                 3.013599033908587E+05,      /* J = 27 */
(PID.TID 0000.0001)                 3.050890243928043E+05,      /* J = 28 */
(PID.TID 0000.0001)                 3.080831592123453E+05,      /* J = 29 */
(PID.TID 0000.0001)                 3.103350947164461E+05,      /* J = 30 */
(PID.TID 0000.0001)                 3.118394057952309E+05,      /* J = 31 */
(PID.TID 0000.0001)     2 @  3.125924684315491E+05,             /* J = 32: 33 */
(PID.TID 0000.0001)                 3.118394057952309E+05,      /* J = 34 */
(PID.TID 0000.0001)                 3.103350947164461E+05,      /* J = 35 */
(PID.TID 0000.0001)                 3.080831592123453E+05,      /* J = 36 */
(PID.TID 0000.0001)                 3.050890243928043E+05,      /* J = 37 */
(PID.TID 0000.0001)                 3.013599033908587E+05,      /* J = 38 */
(PID.TID 0000.0001)                 2.969047799856344E+05,      /* J = 39 */
(PID.TID 0000.0001)                 2.917343869596373E+05,      /* J = 40 */
(PID.TID 0000.0001)                 2.858611802425402E+05,      /* J = 41 */
(PID.TID 0000.0001)                 2.792993089037565E+05,      /* J = 42 */
(PID.TID 0000.0001)                 2.720645810660936E+05,      /* J = 43 */
(PID.TID 0000.0001)                 2.641744258225996E+05,      /* J = 44 */
(PID.TID 0000.0001)                 2.556478512483520E+05,      /* J = 45 */
(PID.TID 0000.0001)                 2.465053986083400E+05,      /* J = 46 */
(PID.TID 0000.0001)                 2.367690928717577E+05,      /* J = 47 */
(PID.TID 0000.0001)                 2.264623896519241E+05,      /* J = 48 */
(PID.TID 0000.0001)                 2.156101186996563E+05,      /* J = 49 */
(PID.TID 0000.0001)                 2.042384240862251E+05,      /* J = 50 */
(PID.TID 0000.0001)                 1.923747012199971E+05,      /* J = 51 */
(PID.TID 0000.0001)                 1.800475308484964E+05,      /* J = 52 */
(PID.TID 0000.0001)                 1.672866102048804E+05,      /* J = 53 */
(PID.TID 0000.0001)                 1.541226814647045E+05,      /* J = 54 */
(PID.TID 0000.0001)                 1.405874576853274E+05,      /* J = 55 */
(PID.TID 0000.0001)                 1.267135464063795E+05,      /* J = 56 */
(PID.TID 0000.0001)                 1.125343710953429E+05,      /* J = 57 */
(PID.TID 0000.0001)                 9.808409062749070E+04,      /* J = 58 */
(PID.TID 0000.0001)                 8.339751699416524E+04,      /* J = 59 */
(PID.TID 0000.0001)                 6.851003143764105E+04,      /* J = 60 */
(PID.TID 0000.0001)                 5.345749921461356E+04,      /* J = 61 */
(PID.TID 0000.0001)                 3.827618319365421E+04,      /* J = 62 */
(PID.TID 0000.0001)                 2.300265649478360E+04,      /* J = 63 */
(PID.TID 0000.0001)                 7.673714381622299E+03       /* J = 64 */
(PID.TID 0000.0001)     ;
(PID.TID 0000.0001) dyC =  /* dyC(:,1,:,1) ( units: m ) */
(PID.TID 0000.0001)   128 @  3.126866438026091E+05              /* I =  1:128 */
(PID.TID 0000.0001)     ;
(PID.TID 0000.0001) dyC =  /* dyC(1,:,1,:) ( units: m ) */
(PID.TID 0000.0001)    64 @  3.126866438026091E+05              /* J =  1: 64 */
(PID.TID 0000.0001)     ;
(PID.TID 0000.0001) dxV =  /* dxV(:,1,:,1) ( units: m ) */
(PID.TID 0000.0001)   128 @  0.000000000000000E+00              /* I =  1:128 */
(PID.TID 0000.0001)     ;
(PID.TID 0000.0001) dxV =  /* dxV(1,:,1,:) ( units: m ) */
(PID.TID 0000.0001)                 0.000000000000000E+00,      /* J =  1 */
(PID.TID 0000.0001)                 1.534280640463982E+04,      /* J =  2 */
(PID.TID 0000.0001)                 3.064865064477965E+04,      /* J =  3 */
(PID.TID 0000.0001)                 4.588065960101153E+04,      /* J =  4 */
(PID.TID 0000.0001)                 6.100213802959342E+04,      /* J =  5 */
(PID.TID 0000.0001)                 7.597665696450579E+04,      /* J =  6 */
(PID.TID 0000.0001)                 9.076814147802141E+04,      /* J =  7 */
(PID.TID 0000.0001)                 1.053409575883663E+05,      /* J =  8 */
(PID.TID 0000.0001)                 1.196599981051027E+05,      /* J =  9 */
(PID.TID 0000.0001)                 1.336907672054259E+05,      /* J = 10 */
(PID.TID 0000.0001)                 1.473994635376230E+05,      /* J = 11 */
(PID.TID 0000.0001)                 1.607530616514898E+05,      /* J = 12 */
(PID.TID 0000.0001)                 1.737193915595329E+05,      /* J = 13 */
(PID.TID 0000.0001)                 1.862672162372875E+05,      /* J = 14 */
(PID.TID 0000.0001)                 1.983663068760452E+05,      /* J = 15 */
(PID.TID 0000.0001)                 2.099875157067021E+05,      /* J = 16 */
(PID.TID 0000.0001)                 2.211028462192875E+05,      /* J = 17 */
(PID.TID 0000.0001)                 2.316855206090085E+05,      /* J = 18 */
(PID.TID 0000.0001)                 2.417100442863276E+05,      /* J = 19 */
(PID.TID 0000.0001)                 2.511522672956614E+05,      /* J = 20 */
(PID.TID 0000.0001)                 2.599894424947394E+05,      /* J = 21 */
(PID.TID 0000.0001)                 2.682002803544621E+05,      /* J = 22 */
(PID.TID 0000.0001)                 2.757650002472408E+05,      /* J = 23 */
(PID.TID 0000.0001)                 2.826653781002625E+05,      /* J = 24 */
(PID.TID 0000.0001)                 2.888847902988777E+05,      /* J = 25 */
(PID.TID 0000.0001)                 2.944082537343438E+05,      /* J = 26 */
(PID.TID 0000.0001)                 2.992224618994463E+05,      /* J = 27 */
(PID.TID 0000.0001)                 3.033158169450409E+05,      /* J = 28 */
(PID.TID 0000.0001)                 3.066784576202870E+05,      /* J = 29 */
(PID.TID 0000.0001)                 3.093022830292655E+05,      /* J = 30 */
(PID.TID 0000.0001)                 3.111809721467461E+05,      /* J = 31 */
(PID.TID 0000.0001)                 3.123099990460912E+05,      /* J = 32 */
(PID.TID 0000.0001)                 3.126866438026091E+05,      /* J = 33 */
(PID.TID 0000.0001)                 3.123099990460912E+05,      /* J = 34 */
(PID.TID 0000.0001)                 3.111809721467461E+05,      /* J = 35 */
(PID.TID 0000.0001)                 3.093022830292655E+05,      /* J = 36 */
(PID.TID 0000.0001)                 3.066784576202870E+05,      /* J = 37 */
(PID.TID 0000.0001)                 3.033158169450409E+05,      /* J = 38 */
(PID.TID 0000.0001)                 2.992224618994463E+05,      /* J = 39 */
(PID.TID 0000.0001)                 2.944082537343438E+05,      /* J = 40 */
(PID.TID 0000.0001)                 2.888847902988777E+05,      /* J = 41 */
(PID.TID 0000.0001)                 2.826653781002625E+05,      /* J = 42 */
(PID.TID 0000.0001)                 2.757650002472408E+05,      /* J = 43 */
(PID.TID 0000.0001)                 2.682002803544621E+05,      /* J = 44 */
(PID.TID 0000.0001)                 2.599894424947394E+05,      /* J = 45 */
(PID.TID 0000.0001)                 2.511522672956614E+05,      /* J = 46 */
(PID.TID 0000.0001)                 2.417100442863276E+05,      /* J = 47 */
(PID.TID 0000.0001)                 2.316855206090085E+05,      /* J = 48 */
(PID.TID 0000.0001)                 2.211028462192875E+05,      /* J = 49 */
(PID.TID 0000.0001)                 2.099875157067021E+05,      /* J = 50 */
(PID.TID 0000.0001)                 1.983663068760452E+05,      /* J = 51 */
(PID.TID 0000.0001)                 1.862672162372875E+05,      /* J = 52 */
(PID.TID 0000.0001)                 1.737193915595329E+05,      /* J = 53 */
(PID.TID 0000.0001)                 1.607530616514898E+05,      /* J = 54 */
(PID.TID 0000.0001)                 1.473994635376230E+05,      /* J = 55 */
(PID.TID 0000.0001)                 1.336907672054259E+05,      /* J = 56 */
(PID.TID 0000.0001)                 1.196599981051027E+05,      /* J = 57 */
(PID.TID 0000.0001)                 1.053409575883663E+05,      /* J = 58 */
(PID.TID 0000.0001)                 9.076814147802141E+04,      /* J = 59 */
(PID.TID 0000.0001)                 7.597665696450579E+04,      /* J = 60 */
(PID.TID 0000.0001)                 6.100213802959342E+04,      /* J = 61 */
(PID.TID 0000.0001)                 4.588065960101153E+04,      /* J = 62 */
(PID.TID 0000.0001)                 3.064865064477965E+04,      /* J = 63 */
(PID.TID 0000.0001)                 1.534280640463982E+04       /* J = 64 */
(PID.TID 0000.0001)     ;
(PID.TID 0000.0001) dyU =  /* dyU(:,1,:,1) ( units: m ) */
(PID.TID 0000.0001)   128 @  3.126866438026091E+05              /* I =  1:128 */
(PID.TID 0000.0001)     ;
(PID.TID 0000.0001) dyU =  /* dyU(1,:,1,:) ( units: m ) */
(PID.TID 0000.0001)    64 @  3.126866438026091E+05              /* J =  1: 64 */
(PID.TID 0000.0001)     ;
(PID.TID 0000.0001) rA  =  /* rA (:,1,:,1) ( units: m^2 ) */
(PID.TID 0000.0001)   128 @  2.399227099019018E+09              /* I =  1:128 */
(PID.TID 0000.0001)     ;
(PID.TID 0000.0001) rA  =  /* rA (1,:,1,:) ( units: m^2 ) */
(PID.TID 0000.0001)                 2.399227099019018E+09,      /* J =  1 */
(PID.TID 0000.0001)                 7.191901348828056E+09,      /* J =  2 */
(PID.TID 0000.0001)                 1.196724967835171E+10,      /* J =  3 */
(PID.TID 0000.0001)                 1.671376785519299E+10,      /* J =  4 */
(PID.TID 0000.0001)                 2.142002110131771E+10,      /* J =  5 */
(PID.TID 0000.0001)                 2.607467164043704E+10,      /* J =  6 */
(PID.TID 0000.0001)                 3.066650601170349E+10,      /* J =  7 */
(PID.TID 0000.0001)                 3.518446208391881E+10,      /* J =  8 */
(PID.TID 0000.0001)                 3.961765570517892E+10,      /* J =  9 */
(PID.TID 0000.0001)                 4.395540692374860E+10,      /* J = 10 */
(PID.TID 0000.0001)                 4.818726571700000E+10,      /* J = 11 */
(PID.TID 0000.0001)                 5.230303716643333E+10,      /* J = 12 */
(PID.TID 0000.0001)                 5.629280601812741E+10,      /* J = 13 */
(PID.TID 0000.0001)                 6.014696056945659E+10,      /* J = 14 */
(PID.TID 0000.0001)                 6.385621582452237E+10,      /* J = 15 */
(PID.TID 0000.0001)                 6.741163586252303E+10,      /* J = 16 */
(PID.TID 0000.0001)                 7.080465536516846E+10,      /* J = 17 */
(PID.TID 0000.0001)                 7.402710025128452E+10,      /* J = 18 */
(PID.TID 0000.0001)                 7.707120736888658E+10,      /* J = 19 */
(PID.TID 0000.0001)                 7.992964319729683E+10,      /* J = 20 */
(PID.TID 0000.0001)                 8.259552151423444E+10,      /* J = 21 */
(PID.TID 0000.0001)                 8.506241998533159E+10,      /* J = 22 */
(PID.TID 0000.0001)                 8.732439563609566E+10,      /* J = 23 */
(PID.TID 0000.0001)                 8.937599916905872E+10,      /* J = 24 */
(PID.TID 0000.0001)                 9.121228809161066E+10,      /* J = 25 */
(PID.TID 0000.0001)                 9.282883862289705E+10,      /* J = 26 */
(PID.TID 0000.0001)                 9.422175635109474E+10,      /* J = 27 */
(PID.TID 0000.0001)                 9.538768561539165E+10,      /* J = 28 */
(PID.TID 0000.0001)                 9.632381759006650E+10,      /* J = 29 */
(PID.TID 0000.0001)                 9.702789705119698E+10,      /* J = 30 */
(PID.TID 0000.0001)                 9.749822780969106E+10,      /* J = 31 */
(PID.TID 0000.0001)     2 @  9.773367679755542E+10,             /* J = 32: 33 */
(PID.TID 0000.0001)                 9.749822780969106E+10,      /* J = 34 */
(PID.TID 0000.0001)                 9.702789705119698E+10,      /* J = 35 */
(PID.TID 0000.0001)                 9.632381759006650E+10,      /* J = 36 */
(PID.TID 0000.0001)                 9.538768561539165E+10,      /* J = 37 */
(PID.TID 0000.0001)                 9.422175635109474E+10,      /* J = 38 */
(PID.TID 0000.0001)                 9.282883862289705E+10,      /* J = 39 */
(PID.TID 0000.0001)                 9.121228809161066E+10,      /* J = 40 */
(PID.TID 0000.0001)                 8.937599916905872E+10,      /* J = 41 */
(PID.TID 0000.0001)                 8.732439563609566E+10,      /* J = 42 */
(PID.TID 0000.0001)                 8.506241998533159E+10,      /* J = 43 */
(PID.TID 0000.0001)                 8.259552151423444E+10,      /* J = 44 */
(PID.TID 0000.0001)                 7.992964319729683E+10,      /* J = 45 */
(PID.TID 0000.0001)                 7.707120736888658E+10,      /* J = 46 */
(PID.TID 0000.0001)                 7.402710025128452E+10,      /* J = 47 */
(PID.TID 0000.0001)                 7.080465536516846E+10,      /* J = 48 */
(PID.TID 0000.0001)                 6.741163586252303E+10,      /* J = 49 */
(PID.TID 0000.0001)                 6.385621582452237E+10,      /* J = 50 */
(PID.TID 0000.0001)                 6.014696056945659E+10,      /* J = 51 */
(PID.TID 0000.0001)                 5.629280601812741E+10,      /* J = 52 */
(PID.TID 0000.0001)                 5.230303716643333E+10,      /* J = 53 */
(PID.TID 0000.0001)                 4.818726571700000E+10,      /* J = 54 */
(PID.TID 0000.0001)                 4.395540692374860E+10,      /* J = 55 */
(PID.TID 0000.0001)                 3.961765570517892E+10,      /* J = 56 */
(PID.TID 0000.0001)                 3.518446208391881E+10,      /* J = 57 */
(PID.TID 0000.0001)                 3.066650601170349E+10,      /* J = 58 */
(PID.TID 0000.0001)                 2.607467164043704E+10,      /* J = 59 */
(PID.TID 0000.0001)                 2.142002110131771E+10,      /* J = 60 */
(PID.TID 0000.0001)                 1.671376785519299E+10,      /* J = 61 */
(PID.TID 0000.0001)                 1.196724967835171E+10,      /* J = 62 */
(PID.TID 0000.0001)                 7.191901348828056E+09,      /* J = 63 */
(PID.TID 0000.0001)                 2.399227099019018E+09       /* J = 64 */
(PID.TID 0000.0001)     ;
(PID.TID 0000.0001) rAw =  /* rAw(:,1,:,1) ( units: m^2 ) */
(PID.TID 0000.0001)   128 @  2.399227099019018E+09              /* I =  1:128 */
(PID.TID 0000.0001)     ;
(PID.TID 0000.0001) rAw =  /* rAw(1,:,1,:) ( units: m^2 ) */
(PID.TID 0000.0001)                 2.399227099019018E+09,      /* J =  1 */
(PID.TID 0000.0001)                 7.191901348828056E+09,      /* J =  2 */
(PID.TID 0000.0001)                 1.196724967835171E+10,      /* J =  3 */
(PID.TID 0000.0001)                 1.671376785519299E+10,      /* J =  4 */
(PID.TID 0000.0001)                 2.142002110131771E+10,      /* J =  5 */
(PID.TID 0000.0001)                 2.607467164043704E+10,      /* J =  6 */
(PID.TID 0000.0001)                 3.066650601170349E+10,      /* J =  7 */
(PID.TID 0000.0001)                 3.518446208391881E+10,      /* J =  8 */
(PID.TID 0000.0001)                 3.961765570517892E+10,      /* J =  9 */
(PID.TID 0000.0001)                 4.395540692374860E+10,      /* J = 10 */
(PID.TID 0000.0001)                 4.818726571700000E+10,      /* J = 11 */
(PID.TID 0000.0001)                 5.230303716643333E+10,      /* J = 12 */
(PID.TID 0000.0001)                 5.629280601812741E+10,      /* J = 13 */
(PID.TID 0000.0001)                 6.014696056945659E+10,      /* J = 14 */
(PID.TID 0000.0001)                 6.385621582452237E+10,      /* J = 15 */
(PID.TID 0000.0001)                 6.741163586252303E+10,      /* J = 16 */
(PID.TID 0000.0001)                 7.080465536516846E+10,      /* J = 17 */
(PID.TID 0000.0001)                 7.402710025128452E+10,      /* J = 18 */
(PID.TID 0000.0001)                 7.707120736888658E+10,      /* J = 19 */
(PID.TID 0000.0001)                 7.992964319729683E+10,      /* J = 20 */
(PID.TID 0000.0001)                 8.259552151423444E+10,      /* J = 21 */
(PID.TID 0000.0001)                 8.506241998533159E+10,      /* J = 22 */
(PID.TID 0000.0001)                 8.732439563609566E+10,      /* J = 23 */
(PID.TID 0000.0001)                 8.937599916905872E+10,      /* J = 24 */
(PID.TID 0000.0001)                 9.121228809161066E+10,      /* J = 25 */
(PID.TID 0000.0001)                 9.282883862289705E+10,      /* J = 26 */
(PID.TID 0000.0001)                 9.422175635109474E+10,      /* J = 27 */
(PID.TID 0000.0001)                 9.538768561539165E+10,      /* J = 28 */
(PID.TID 0000.0001)                 9.632381759006650E+10,      /* J = 29 */
(PID.TID 0000.0001)                 9.702789705119698E+10,      /* J = 30 */
(PID.TID 0000.0001)                 9.749822780969106E+10,      /* J = 31 */
(PID.TID 0000.0001)     2 @  9.773367679755542E+10,             /* J = 32: 33 */
(PID.TID 0000.0001)                 9.749822780969106E+10,      /* J = 34 */
(PID.TID 0000.0001)                 9.702789705119698E+10,      /* J = 35 */
(PID.TID 0000.0001)                 9.632381759006650E+10,      /* J = 36 */
(PID.TID 0000.0001)                 9.538768561539165E+10,      /* J = 37 */
(PID.TID 0000.0001)                 9.422175635109474E+10,      /* J = 38 */
(PID.TID 0000.0001)                 9.282883862289705E+10,      /* J = 39 */
(PID.TID 0000.0001)                 9.121228809161066E+10,      /* J = 40 */
(PID.TID 0000.0001)                 8.937599916905872E+10,      /* J = 41 */
(PID.TID 0000.0001)                 8.732439563609566E+10,      /* J = 42 */
(PID.TID 0000.0001)                 8.506241998533159E+10,      /* J = 43 */
(PID.TID 0000.0001)                 8.259552151423444E+10,      /* J = 44 */
(PID.TID 0000.0001)                 7.992964319729683E+10,      /* J = 45 */
(PID.TID 0000.0001)                 7.707120736888658E+10,      /* J = 46 */
(PID.TID 0000.0001)                 7.402710025128452E+10,      /* J = 47 */
(PID.TID 0000.0001)                 7.080465536516846E+10,      /* J = 48 */
(PID.TID 0000.0001)                 6.741163586252303E+10,      /* J = 49 */
(PID.TID 0000.0001)                 6.385621582452237E+10,      /* J = 50 */
(PID.TID 0000.0001)                 6.014696056945659E+10,      /* J = 51 */
(PID.TID 0000.0001)                 5.629280601812741E+10,      /* J = 52 */
(PID.TID 0000.0001)                 5.230303716643333E+10,      /* J = 53 */
(PID.TID 0000.0001)                 4.818726571700000E+10,      /* J = 54 */
(PID.TID 0000.0001)                 4.395540692374860E+10,      /* J = 55 */
(PID.TID 0000.0001)                 3.961765570517892E+10,      /* J = 56 */
(PID.TID 0000.0001)                 3.518446208391881E+10,      /* J = 57 */
(PID.TID 0000.0001)                 3.066650601170349E+10,      /* J = 58 */
(PID.TID 0000.0001)                 2.607467164043704E+10,      /* J = 59 */
(PID.TID 0000.0001)                 2.142002110131771E+10,      /* J = 60 */
(PID.TID 0000.0001)                 1.671376785519299E+10,      /* J = 61 */
(PID.TID 0000.0001)                 1.196724967835171E+10,      /* J = 62 */
(PID.TID 0000.0001)                 7.191901348828056E+09,      /* J = 63 */
(PID.TID 0000.0001)                 2.399227099019018E+09       /* J = 64 */
(PID.TID 0000.0001)     ;
(PID.TID 0000.0001) rAs =  /* rAs(:,1,:,1) ( units: m^2 ) */
(PID.TID 0000.0001)   128 @  0.000000000000000E+00              /* I =  1:128 */
(PID.TID 0000.0001)     ;
(PID.TID 0000.0001) rAs =  /* rAs(1,:,1,:) ( units: m^2 ) */
(PID.TID 0000.0001)                 0.000000000000000E+00,      /* J =  1 */
(PID.TID 0000.0001)                 4.797008993346594E+09,      /* J =  2 */
(PID.TID 0000.0001)                 9.582461571859739E+09,      /* J =  3 */
(PID.TID 0000.0001)                 1.434482916112175E+10,      /* J =  4 */
(PID.TID 0000.0001)                 1.907263880047594E+10,      /* J =  5 */
(PID.TID 0000.0001)                 2.375450078239423E+10,      /* J =  6 */
(PID.TID 0000.0001)                 2.837913609127881E+10,      /* J =  7 */
(PID.TID 0000.0001)                 3.293540357560110E+10,      /* J =  8 */
(PID.TID 0000.0001)                 3.741232678790870E+10,      /* J =  9 */
(PID.TID 0000.0001)                 4.179912042805190E+10,      /* J = 10 */
(PID.TID 0000.0001)                 4.608521632591324E+10,      /* J = 11 */
(PID.TID 0000.0001)                 5.026028890105701E+10,      /* J = 12 */
(PID.TID 0000.0001)                 5.431428003795675E+10,      /* J = 13 */
(PID.TID 0000.0001)                 5.823742331687641E+10,      /* J = 14 */
(PID.TID 0000.0001)                 6.202026754202965E+10,      /* J = 15 */
(PID.TID 0000.0001)                 6.565369951034003E+10,      /* J = 16 */
(PID.TID 0000.0001)                 6.912896596594559E+10,      /* J = 17 */
(PID.TID 0000.0001)                 7.243769468755632E+10,      /* J = 18 */
(PID.TID 0000.0001)                 7.557191465787256E+10,      /* J = 19 */
(PID.TID 0000.0001)                 7.852407526645966E+10,      /* J = 20 */
(PID.TID 0000.0001)                 8.128706449983365E+10,      /* J = 21 */
(PID.TID 0000.0001)                 8.385422607492096E+10,      /* J = 22 */
(PID.TID 0000.0001)                 8.621937547463148E+10,      /* J = 23 */
(PID.TID 0000.0001)                 8.837681484689812E+10,      /* J = 24 */
(PID.TID 0000.0001)                 9.032134673130376E+10,      /* J = 25 */
(PID.TID 0000.0001)                 9.204828658021815E+10,      /* J = 26 */
(PID.TID 0000.0001)                 9.355347404428317E+10,      /* J = 27 */
(PID.TID 0000.0001)                 9.483328299505896E+10,      /* J = 28 */
(PID.TID 0000.0001)                 9.588463026068500E+10,      /* J = 29 */
(PID.TID 0000.0001)                 9.670498305351135E+10,      /* J = 30 */
(PID.TID 0000.0001)                 9.729236507180571E+10,      /* J = 31 */
(PID.TID 0000.0001)                 9.764536126083739E+10,      /* J = 32 */
(PID.TID 0000.0001)                 9.776312122186816E+10,      /* J = 33 */
(PID.TID 0000.0001)                 9.764536126083739E+10,      /* J = 34 */
(PID.TID 0000.0001)                 9.729236507180571E+10,      /* J = 35 */
(PID.TID 0000.0001)                 9.670498305351135E+10,      /* J = 36 */
(PID.TID 0000.0001)                 9.588463026068500E+10,      /* J = 37 */
(PID.TID 0000.0001)                 9.483328299505896E+10,      /* J = 38 */
(PID.TID 0000.0001)                 9.355347404428317E+10,      /* J = 39 */
(PID.TID 0000.0001)                 9.204828658021815E+10,      /* J = 40 */
(PID.TID 0000.0001)                 9.032134673130376E+10,      /* J = 41 */
(PID.TID 0000.0001)                 8.837681484689812E+10,      /* J = 42 */
(PID.TID 0000.0001)                 8.621937547463148E+10,      /* J = 43 */
(PID.TID 0000.0001)                 8.385422607492096E+10,      /* J = 44 */
(PID.TID 0000.0001)                 8.128706449983365E+10,      /* J = 45 */
(PID.TID 0000.0001)                 7.852407526645966E+10,      /* J = 46 */
(PID.TID 0000.0001)                 7.557191465787256E+10,      /* J = 47 */
(PID.TID 0000.0001)                 7.243769468755632E+10,      /* J = 48 */
(PID.TID 0000.0001)                 6.912896596594559E+10,      /* J = 49 */
(PID.TID 0000.0001)                 6.565369951034003E+10,      /* J = 50 */
(PID.TID 0000.0001)                 6.202026754202965E+10,      /* J = 51 */
(PID.TID 0000.0001)                 5.823742331687641E+10,      /* J = 52 */
(PID.TID 0000.0001)                 5.431428003795675E+10,      /* J = 53 */
(PID.TID 0000.0001)                 5.026028890105701E+10,      /* J = 54 */
(PID.TID 0000.0001)                 4.608521632591324E+10,      /* J = 55 */
(PID.TID 0000.0001)                 4.179912042805190E+10,      /* J = 56 */
(PID.TID 0000.0001)                 3.741232678790870E+10,      /* J = 57 */
(PID.TID 0000.0001)                 3.293540357560110E+10,      /* J = 58 */
(PID.TID 0000.0001)                 2.837913609127881E+10,      /* J = 59 */
(PID.TID 0000.0001)                 2.375450078239423E+10,      /* J = 60 */
(PID.TID 0000.0001)                 1.907263880047594E+10,      /* J = 61 */
(PID.TID 0000.0001)                 1.434482916112175E+10,      /* J = 62 */
(PID.TID 0000.0001)                 9.582461571859739E+09,      /* J = 63 */
(PID.TID 0000.0001)                 4.797008993346594E+09       /* J = 64 */
(PID.TID 0000.0001)     ;
(PID.TID 0000.0001) globalArea = /* Integrated horizontal Area (m^2) */
(PID.TID 0000.0001)                 3.303845519009984E+14
(PID.TID 0000.0001)     ;
(PID.TID 0000.0001) the_run_name = /* Name of this simulation */
(PID.TID 0000.0001)               'Testing CFC code'
(PID.TID 0000.0001)     ;
(PID.TID 0000.0001) // =======================================================
(PID.TID 0000.0001) // End of Model config. summary
(PID.TID 0000.0001) // =======================================================
(PID.TID 0000.0001) 
(PID.TID 0000.0001) == Packages configuration : Check & print summary ==
(PID.TID 0000.0001) 
(PID.TID 0000.0001) GMREDI_CHECK: #define GMREDI
(PID.TID 0000.0001) GM_AdvForm =     /* if FALSE => use SkewFlux Form */
(PID.TID 0000.0001)                   F
(PID.TID 0000.0001)     ;
(PID.TID 0000.0001) GM_InMomAsStress = /* if TRUE => apply as Eddy Stress */
(PID.TID 0000.0001)                   F
(PID.TID 0000.0001)     ;
(PID.TID 0000.0001) GM_AdvSeparate = /* Calc Bolus & Euler Adv. separately */
(PID.TID 0000.0001)                   F
(PID.TID 0000.0001)     ;
(PID.TID 0000.0001) GM_ExtraDiag =   /* Tensor Extra Diag (line 1&2) non 0 */
(PID.TID 0000.0001)                   F
(PID.TID 0000.0001)     ;
(PID.TID 0000.0001) GM_isopycK =    /* Background Isopyc. Diffusivity [m^2/s] */
(PID.TID 0000.0001)                 1.000000000000000E+03
(PID.TID 0000.0001)     ;
(PID.TID 0000.0001) GM_skewflx*K =  /* Background GM_SkewFlx Diffusivity [m^2/s] */
(PID.TID 0000.0001)                 1.000000000000000E+03
(PID.TID 0000.0001)     ;
(PID.TID 0000.0001) GM_advec*K =    /* Backg. GM-Advec(=Bolus) Diffusivity [m^2/s]*/
(PID.TID 0000.0001)                 0.000000000000000E+00
(PID.TID 0000.0001)     ;
(PID.TID 0000.0001) GM_Kmin_horiz = /* Minimum Horizontal Diffusivity [m^2/s] */
(PID.TID 0000.0001)                 1.000000000000000E+02
(PID.TID 0000.0001)     ;
(PID.TID 0000.0001) GM_Visbeck_alpha = /* Visbeck alpha coeff. [-] */
(PID.TID 0000.0001)                 0.000000000000000E+00
(PID.TID 0000.0001)     ;
(PID.TID 0000.0001) GM_Small_Number =  /* epsilon used in slope calc */
(PID.TID 0000.0001)                 9.999999999999999E-21
(PID.TID 0000.0001)     ;
(PID.TID 0000.0001) GM_slopeSqCutoff = /* Slope^2 cut-off value */
(PID.TID 0000.0001)                 1.000000000000000E+48
(PID.TID 0000.0001)     ;
(PID.TID 0000.0001) GM_taper_scheme =  /* Type of Tapering/Clipping scheme */
(PID.TID 0000.0001)               'gkw91                                   '
(PID.TID 0000.0001)     ;
(PID.TID 0000.0001) GM_maxSlope =  /* Maximum Slope (Tapering/Clipping) */
(PID.TID 0000.0001)                 1.000000000000000E-02
(PID.TID 0000.0001)     ;
(PID.TID 0000.0001) GM_facTrL2dz = /* Minimum Trans.Layer Thick. (factor of dz) */
(PID.TID 0000.0001)                 1.000000000000000E+00
(PID.TID 0000.0001)     ;
(PID.TID 0000.0001) GM_facTrL2ML = /* Max.Trans.Layer Thick. (factor of MxL Depth)*/
(PID.TID 0000.0001)                 5.000000000000000E+00
(PID.TID 0000.0001)     ;
(PID.TID 0000.0001) GM_maxTransLay = /* Maximum Transition Layer Thickness [m] */
(PID.TID 0000.0001)                 5.000000000000000E+02
(PID.TID 0000.0001)     ;
(PID.TID 0000.0001) GM_UseBVP = /* if TRUE => use bvp a la Ferrari et al. (2010) */
(PID.TID 0000.0001)                   F
(PID.TID 0000.0001)     ;
(PID.TID 0000.0001) GM_BVP_ModeNumber = /* Vertical mode number for BVP wave speed */
(PID.TID 0000.0001)                       1
(PID.TID 0000.0001)     ;
(PID.TID 0000.0001) GM_BVP_cMin = /* Minimum wave speed for BVP [m/s] */
(PID.TID 0000.0001)                 1.000000000000000E-01
(PID.TID 0000.0001)     ;
(PID.TID 0000.0001) GM_useSubMeso = /* if TRUE => use Sub-Meso param. (B.Fox-Kemper) */
(PID.TID 0000.0001)                   F
(PID.TID 0000.0001)     ;
(PID.TID 0000.0001) subMeso_Ceff = /* efficiency coeff. of Mixed-Layer Eddies [-] */
(PID.TID 0000.0001)                 7.000000000000001E-02
(PID.TID 0000.0001)     ;
(PID.TID 0000.0001) subMeso_invTau = /* inverse of Sub-Meso mixing time-scale [/s] */
(PID.TID 0000.0001)                 2.000000000000000E-06
(PID.TID 0000.0001)     ;
(PID.TID 0000.0001) subMeso_LfMin = /* minimum length-scale "Lf" [m] */
(PID.TID 0000.0001)                 1.000000000000000E+03
(PID.TID 0000.0001)     ;
(PID.TID 0000.0001) subMeso_Lmax = /* maximum grid-scale length [m] */
(PID.TID 0000.0001)                 1.100000000000000E+05
(PID.TID 0000.0001)     ;
(PID.TID 0000.0001) PTRACERS_CHECK: #define ALLOW_PTRACERS
(PID.TID 0000.0001) PTRACERS_CHECK: updated GAD_OlMinSize=  2  0  1
(PID.TID 0000.0001) // ===================================
(PID.TID 0000.0001) // PTRACERS parameters
(PID.TID 0000.0001) // ===================================
(PID.TID 0000.0001) PTRACERS_numInUse = /* number of tracers */
(PID.TID 0000.0001)                       2
(PID.TID 0000.0001)     ;
(PID.TID 0000.0001) PTRACERS_Iter0 = /* timestep number when tracers are initialized */
(PID.TID 0000.0001)                 4248000
(PID.TID 0000.0001)     ;
(PID.TID 0000.0001) PTRACERS_startAllTrc =/* all tracers start @ startTime */
(PID.TID 0000.0001)                   T
(PID.TID 0000.0001)     ;
(PID.TID 0000.0001) PTRACERS_addSrelax2EmP =/* add Salt relaxation to EmP */
(PID.TID 0000.0001)                   F
(PID.TID 0000.0001)     ;
(PID.TID 0000.0001) PTRACERS_dTLev =   /* Ptracer timestep ( s ) */
(PID.TID 0000.0001)    15 @  4.320000000000000E+04              /* K =  1: 15 */
(PID.TID 0000.0001)     ;
(PID.TID 0000.0001) PTRACERS_dumpFreq = /* Frequency^-1 for snapshot output (s) */
(PID.TID 0000.0001)                 3.110400000000000E+07
(PID.TID 0000.0001)     ;
(PID.TID 0000.0001) PTRACERS_taveFreq = /* Frequency^-1 for time-Aver. output (s) */
(PID.TID 0000.0001)                 3.110400000000000E+07
(PID.TID 0000.0001)     ;
(PID.TID 0000.0001) PTRACERS_useRecords = /* all tracers in 1 file */
(PID.TID 0000.0001)                   F
(PID.TID 0000.0001)     ;
(PID.TID 0000.0001) PTRACERS_timeave_mnc = /* use MNC for Tave output */
(PID.TID 0000.0001)                   F
(PID.TID 0000.0001)     ;
(PID.TID 0000.0001) PTRACERS_snapshot_mnc = /* use MNC for snapshot output */
(PID.TID 0000.0001)                   F
(PID.TID 0000.0001)     ;
(PID.TID 0000.0001) PTRACERS_pickup_write_mnc = /* use MNC for writing pickups */
(PID.TID 0000.0001)                   F
(PID.TID 0000.0001)     ;
(PID.TID 0000.0001) PTRACERS_pickup_read_mnc = /* use MNC for reading pickups */
(PID.TID 0000.0001)                   F
(PID.TID 0000.0001)     ;
(PID.TID 0000.0001)  -----------------------------------
(PID.TID 0000.0001)  tracer number :    1
(PID.TID 0000.0001) PTRACERS_names = /* Tracer short name */
(PID.TID 0000.0001)               'cfc11'
(PID.TID 0000.0001)     ;
(PID.TID 0000.0001) PTRACERS_long_names = /* Tracer long name */
(PID.TID 0000.0001)               'CFC11'
(PID.TID 0000.0001)     ;
(PID.TID 0000.0001) PTRACERS_ioLabel = /* tracer IO Label */
(PID.TID 0000.0001)               '01'
(PID.TID 0000.0001)     ;
(PID.TID 0000.0001) PTRACERS_advScheme = /* Advection Scheme */
(PID.TID 0000.0001)                      77
(PID.TID 0000.0001)     ;
(PID.TID 0000.0001) PTRACERS_SOM_Advection = /* tracer uses SOM advection scheme */
(PID.TID 0000.0001)                   F
(PID.TID 0000.0001)     ;
(PID.TID 0000.0001) PTRACERS_ImplVertAdv = /* implicit vert. advection flag */
(PID.TID 0000.0001)                   F
(PID.TID 0000.0001)     ;
(PID.TID 0000.0001) PTRACERS_diffKh = /* Laplacian Diffusivity */
(PID.TID 0000.0001)                 0.000000000000000E+00
(PID.TID 0000.0001)     ;
(PID.TID 0000.0001) PTRACERS_diffK4 = /* Biharmonic Diffusivity */
(PID.TID 0000.0001)                 0.000000000000000E+00
(PID.TID 0000.0001)     ;
(PID.TID 0000.0001) PTRACERS_diffKrNr = /* Vertical Diffusivity */
(PID.TID 0000.0001)    15 @  5.000000000000000E-05              /* K =  1: 15 */
(PID.TID 0000.0001)     ;
(PID.TID 0000.0001) PTRACERS_useGMRedi = /* apply GM-Redi */
(PID.TID 0000.0001)                   T
(PID.TID 0000.0001)     ;
(PID.TID 0000.0001) PTRACERS_useDWNSLP = /* apply DOWN-SLOPE Flow */
(PID.TID 0000.0001)                   F
(PID.TID 0000.0001)     ;
(PID.TID 0000.0001) PTRACERS_useKPP = /* apply KPP scheme */
(PID.TID 0000.0001)                   F
(PID.TID 0000.0001)     ;
(PID.TID 0000.0001) PTRACERS_ref = /* Reference vertical profile */
(PID.TID 0000.0001)    15 @  0.000000000000000E+00              /* K =  1: 15 */
(PID.TID 0000.0001)     ;
(PID.TID 0000.0001) PTRACERS_EvPrRn =/* tracer conc. in Evap. & Rain */
(PID.TID 0000.0001)                 1.234567000000000E+05
(PID.TID 0000.0001)     ;
(PID.TID 0000.0001)  -----------------------------------
(PID.TID 0000.0001)  tracer number :    2
(PID.TID 0000.0001) PTRACERS_names = /* Tracer short name */
(PID.TID 0000.0001)               'cfc12'
(PID.TID 0000.0001)     ;
(PID.TID 0000.0001) PTRACERS_long_names = /* Tracer long name */
(PID.TID 0000.0001)               ''
(PID.TID 0000.0001)     ;
(PID.TID 0000.0001) PTRACERS_ioLabel = /* tracer IO Label */
(PID.TID 0000.0001)               '02'
(PID.TID 0000.0001)     ;
(PID.TID 0000.0001) PTRACERS_advScheme = /* Advection Scheme */
(PID.TID 0000.0001)                      77
(PID.TID 0000.0001)     ;
(PID.TID 0000.0001) PTRACERS_SOM_Advection = /* tracer uses SOM advection scheme */
(PID.TID 0000.0001)                   F
(PID.TID 0000.0001)     ;
(PID.TID 0000.0001) PTRACERS_ImplVertAdv = /* implicit vert. advection flag */
(PID.TID 0000.0001)                   F
(PID.TID 0000.0001)     ;
(PID.TID 0000.0001) PTRACERS_diffKh = /* Laplacian Diffusivity */
(PID.TID 0000.0001)                 0.000000000000000E+00
(PID.TID 0000.0001)     ;
(PID.TID 0000.0001) PTRACERS_diffK4 = /* Biharmonic Diffusivity */
(PID.TID 0000.0001)                 0.000000000000000E+00
(PID.TID 0000.0001)     ;
(PID.TID 0000.0001) PTRACERS_diffKrNr = /* Vertical Diffusivity */
(PID.TID 0000.0001)    15 @  5.000000000000000E-05              /* K =  1: 15 */
(PID.TID 0000.0001)     ;
(PID.TID 0000.0001) PTRACERS_useGMRedi = /* apply GM-Redi */
(PID.TID 0000.0001)                   T
(PID.TID 0000.0001)     ;
(PID.TID 0000.0001) PTRACERS_useDWNSLP = /* apply DOWN-SLOPE Flow */
(PID.TID 0000.0001)                   F
(PID.TID 0000.0001)     ;
(PID.TID 0000.0001) PTRACERS_useKPP = /* apply KPP scheme */
(PID.TID 0000.0001)                   F
(PID.TID 0000.0001)     ;
(PID.TID 0000.0001) PTRACERS_ref = /* Reference vertical profile */
(PID.TID 0000.0001)    15 @  0.000000000000000E+00              /* K =  1: 15 */
(PID.TID 0000.0001)     ;
(PID.TID 0000.0001) PTRACERS_EvPrRn =/* tracer conc. in Evap. & Rain */
(PID.TID 0000.0001)                 1.234567000000000E+05
(PID.TID 0000.0001)     ;
(PID.TID 0000.0001)  -----------------------------------
(PID.TID 0000.0001) GCHEM_CHECK: #define ALLOW_GCHEM
(PID.TID 0000.0001) LAYERS_CHECK: #define LAYERS
(PID.TID 0000.0001) NZZ = /* number of levels in the fine vertical grid */
(PID.TID 0000.0001)                     150
(PID.TID 0000.0001)     ;
(PID.TID 0000.0001) dZZf = /* fine vertical grid spacing for isopycnal interp */
(PID.TID 0000.0001)    10 @  5.000000000000000E+00,             /* K =  1: 10 */
(PID.TID 0000.0001)    10 @  7.000000000000000E+00,             /* K = 11: 20 */
(PID.TID 0000.0001)    10 @  1.000000000000000E+01,             /* K = 21: 30 */
(PID.TID 0000.0001)    10 @  1.400000000000000E+01,             /* K = 31: 40 */
(PID.TID 0000.0001)    10 @  1.900000000000000E+01,             /* K = 41: 50 */
(PID.TID 0000.0001)    10 @  2.400000000000000E+01,             /* K = 51: 60 */
(PID.TID 0000.0001)    10 @  2.900000000000000E+01,             /* K = 61: 70 */
(PID.TID 0000.0001)    10 @  3.400000000000000E+01,             /* K = 71: 80 */
(PID.TID 0000.0001)    10 @  3.900000000000000E+01,             /* K = 81: 90 */
(PID.TID 0000.0001)    10 @  4.400000000000000E+01,             /* K = 91:100 */
(PID.TID 0000.0001)    10 @  4.900000000000000E+01,             /* K =101:110 */
(PID.TID 0000.0001)    10 @  5.400000000000000E+01,             /* K =111:120 */
(PID.TID 0000.0001)    10 @  5.900000000000000E+01,             /* K =121:130 */
(PID.TID 0000.0001)    10 @  6.400000000000000E+01,             /* K =131:140 */
(PID.TID 0000.0001)    10 @  6.900000000000000E+01              /* K =141:150 */
(PID.TID 0000.0001)     ;
(PID.TID 0000.0001) layers_num =/* (1) theta; (2) salt; (3) prho; as averaging field */
(PID.TID 0000.0001)                       1
(PID.TID 0000.0001)     ;
(PID.TID 0000.0001) layers_name =/* (TH) theta; (SLT) salt; (RHO) prho; as averaging field */
(PID.TID 0000.0001)               'TH'
(PID.TID 0000.0001)     ;
(PID.TID 0000.0001) layers_bolus = /* include potential GM bolus velocity */
(PID.TID 0000.0001)                   F
(PID.TID 0000.0001)     ;
(PID.TID 0000.0001) layers_bounds = /* boundaries of tracer-averaging bins */
(PID.TID 0000.0001)                -5.000000000000000E+00,      /* K =  1 */
(PID.TID 0000.0001)                -4.000000000000000E+00,      /* K =  2 */
(PID.TID 0000.0001)                -3.000000000000000E+00,      /* K =  3 */
(PID.TID 0000.0001)                -2.000000000000000E+00,      /* K =  4 */
(PID.TID 0000.0001)                -1.000000000000000E+00,      /* K =  5 */
(PID.TID 0000.0001)                 0.000000000000000E+00,      /* K =  6 */
(PID.TID 0000.0001)                 1.000000000000000E+00,      /* K =  7 */
(PID.TID 0000.0001)                 2.000000000000000E+00,      /* K =  8 */
(PID.TID 0000.0001)                 3.000000000000000E+00,      /* K =  9 */
(PID.TID 0000.0001)                 4.000000000000000E+00,      /* K = 10 */
(PID.TID 0000.0001)                 5.000000000000000E+00,      /* K = 11 */
(PID.TID 0000.0001)                 6.000000000000000E+00,      /* K = 12 */
(PID.TID 0000.0001)                 7.000000000000000E+00,      /* K = 13 */
(PID.TID 0000.0001)                 8.000000000000000E+00,      /* K = 14 */
(PID.TID 0000.0001)                 9.000000000000000E+00,      /* K = 15 */
(PID.TID 0000.0001)                 1.000000000000000E+01,      /* K = 16 */
(PID.TID 0000.0001)                 1.100000000000000E+01,      /* K = 17 */
(PID.TID 0000.0001)                 1.200000000000000E+01,      /* K = 18 */
(PID.TID 0000.0001)                 1.300000000000000E+01,      /* K = 19 */
(PID.TID 0000.0001)                 1.400000000000000E+01,      /* K = 20 */
(PID.TID 0000.0001)                 1.500000000000000E+01,      /* K = 21 */
(PID.TID 0000.0001)                 1.600000000000000E+01,      /* K = 22 */
(PID.TID 0000.0001)                 1.700000000000000E+01,      /* K = 23 */
(PID.TID 0000.0001)                 1.800000000000000E+01,      /* K = 24 */
(PID.TID 0000.0001)                 1.900000000000000E+01,      /* K = 25 */
(PID.TID 0000.0001)                 2.000000000000000E+01,      /* K = 26 */
(PID.TID 0000.0001)                 2.100000000000000E+01,      /* K = 27 */
(PID.TID 0000.0001)                 2.200000000000000E+01,      /* K = 28 */
(PID.TID 0000.0001)                 2.300000000000000E+01,      /* K = 29 */
(PID.TID 0000.0001)                 2.400000000000000E+01,      /* K = 30 */
(PID.TID 0000.0001)                 2.500000000000000E+01,      /* K = 31 */
(PID.TID 0000.0001)                 2.600000000000000E+01,      /* K = 32 */
(PID.TID 0000.0001)                 2.700000000000000E+01,      /* K = 33 */
(PID.TID 0000.0001)                 2.800000000000000E+01,      /* K = 34 */
(PID.TID 0000.0001)                 2.900000000000000E+01,      /* K = 35 */
(PID.TID 0000.0001)                 3.000000000000000E+01,      /* K = 36 */
(PID.TID 0000.0001)                 3.100000000000000E+01,      /* K = 37 */
(PID.TID 0000.0001)                 3.200000000000000E+01,      /* K = 38 */
(PID.TID 0000.0001)                 3.300000000000000E+01,      /* K = 39 */
(PID.TID 0000.0001)                 3.400000000000000E+01,      /* K = 40 */
(PID.TID 0000.0001)                 3.500000000000000E+01       /* K = 41 */
(PID.TID 0000.0001)     ;
(PID.TID 0000.0001) layers_num =/* (1) theta; (2) salt; (3) prho; as averaging field */
(PID.TID 0000.0001)                       3
(PID.TID 0000.0001)     ;
(PID.TID 0000.0001) layers_name =/* (TH) theta; (SLT) salt; (RHO) prho; as averaging field */
(PID.TID 0000.0001)               'RHO'
(PID.TID 0000.0001)     ;
(PID.TID 0000.0001) layers_bolus = /* include potential GM bolus velocity */
(PID.TID 0000.0001)                   T
(PID.TID 0000.0001)     ;
(PID.TID 0000.0001) layers_krho = /* model level to reference potential density to */
(PID.TID 0000.0001)                       1
(PID.TID 0000.0001)     ;
(PID.TID 0000.0001) layers_bounds = /* boundaries of tracer-averaging bins */
(PID.TID 0000.0001)                 1.017000000000000E+03,      /* K =  1 */
(PID.TID 0000.0001)                 1.017200000000000E+03,      /* K =  2 */
(PID.TID 0000.0001)                 1.017500000000000E+03,      /* K =  3 */
(PID.TID 0000.0001)                 1.017800000000000E+03,      /* K =  4 */
(PID.TID 0000.0001)                 1.018000000000000E+03,      /* K =  5 */
(PID.TID 0000.0001)                 1.018200000000000E+03,      /* K =  6 */
(PID.TID 0000.0001)                 1.018500000000000E+03,      /* K =  7 */
(PID.TID 0000.0001)                 1.018800000000000E+03,      /* K =  8 */
(PID.TID 0000.0001)                 1.019000000000000E+03,      /* K =  9 */
(PID.TID 0000.0001)                 1.019200000000000E+03,      /* K = 10 */
(PID.TID 0000.0001)                 1.019500000000000E+03,      /* K = 11 */
(PID.TID 0000.0001)                 1.019800000000000E+03,      /* K = 12 */
(PID.TID 0000.0001)                 1.020000000000000E+03,      /* K = 13 */
(PID.TID 0000.0001)                 1.020200000000000E+03,      /* K = 14 */
(PID.TID 0000.0001)                 1.020500000000000E+03,      /* K = 15 */
(PID.TID 0000.0001)                 1.020800000000000E+03,      /* K = 16 */
(PID.TID 0000.0001)                 1.021000000000000E+03,      /* K = 17 */
(PID.TID 0000.0001)                 1.021200000000000E+03,      /* K = 18 */
(PID.TID 0000.0001)                 1.021500000000000E+03,      /* K = 19 */
(PID.TID 0000.0001)                 1.021800000000000E+03,      /* K = 20 */
(PID.TID 0000.0001)                 1.022000000000000E+03,      /* K = 21 */
(PID.TID 0000.0001)                 1.022200000000000E+03,      /* K = 22 */
(PID.TID 0000.0001)                 1.022500000000000E+03,      /* K = 23 */
(PID.TID 0000.0001)                 1.022800000000000E+03,      /* K = 24 */
(PID.TID 0000.0001)                 1.023000000000000E+03,      /* K = 25 */
(PID.TID 0000.0001)                 1.023200000000000E+03,      /* K = 26 */
(PID.TID 0000.0001)                 1.023500000000000E+03,      /* K = 27 */
(PID.TID 0000.0001)                 1.023800000000000E+03,      /* K = 28 */
(PID.TID 0000.0001)                 1.024000000000000E+03,      /* K = 29 */
(PID.TID 0000.0001)                 1.024200000000000E+03,      /* K = 30 */
(PID.TID 0000.0001)                 1.024500000000000E+03,      /* K = 31 */
(PID.TID 0000.0001)                 1.024800000000000E+03,      /* K = 32 */
(PID.TID 0000.0001)                 1.025000000000000E+03,      /* K = 33 */
(PID.TID 0000.0001)                 1.025200000000000E+03,      /* K = 34 */
(PID.TID 0000.0001)                 1.025500000000000E+03,      /* K = 35 */
(PID.TID 0000.0001)                 1.025800000000000E+03,      /* K = 36 */
(PID.TID 0000.0001)                 1.026000000000000E+03,      /* K = 37 */
(PID.TID 0000.0001)                 1.026200000000000E+03,      /* K = 38 */
(PID.TID 0000.0001)                 1.026500000000000E+03,      /* K = 39 */
(PID.TID 0000.0001)                 1.026800000000000E+03,      /* K = 40 */
(PID.TID 0000.0001)                 1.027000000000000E+03       /* K = 41 */
(PID.TID 0000.0001)     ;
(PID.TID 0000.0001) GAD_CHECK: #define ALLOW_GENERIC_ADVDIFF
(PID.TID 0000.0001) // =======================================================
(PID.TID 0000.0001) // Check Model config. (CONFIG_CHECK):
(PID.TID 0000.0001) // CONFIG_CHECK : Normal End
(PID.TID 0000.0001) // =======================================================
(PID.TID 0000.0001) 
(PID.TID 0000.0001)  MDS_READ_META: opening file: pickup.0004269600.meta
(PID.TID 0000.0001)  simulName=>Testing CFC and OFFLINE code<
(PID.TID 0000.0001)  nRecords = 123 ; filePrec =  64 ; fileIter =   4269600
(PID.TID 0000.0001)     nDims =   2 , dims:
(PID.TID 0000.0001)    1: 128   1 128
(PID.TID 0000.0001)    2:  64   1  64
(PID.TID 0000.0001)     nFlds =  11 , nFl3D =   8 , fields:
(PID.TID 0000.0001)  >Uvel    < >GuNm1   < >Vvel    < >GvNm1   < >Theta   < >GtNm1   < >Salt    < >GsNm1   < >EtaN    < >dEtaHdt < >EtaH    <
(PID.TID 0000.0001) missingVal=  1.00000000000000E+00 ; nTimRec =   0 , timeList:
(PID.TID 0000.0001) READ_MFLDS_3D_RL: read field: "Uvel    ", #   1 in fldList, rec=   1
(PID.TID 0000.0001)  MDS_READ_FIELD: opening global file: pickup.0004269600
(PID.TID 0000.0001) READ_MFLDS_3D_RL: read field: "Vvel    ", #   3 in fldList, rec=   3
(PID.TID 0000.0001)  MDS_READ_FIELD: opening global file: pickup.0004269600
(PID.TID 0000.0001) READ_MFLDS_3D_RL: read field: "Theta   ", #   5 in fldList, rec=   5
(PID.TID 0000.0001)  MDS_READ_FIELD: opening global file: pickup.0004269600
(PID.TID 0000.0001) READ_MFLDS_3D_RL: read field: "Salt    ", #   7 in fldList, rec=   7
(PID.TID 0000.0001)  MDS_READ_FIELD: opening global file: pickup.0004269600
(PID.TID 0000.0001) READ_MFLDS_3D_RL: read field: "GuNm1   ", #   2 in fldList, rec=   2
(PID.TID 0000.0001)  MDS_READ_FIELD: opening global file: pickup.0004269600
(PID.TID 0000.0001) READ_MFLDS_3D_RL: read field: "GvNm1   ", #   4 in fldList, rec=   4
(PID.TID 0000.0001)  MDS_READ_FIELD: opening global file: pickup.0004269600
(PID.TID 0000.0001) READ_MFLDS_3D_RL: read field: "GtNm1   ", #   6 in fldList, rec=   6
(PID.TID 0000.0001)  MDS_READ_FIELD: opening global file: pickup.0004269600
(PID.TID 0000.0001) READ_MFLDS_3D_RL: read field: "GsNm1   ", #   8 in fldList, rec=   8
(PID.TID 0000.0001)  MDS_READ_FIELD: opening global file: pickup.0004269600
(PID.TID 0000.0001) READ_MFLDS_3D_RL: read field: "EtaN    ", #   9 in fldList, rec= 121
(PID.TID 0000.0001)  MDS_READ_FIELD: opening global file: pickup.0004269600
(PID.TID 0000.0001) READ_MFLDS_3D_RL: read field: "dEtaHdt ", #  10 in fldList, rec= 122
(PID.TID 0000.0001)  MDS_READ_FIELD: opening global file: pickup.0004269600
(PID.TID 0000.0001) READ_MFLDS_CHECK: - normal end ; reset MFLDS file-name: pickup.0004269600
(PID.TID 0000.0001)  MDS_READ_FIELD: opening global file: tren_taux.bin
(PID.TID 0000.0001)  MDS_READ_FIELD: opening global file: tren_tauy.bin
(PID.TID 0000.0001)  MDS_READ_FIELD: opening global file: shi_qnet.bin
(PID.TID 0000.0001)  MDS_READ_FIELD: opening global file: shi_empmr_year.bin
(PID.TID 0000.0001)  MDS_READ_FIELD: opening global file: lev_monthly_temp.bin
(PID.TID 0000.0001)  MDS_READ_FIELD: opening global file: lev_monthly_salt.bin
(PID.TID 0000.0001)  write diagnostics summary to file ioUnit:      6
Iter.Nb:   4269600 ; Time(s):  1.8444672000000E+11
------------------------------------------------------------------------
2D/3D diagnostics: Number of lists:     1
------------------------------------------------------------------------
listId=    1 ; file name: DiagOcnLAYERS
 nFlds, nActive,       freq     &     phase        , nLev               
    4  |    4  |  31104000.000000         0.000000 |  40
 levels:   1   2   3   4   5   6   7   8   9  10  11  12  13  14  15  16  17  18  19  20  21  22  23  24  25
 levels:  26  27  28  29  30  31  32  33  34  35  36  37  38  39  40
 diag# | name   |   ipt  |  iMate | kLev|   count |   mate.C|           
   230 |LaUH1TH |      1 |     41 |  40 |       0 |       0 |
   231 |LaVH1TH |     41 |      1 |  40 |       0 |       0 |
   238 |LaUH2RHO|     81 |    121 |  40 |       0 |       0 |
   239 |LaVH2RHO|    121 |     81 |  40 |       0 |       0 |
------------------------------------------------------------------------
Global & Regional Statistics diagnostics: Number of lists:     1
------------------------------------------------------------------------
listId=   1 ; file name: dynStDiag
 nFlds, nActive,       freq     &     phase        |                    
    5  |    5  |  31104000.000000         0.000000 |
 Regions:   0
 diag# | name   |   ipt  |  iMate |    Volume   |   mate-Vol. |         
    23 |ETAN    |      1 |      0 | 0.00000E+00 |
    25 |DETADT2 |      2 |      0 | 0.00000E+00 |
   147 |momKE   |      3 |      0 | 0.00000E+00 |
   205 |TRAC01  |     18 |      0 | 0.00000E+00 |
   217 |TRAC02  |     33 |      0 | 0.00000E+00 |
------------------------------------------------------------------------
(PID.TID 0000.0001)  MDS_READ_FIELD: opening global file: pickup_cd.0004269600
(PID.TID 0000.0001)  MDS_READ_FIELD: opening global file: pickup_cd.0004269600
(PID.TID 0000.0001)  MDS_READ_FIELD: opening global file: pickup_cd.0004269600
(PID.TID 0000.0001)  MDS_READ_FIELD: opening global file: pickup_cd.0004269600
(PID.TID 0000.0001)  MDS_READ_FIELD: opening global file: pickup_cd.0004269600
(PID.TID 0000.0001)  MDS_READ_META: opening file: pickup_ptracers.0004269600.meta
(PID.TID 0000.0001)  simulName=>Testing CFC and OFFLINE code<
(PID.TID 0000.0001)  nRecords =   4 ; filePrec =  64 ; fileIter =   4269600
(PID.TID 0000.0001)     nDims =   3 , dims:
(PID.TID 0000.0001)    1: 128   1 128
(PID.TID 0000.0001)    2:  64   1  64
(PID.TID 0000.0001)    3:  15   1  15
(PID.TID 0000.0001)     nFlds =   4 , nFl3D =   0 , fields:
(PID.TID 0000.0001)  >pTr01   < >gPtr01m1< >pTr02   < >gPtr02m1<
(PID.TID 0000.0001) missingVal=  1.00000000000000E+00 ; nTimRec =   0 , timeList:
(PID.TID 0000.0001) READ_MFLDS_3D_RL: read field: "pTr01   ", #   1 in fldList, rec=   1
(PID.TID 0000.0001)  MDS_READ_FIELD: opening global file: pickup_ptracers.0004269600
(PID.TID 0000.0001) READ_MFLDS_3D_RL: read field: "pTr02   ", #   3 in fldList, rec=   3
(PID.TID 0000.0001)  MDS_READ_FIELD: opening global file: pickup_ptracers.0004269600
(PID.TID 0000.0001) READ_MFLDS_CHECK: - normal end ; reset MFLDS file-name: pickup_ptracers.0004269600
(PID.TID 0000.0001) // =======================================================
(PID.TID 0000.0001) // Model current state
(PID.TID 0000.0001) // =======================================================
(PID.TID 0000.0001) 
(PID.TID 0000.0001) // =======================================================
(PID.TID 0000.0001) // Begin MONITOR dynamic field statistics
(PID.TID 0000.0001) // =======================================================
(PID.TID 0000.0001) %MON time_tsnumber                =               4269600
(PID.TID 0000.0001) %MON time_secondsf                =   1.8444672000000E+11
(PID.TID 0000.0001) %MON dynstat_eta_max              =   9.3799491626183E-01
(PID.TID 0000.0001) %MON dynstat_eta_min              =  -1.7386314564848E+00
(PID.TID 0000.0001) %MON dynstat_eta_mean             =   1.2266463358173E-10
(PID.TID 0000.0001) %MON dynstat_eta_sd               =   6.5265745676200E-01
(PID.TID 0000.0001) %MON dynstat_eta_del2             =   9.3138300787100E-04
(PID.TID 0000.0001) %MON dynstat_uvel_max             =   1.5491490873546E-01
(PID.TID 0000.0001) %MON dynstat_uvel_min             =  -1.8457405440626E-01
(PID.TID 0000.0001) %MON dynstat_uvel_mean            =   2.9934320387330E-03
(PID.TID 0000.0001) %MON dynstat_uvel_sd              =   1.3951109572592E-02
(PID.TID 0000.0001) %MON dynstat_uvel_del2            =   3.8239056373947E-05
(PID.TID 0000.0001) %MON dynstat_vvel_max             =   1.1255976546006E-01
(PID.TID 0000.0001) %MON dynstat_vvel_min             =  -1.5219280874877E-01
(PID.TID 0000.0001) %MON dynstat_vvel_mean            =  -1.9319742459768E-04
(PID.TID 0000.0001) %MON dynstat_vvel_sd              =   6.3813043789212E-03
(PID.TID 0000.0001) %MON dynstat_vvel_del2            =   2.6674853891763E-05
(PID.TID 0000.0001) %MON dynstat_wvel_max             =   4.7652855208028E-05
(PID.TID 0000.0001) %MON dynstat_wvel_min             =  -6.5447650673965E-05
(PID.TID 0000.0001) %MON dynstat_wvel_mean            =  -2.0412108941503E-22
(PID.TID 0000.0001) %MON dynstat_wvel_sd              =   1.9395644452023E-06
(PID.TID 0000.0001) %MON dynstat_wvel_del2            =   1.3302967038226E-08
(PID.TID 0000.0001) %MON dynstat_theta_max            =   2.9951266237739E+01
(PID.TID 0000.0001) %MON dynstat_theta_min            =  -2.1508305460998E+00
(PID.TID 0000.0001) %MON dynstat_theta_mean           =   3.8481200863858E+00
(PID.TID 0000.0001) %MON dynstat_theta_sd             =   5.1043307772427E+00
(PID.TID 0000.0001) %MON dynstat_theta_del2           =   2.2528601456195E-03
(PID.TID 0000.0001) %MON dynstat_salt_max             =   3.7554018143596E+01
(PID.TID 0000.0001) %MON dynstat_salt_min             =   3.1355945071530E+01
(PID.TID 0000.0001) %MON dynstat_salt_mean            =   3.4547941545270E+01
(PID.TID 0000.0001) %MON dynstat_salt_sd              =   3.5670308447740E-01
(PID.TID 0000.0001) %MON dynstat_salt_del2            =   3.8232616797965E-04
(PID.TID 0000.0001) %MON forcing_qnet_max             =   4.4937911987305E+02
(PID.TID 0000.0001) %MON forcing_qnet_min             =  -2.0417861938477E+02
(PID.TID 0000.0001) %MON forcing_qnet_mean            =  -1.7476785758606E+01
(PID.TID 0000.0001) %MON forcing_qnet_sd              =   1.1366008303786E+02
(PID.TID 0000.0001) %MON forcing_qnet_del2            =   2.8634827682351E-01
(PID.TID 0000.0001) %MON forcing_qsw_max              =   0.0000000000000E+00
(PID.TID 0000.0001) %MON forcing_qsw_min              =   0.0000000000000E+00
(PID.TID 0000.0001) %MON forcing_qsw_mean             =   0.0000000000000E+00
(PID.TID 0000.0001) %MON forcing_qsw_sd               =   0.0000000000000E+00
(PID.TID 0000.0001) %MON forcing_qsw_del2             =   0.0000000000000E+00
(PID.TID 0000.0001) %MON forcing_empmr_max            =   6.9206222512719E-05
(PID.TID 0000.0001) %MON forcing_empmr_min            =  -1.5544422772962E-04
(PID.TID 0000.0001) %MON forcing_empmr_mean           =   1.2460351247397E-14
(PID.TID 0000.0001) %MON forcing_empmr_sd             =   2.4700019777611E-05
(PID.TID 0000.0001) %MON forcing_empmr_del2           =   1.1591736879229E-07
(PID.TID 0000.0001) %MON forcing_fu_max               =   2.8468748927116E-01
(PID.TID 0000.0001) %MON forcing_fu_min               =  -1.5522694587708E-01
(PID.TID 0000.0001) %MON forcing_fu_mean              =   1.7556170217893E-02
(PID.TID 0000.0001) %MON forcing_fu_sd                =   9.0000334104051E-02
(PID.TID 0000.0001) %MON forcing_fu_del2              =   2.6696712158132E-04
(PID.TID 0000.0001) %MON forcing_fv_max               =   2.1343359351158E-01
(PID.TID 0000.0001) %MON forcing_fv_min               =  -1.7404061555862E-01
(PID.TID 0000.0001) %MON forcing_fv_mean              =  -5.8961451090369E-03
(PID.TID 0000.0001) %MON forcing_fv_sd                =   4.6452039259649E-02
(PID.TID 0000.0001) %MON forcing_fv_del2              =   1.8991860252817E-04
(PID.TID 0000.0001) %MON advcfl_uvel_max              =   4.0005138780536E-02
(PID.TID 0000.0001) %MON advcfl_vvel_max              =   2.1026575545380E-02
(PID.TID 0000.0001) %MON advcfl_wvel_max              =   1.3182819385069E-02
(PID.TID 0000.0001) %MON advcfl_W_hf_max              =   1.5536894275260E-02
(PID.TID 0000.0001) %MON pe_b_mean                    =   5.8798549431581E-04
(PID.TID 0000.0001) %MON ke_max                       =   1.7905857526395E-02
(PID.TID 0000.0001) %MON ke_mean                      =   1.1257462566140E-04
(PID.TID 0000.0001) %MON ke_vol                       =   1.1739855207381E+18
(PID.TID 0000.0001) %MON vort_r_min                   =  -5.5133186185697E-07
(PID.TID 0000.0001) %MON vort_r_max                   =   6.2105153705622E-07
(PID.TID 0000.0001) %MON vort_a_mean                  =  -2.5798915502264E-05
(PID.TID 0000.0001) %MON vort_a_sd                    =   7.3558780143559E-05
(PID.TID 0000.0001) %MON vort_p_mean                  =  -3.0020960747216E-05
(PID.TID 0000.0001) %MON vort_p_sd                    =   9.8090579960580E-05
(PID.TID 0000.0001) %MON surfExpan_theta_mean         =  -3.2280392744928E-07
(PID.TID 0000.0001) %MON surfExpan_salt_mean          =   2.1997436682723E-08
(PID.TID 0000.0001) // =======================================================
(PID.TID 0000.0001) // End MONITOR dynamic field statistics
(PID.TID 0000.0001) // =======================================================
(PID.TID 0000.0001) // =======================================================
(PID.TID 0000.0001) // Begin MONITOR ptracer field statistics
(PID.TID 0000.0001) // =======================================================
(PID.TID 0000.0001) %MON trcstat_ptracer01_max        =   3.5786520731773E-10
(PID.TID 0000.0001) %MON trcstat_ptracer01_min        =  -3.6078345837471E-12
(PID.TID 0000.0001) %MON trcstat_ptracer01_mean       =   1.0769604199605E-11
(PID.TID 0000.0001) %MON trcstat_ptracer01_sd         =   3.0719703831316E-11
(PID.TID 0000.0001) %MON trcstat_ptracer01_del2       =   4.6486718542991E-14
(PID.TID 0000.0001) %MON trcstat_ptracer02_max        =   3.0013314426624E-10
(PID.TID 0000.0001) %MON trcstat_ptracer02_min        =  -2.3535540534795E-12
(PID.TID 0000.0001) %MON trcstat_ptracer02_mean       =   1.1014100560316E-11
(PID.TID 0000.0001) %MON trcstat_ptracer02_sd         =   2.8644629548206E-11
(PID.TID 0000.0001) %MON trcstat_ptracer02_del2       =   3.8518376389669E-14
(PID.TID 0000.0001) // =======================================================
(PID.TID 0000.0001) // End MONITOR ptracers field statistics
(PID.TID 0000.0001) // =======================================================
 EXTERNAL_FIELDS_LOAD,   4269600 : iP,iLd,i0,i1=   12    0   12    1 ; Wght=  0.5000000000  0.5000000000
 EXTERNAL_FIELDS_LOAD, it=   4269600 : Reading new data, i0,i1=   12    1 (prev=   12    0 )
(PID.TID 0000.0001)  MDS_READ_FIELD: opening global file: tren_taux.bin
(PID.TID 0000.0001)  MDS_READ_FIELD: opening global file: tren_taux.bin
(PID.TID 0000.0001)  MDS_READ_FIELD: opening global file: tren_tauy.bin
(PID.TID 0000.0001)  MDS_READ_FIELD: opening global file: tren_tauy.bin
(PID.TID 0000.0001)  MDS_READ_FIELD: opening global file: shi_qnet.bin
(PID.TID 0000.0001)  MDS_READ_FIELD: opening global file: shi_qnet.bin
(PID.TID 0000.0001)  MDS_READ_FIELD: opening global file: shi_empmr_year.bin
(PID.TID 0000.0001)  MDS_READ_FIELD: opening global file: shi_empmr_year.bin
(PID.TID 0000.0001)  MDS_READ_FIELD: opening global file: lev_monthly_temp.bin
(PID.TID 0000.0001)  MDS_READ_FIELD: opening global file: lev_monthly_temp.bin
(PID.TID 0000.0001)  MDS_READ_FIELD: opening global file: lev_monthly_salt.bin
(PID.TID 0000.0001)  MDS_READ_FIELD: opening global file: lev_monthly_salt.bin
 CFC_FIELDS_LOAD,   4269600 : iP,iLd,i0,i1=   12    0   12    1 ; Wght=  0.5000000000  0.5000000000
 CFC_FIELDS_LOAD, it=   4269600 : Reading new data, i0,i1=   12    1 (prev=   12    0 )
(PID.TID 0000.0001)  MDS_READ_FIELD: opening global file: tren_speed.bin
(PID.TID 0000.0001)  MDS_READ_FIELD: opening global file: tren_speed.bin
(PID.TID 0000.0001)  MDS_READ_FIELD: opening global file: fice.bin
(PID.TID 0000.0001)  MDS_READ_FIELD: opening global file: fice.bin
 YEAR,ACFC12north,ACFC12south   30.000000000000000        43.004999999999995        35.835000000000001     
 YEAR,ACFC12north,ACFC12south   30.000000000000000        43.004999999999995        35.835000000000001     
 YEAR,ACFC12north,ACFC12south   30.000000000000000        43.004999999999995        35.835000000000001     
 YEAR,ACFC12north,ACFC12south   30.000000000000000        43.004999999999995        35.835000000000001     
(PID.TID 0000.0001) SOLVE_FOR_PRESSURE: putPmEinXvector =    F
 cg2d: Sum(rhs),rhsMax =  -3.62551855204174E-08  1.98141648458124E+00
(PID.TID 0000.0001)      cg2d_init_res =   6.06566199871105E-02
(PID.TID 0000.0001)      cg2d_iters(min,last) =      -1     114
(PID.TID 0000.0001)      cg2d_last_res =   7.21685178892235E-14
(PID.TID 0000.0001) // =======================================================
(PID.TID 0000.0001) // Begin MONITOR dynamic field statistics
(PID.TID 0000.0001) // =======================================================
(PID.TID 0000.0001) %MON time_tsnumber                =               4269601
(PID.TID 0000.0001) %MON time_secondsf                =   1.8444676320000E+11
(PID.TID 0000.0001) %MON dynstat_eta_max              =   9.1978234851028E-01
(PID.TID 0000.0001) %MON dynstat_eta_min              =  -1.7332707717917E+00
(PID.TID 0000.0001) %MON dynstat_eta_mean             =   1.2266454845366E-10
(PID.TID 0000.0001) %MON dynstat_eta_sd               =   6.5017392098687E-01
(PID.TID 0000.0001) %MON dynstat_eta_del2             =   9.3376340071164E-04
(PID.TID 0000.0001) %MON dynstat_uvel_max             =   1.5497787817401E-01
(PID.TID 0000.0001) %MON dynstat_uvel_min             =  -1.8461720915483E-01
(PID.TID 0000.0001) %MON dynstat_uvel_mean            =   2.9893444098197E-03
(PID.TID 0000.0001) %MON dynstat_uvel_sd              =   1.3951167060882E-02
(PID.TID 0000.0001) %MON dynstat_uvel_del2            =   3.8245813994153E-05
(PID.TID 0000.0001) %MON dynstat_vvel_max             =   1.1251482819864E-01
(PID.TID 0000.0001) %MON dynstat_vvel_min             =  -1.5158892627160E-01
(PID.TID 0000.0001) %MON dynstat_vvel_mean            =  -1.8294162037601E-04
(PID.TID 0000.0001) %MON dynstat_vvel_sd              =   6.3790664917723E-03
(PID.TID 0000.0001) %MON dynstat_vvel_del2            =   2.6668589016897E-05
(PID.TID 0000.0001) %MON dynstat_wvel_max             =   4.7680142520051E-05
(PID.TID 0000.0001) %MON dynstat_wvel_min             =  -6.5492897969565E-05
(PID.TID 0000.0001) %MON dynstat_wvel_mean            =   3.2377827976178E-22
(PID.TID 0000.0001) %MON dynstat_wvel_sd              =   1.9476992160147E-06
(PID.TID 0000.0001) %MON dynstat_wvel_del2            =   1.3334628217157E-08
(PID.TID 0000.0001) %MON dynstat_theta_max            =   2.9953587832127E+01
(PID.TID 0000.0001) %MON dynstat_theta_min            =  -2.1509645940542E+00
(PID.TID 0000.0001) %MON dynstat_theta_mean           =   3.8481741654943E+00
(PID.TID 0000.0001) %MON dynstat_theta_sd             =   5.1043796076623E+00
(PID.TID 0000.0001) %MON dynstat_theta_del2           =   2.2534782872478E-03
(PID.TID 0000.0001) %MON dynstat_salt_max             =   3.7553773446245E+01
(PID.TID 0000.0001) %MON dynstat_salt_min             =   3.1355613795795E+01
(PID.TID 0000.0001) %MON dynstat_salt_mean            =   3.4547941951249E+01
(PID.TID 0000.0001) %MON dynstat_salt_sd              =   3.5670175122266E-01
(PID.TID 0000.0001) %MON dynstat_salt_del2            =   3.8243541704165E-04
(PID.TID 0000.0001) %MON forcing_qnet_max             =   4.5173381042480E+02
(PID.TID 0000.0001) %MON forcing_qnet_min             =  -2.1320401000977E+02
(PID.TID 0000.0001) %MON forcing_qnet_mean            =  -1.7634591469579E+01
(PID.TID 0000.0001) %MON forcing_qnet_sd              =   1.1599881404186E+02
(PID.TID 0000.0001) %MON forcing_qnet_del2            =   2.7302567191349E-01
(PID.TID 0000.0001) %MON forcing_qsw_max              =   0.0000000000000E+00
(PID.TID 0000.0001) %MON forcing_qsw_min              =   0.0000000000000E+00
(PID.TID 0000.0001) %MON forcing_qsw_mean             =   0.0000000000000E+00
(PID.TID 0000.0001) %MON forcing_qsw_sd               =   0.0000000000000E+00
(PID.TID 0000.0001) %MON forcing_qsw_del2             =   0.0000000000000E+00
(PID.TID 0000.0001) %MON forcing_empmr_max            =   6.9206222512719E-05
(PID.TID 0000.0001) %MON forcing_empmr_min            =  -1.5544422772962E-04
(PID.TID 0000.0001) %MON forcing_empmr_mean           =   1.2460351247397E-14
(PID.TID 0000.0001) %MON forcing_empmr_sd             =   2.4700019777611E-05
(PID.TID 0000.0001) %MON forcing_empmr_del2           =   1.1591736879229E-07
(PID.TID 0000.0001) %MON forcing_fu_max               =   2.6936699450016E-01
(PID.TID 0000.0001) %MON forcing_fu_min               =  -1.5727265179157E-01
(PID.TID 0000.0001) %MON forcing_fu_mean              =   1.7831973356733E-02
(PID.TID 0000.0001) %MON forcing_fu_sd                =   8.9620299147480E-02
(PID.TID 0000.0001) %MON forcing_fu_del2              =   2.4782395373364E-04
(PID.TID 0000.0001) %MON forcing_fv_max               =   1.9744335860014E-01
(PID.TID 0000.0001) %MON forcing_fv_min               =  -1.5944199264050E-01
(PID.TID 0000.0001) %MON forcing_fv_mean              =  -6.4503818001955E-03
(PID.TID 0000.0001) %MON forcing_fv_sd                =   4.4276273939354E-02
(PID.TID 0000.0001) %MON forcing_fv_del2              =   1.7990220506047E-04
(PID.TID 0000.0001) %MON advcfl_uvel_max              =   4.0021399972883E-02
(PID.TID 0000.0001) %MON advcfl_vvel_max              =   2.0943144661680E-02
(PID.TID 0000.0001) %MON advcfl_wvel_max              =   1.3190202480439E-02
(PID.TID 0000.0001) %MON advcfl_W_hf_max              =   1.5545595780518E-02
(PID.TID 0000.0001) %MON pe_b_mean                    =   5.8351912497600E-04
(PID.TID 0000.0001) %MON ke_max                       =   1.7903688605320E-02
(PID.TID 0000.0001) %MON ke_mean                      =   1.1254932655787E-04
(PID.TID 0000.0001) %MON ke_vol                       =   1.1739855207381E+18
(PID.TID 0000.0001) %MON vort_r_min                   =  -5.5254693791818E-07
(PID.TID 0000.0001) %MON vort_r_max                   =   6.2112326751260E-07
(PID.TID 0000.0001) %MON vort_a_mean                  =  -2.5798915502264E-05
(PID.TID 0000.0001) %MON vort_a_sd                    =   7.3558779216237E-05
(PID.TID 0000.0001) %MON vort_p_mean                  =  -3.0020960747216E-05
(PID.TID 0000.0001) %MON vort_p_sd                    =   9.8090576809406E-05
(PID.TID 0000.0001) %MON surfExpan_theta_mean         =  -3.5662256760521E-07
(PID.TID 0000.0001) %MON surfExpan_salt_mean          =   1.2791007153318E-08
(PID.TID 0000.0001) // =======================================================
(PID.TID 0000.0001) // End MONITOR dynamic field statistics
(PID.TID 0000.0001) // =======================================================
(PID.TID 0000.0001) // =======================================================
(PID.TID 0000.0001) // Begin MONITOR ptracer field statistics
(PID.TID 0000.0001) // =======================================================
(PID.TID 0000.0001) %MON trcstat_ptracer01_max        =   3.6021018005604E-10
(PID.TID 0000.0001) %MON trcstat_ptracer01_min        =  -3.6083565605574E-12
(PID.TID 0000.0001) %MON trcstat_ptracer01_mean       =   1.0782485393142E-11
(PID.TID 0000.0001) %MON trcstat_ptracer01_sd         =   3.0774744771113E-11
(PID.TID 0000.0001) %MON trcstat_ptracer01_del2       =   4.6543757086377E-14
(PID.TID 0000.0001) %MON trcstat_ptracer02_max        =   3.0031464118047E-10
(PID.TID 0000.0001) %MON trcstat_ptracer02_min        =  -2.3537510330386E-12
(PID.TID 0000.0001) %MON trcstat_ptracer02_mean       =   1.1015650672589E-11
(PID.TID 0000.0001) %MON trcstat_ptracer02_sd         =   2.8647967571305E-11
(PID.TID 0000.0001) %MON trcstat_ptracer02_del2       =   3.8510481653832E-14
(PID.TID 0000.0001) // =======================================================
(PID.TID 0000.0001) // End MONITOR ptracers field statistics
(PID.TID 0000.0001) // =======================================================
 EXTERNAL_FIELDS_LOAD,   4269601 : iP,iLd,i0,i1=   12    1   12    1 ; Wght=  0.4833333333  0.5166666667
 CFC_FIELDS_LOAD,   4269601 : iP,iLd,i0,i1=   12    1   12    1 ; Wght=  0.4833333333  0.5166666667
 YEAR,ACFC12north,ACFC12south   30.001388888888890        43.013013888888892        35.841708333333344     
 YEAR,ACFC12north,ACFC12south   30.001388888888890        43.013013888888892        35.841708333333344     
 YEAR,ACFC12north,ACFC12south   30.001388888888890        43.013013888888892        35.841708333333344     
 YEAR,ACFC12north,ACFC12south   30.001388888888890        43.013013888888892        35.841708333333344     
 cg2d: Sum(rhs),rhsMax =  -3.62626622063544E-08  1.98100616737589E+00
(PID.TID 0000.0001)      cg2d_init_res =   4.11590053289655E-02
(PID.TID 0000.0001)      cg2d_iters(min,last) =      -1     112
(PID.TID 0000.0001)      cg2d_last_res =   9.26002782791876E-14
(PID.TID 0000.0001) // =======================================================
(PID.TID 0000.0001) // Begin MONITOR dynamic field statistics
(PID.TID 0000.0001) // =======================================================
(PID.TID 0000.0001) %MON time_tsnumber                =               4269602
(PID.TID 0000.0001) %MON time_secondsf                =   1.8444680640000E+11
(PID.TID 0000.0001) %MON dynstat_eta_max              =   9.0747211245725E-01
(PID.TID 0000.0001) %MON dynstat_eta_min              =  -1.7272721979589E+00
(PID.TID 0000.0001) %MON dynstat_eta_mean             =   1.2266478113705E-10
(PID.TID 0000.0001) %MON dynstat_eta_sd               =   6.4753890834153E-01
(PID.TID 0000.0001) %MON dynstat_eta_del2             =   9.3424657052913E-04
(PID.TID 0000.0001) %MON dynstat_uvel_max             =   1.5503761209775E-01
(PID.TID 0000.0001) %MON dynstat_uvel_min             =  -1.8470176003868E-01
(PID.TID 0000.0001) %MON dynstat_uvel_mean            =   2.9822572840606E-03
(PID.TID 0000.0001) %MON dynstat_uvel_sd              =   1.3952305154359E-02
(PID.TID 0000.0001) %MON dynstat_uvel_del2            =   3.8253380570949E-05
(PID.TID 0000.0001) %MON dynstat_vvel_max             =   1.1245898765815E-01
(PID.TID 0000.0001) %MON dynstat_vvel_min             =  -1.5099714986327E-01
(PID.TID 0000.0001) %MON dynstat_vvel_mean            =  -1.6452724637207E-04
(PID.TID 0000.0001) %MON dynstat_vvel_sd              =   6.3761102701224E-03
(PID.TID 0000.0001) %MON dynstat_vvel_del2            =   2.6662319267564E-05
(PID.TID 0000.0001) %MON dynstat_wvel_max             =   4.7747171207809E-05
(PID.TID 0000.0001) %MON dynstat_wvel_min             =  -6.5625069788271E-05
(PID.TID 0000.0001) %MON dynstat_wvel_mean            =  -5.2086071092112E-22
(PID.TID 0000.0001) %MON dynstat_wvel_sd              =   1.9535882614161E-06
(PID.TID 0000.0001) %MON dynstat_wvel_del2            =   1.3355285398323E-08
(PID.TID 0000.0001) %MON dynstat_theta_max            =   2.9956491673892E+01
(PID.TID 0000.0001) %MON dynstat_theta_min            =  -2.1510964692105E+00
(PID.TID 0000.0001) %MON dynstat_theta_mean           =   3.8482290561655E+00
(PID.TID 0000.0001) %MON dynstat_theta_sd             =   5.1044319142100E+00
(PID.TID 0000.0001) %MON dynstat_theta_del2           =   2.2541330438897E-03
(PID.TID 0000.0001) %MON dynstat_salt_max             =   3.7553518050421E+01
(PID.TID 0000.0001) %MON dynstat_salt_min             =   3.1355331931848E+01
(PID.TID 0000.0001) %MON dynstat_salt_mean            =   3.4547942546031E+01
(PID.TID 0000.0001) %MON dynstat_salt_sd              =   3.5670049444570E-01
(PID.TID 0000.0001) %MON dynstat_salt_del2            =   3.8259872689208E-04
(PID.TID 0000.0001) %MON forcing_qnet_max             =   4.5165532073975E+02
(PID.TID 0000.0001) %MON forcing_qnet_min             =  -2.1277729593913E+02
(PID.TID 0000.0001) %MON forcing_qnet_mean            =  -1.7629331279213E+01
(PID.TID 0000.0001) %MON forcing_qnet_sd              =   1.1589696557541E+02
(PID.TID 0000.0001) %MON forcing_qnet_del2            =   2.7311634019844E-01
(PID.TID 0000.0001) %MON forcing_qsw_max              =   0.0000000000000E+00
(PID.TID 0000.0001) %MON forcing_qsw_min              =   0.0000000000000E+00
(PID.TID 0000.0001) %MON forcing_qsw_mean             =   0.0000000000000E+00
(PID.TID 0000.0001) %MON forcing_qsw_sd               =   0.0000000000000E+00
(PID.TID 0000.0001) %MON forcing_qsw_del2             =   0.0000000000000E+00
(PID.TID 0000.0001) %MON forcing_empmr_max            =   6.9206222512719E-05
(PID.TID 0000.0001) %MON forcing_empmr_min            =  -1.5544422772962E-04
(PID.TID 0000.0001) %MON forcing_empmr_mean           =   1.2460351247397E-14
(PID.TID 0000.0001) %MON forcing_empmr_sd             =   2.4700019777611E-05
(PID.TID 0000.0001) %MON forcing_empmr_del2           =   1.1591736879229E-07
(PID.TID 0000.0001) %MON forcing_fu_max               =   2.6912787457307E-01
(PID.TID 0000.0001) %MON forcing_fu_min               =  -1.5720446159442E-01
(PID.TID 0000.0001) %MON forcing_fu_mean              =   1.7822779918771E-02
(PID.TID 0000.0001) %MON forcing_fu_sd                =   8.9611665321266E-02
(PID.TID 0000.0001) %MON forcing_fu_del2              =   2.4809007353166E-04
(PID.TID 0000.0001) %MON forcing_fv_max               =   1.9778054629763E-01
(PID.TID 0000.0001) %MON forcing_fv_min               =  -1.5953998118639E-01
(PID.TID 0000.0001) %MON forcing_fv_mean              =  -6.4319072438235E-03
(PID.TID 0000.0001) %MON forcing_fv_sd                =   4.4324355939290E-02
(PID.TID 0000.0001) %MON forcing_fv_del2              =   1.7988590232348E-04
(PID.TID 0000.0001) %MON advcfl_uvel_max              =   4.0036825627705E-02
(PID.TID 0000.0001) %MON advcfl_vvel_max              =   2.0861386321992E-02
(PID.TID 0000.0001) %MON advcfl_wvel_max              =   1.3229837412952E-02
(PID.TID 0000.0001) %MON advcfl_W_hf_max              =   1.5592308379550E-02
(PID.TID 0000.0001) %MON pe_b_mean                    =   5.7879895861631E-04
(PID.TID 0000.0001) %MON ke_max                       =   1.7910208275749E-02
(PID.TID 0000.0001) %MON ke_mean                      =   1.1252438383018E-04
(PID.TID 0000.0001) %MON ke_vol                       =   1.1739855207381E+18
(PID.TID 0000.0001) %MON vort_r_min                   =  -5.5369802238226E-07
(PID.TID 0000.0001) %MON vort_r_max                   =   6.2120283840155E-07
(PID.TID 0000.0001) %MON vort_a_mean                  =  -2.5798915502264E-05
(PID.TID 0000.0001) %MON vort_a_sd                    =   7.3558777511508E-05
(PID.TID 0000.0001) %MON vort_p_mean                  =  -3.0020960747216E-05
(PID.TID 0000.0001) %MON vort_p_sd                    =   9.8090571182479E-05
(PID.TID 0000.0001) %MON surfExpan_theta_mean         =  -3.9646564310756E-07
(PID.TID 0000.0001) %MON surfExpan_salt_mean          =   2.7996728613368E-09
(PID.TID 0000.0001) // =======================================================
(PID.TID 0000.0001) // End MONITOR dynamic field statistics
(PID.TID 0000.0001) // =======================================================
(PID.TID 0000.0001) // =======================================================
(PID.TID 0000.0001) // Begin MONITOR ptracer field statistics
(PID.TID 0000.0001) // =======================================================
(PID.TID 0000.0001) %MON trcstat_ptracer01_max        =   3.6248510612989E-10
(PID.TID 0000.0001) %MON trcstat_ptracer01_min        =  -3.6088780745890E-12
(PID.TID 0000.0001) %MON trcstat_ptracer01_mean       =   1.0794929600398E-11
(PID.TID 0000.0001) %MON trcstat_ptracer01_sd         =   3.0828029562261E-11
(PID.TID 0000.0001) %MON trcstat_ptracer01_del2       =   4.6623662628255E-14
(PID.TID 0000.0001) %MON trcstat_ptracer02_max        =   3.0050307394615E-10
(PID.TID 0000.0001) %MON trcstat_ptracer02_min        =  -2.3539471813776E-12
(PID.TID 0000.0001) %MON trcstat_ptracer02_mean       =   1.1017202111742E-11
(PID.TID 0000.0001) %MON trcstat_ptracer02_sd         =   2.8651307471753E-11
(PID.TID 0000.0001) %MON trcstat_ptracer02_del2       =   3.8510134722433E-14
(PID.TID 0000.0001) // =======================================================
(PID.TID 0000.0001) // End MONITOR ptracers field statistics
(PID.TID 0000.0001) // =======================================================
 EXTERNAL_FIELDS_LOAD,   4269602 : iP,iLd,i0,i1=   12    1   12    1 ; Wght=  0.4666666667  0.5333333333
 CFC_FIELDS_LOAD,   4269602 : iP,iLd,i0,i1=   12    1   12    1 ; Wght=  0.4666666667  0.5333333333
 YEAR,ACFC12north,ACFC12south   30.002777777777776        43.021027777777768        35.848416666666665     
 YEAR,ACFC12north,ACFC12south   30.002777777777776        43.021027777777768        35.848416666666665     
 YEAR,ACFC12north,ACFC12south   30.002777777777776        43.021027777777768        35.848416666666665     
 YEAR,ACFC12north,ACFC12south   30.002777777777776        43.021027777777768        35.848416666666665     
 cg2d: Sum(rhs),rhsMax =  -3.62537271314523E-08  1.98149223567114E+00
(PID.TID 0000.0001)      cg2d_init_res =   3.54795856351907E-02
(PID.TID 0000.0001)      cg2d_iters(min,last) =      -1     112
(PID.TID 0000.0001)      cg2d_last_res =   7.73634568062122E-14
(PID.TID 0000.0001) // =======================================================
(PID.TID 0000.0001) // Begin MONITOR dynamic field statistics
(PID.TID 0000.0001) // =======================================================
(PID.TID 0000.0001) %MON time_tsnumber                =               4269603
(PID.TID 0000.0001) %MON time_secondsf                =   1.8444684960000E+11
(PID.TID 0000.0001) %MON dynstat_eta_max              =   8.9453100109702E-01
(PID.TID 0000.0001) %MON dynstat_eta_min              =  -1.7201770699604E+00
(PID.TID 0000.0001) %MON dynstat_eta_mean             =   1.2266435549669E-10
(PID.TID 0000.0001) %MON dynstat_eta_sd               =   6.4495690313152E-01
(PID.TID 0000.0001) %MON dynstat_eta_del2             =   9.3369117569889E-04
(PID.TID 0000.0001) %MON dynstat_uvel_max             =   1.5509537220036E-01
(PID.TID 0000.0001) %MON dynstat_uvel_min             =  -1.8481941483909E-01
(PID.TID 0000.0001) %MON dynstat_uvel_mean            =   2.9724294310216E-03
(PID.TID 0000.0001) %MON dynstat_uvel_sd              =   1.3954439806852E-02
(PID.TID 0000.0001) %MON dynstat_uvel_del2            =   3.8259663810547E-05
(PID.TID 0000.0001) %MON dynstat_vvel_max             =   1.1240529352758E-01
(PID.TID 0000.0001) %MON dynstat_vvel_min             =  -1.5039253040923E-01
(PID.TID 0000.0001) %MON dynstat_vvel_mean            =  -1.3942088316175E-04
(PID.TID 0000.0001) %MON dynstat_vvel_sd              =   6.3724276334112E-03
(PID.TID 0000.0001) %MON dynstat_vvel_del2            =   2.6657049556461E-05
(PID.TID 0000.0001) %MON dynstat_wvel_max             =   4.7804386728628E-05
(PID.TID 0000.0001) %MON dynstat_wvel_min             =  -6.5784977934759E-05
(PID.TID 0000.0001) %MON dynstat_wvel_mean            =  -1.4077316511382E-22
(PID.TID 0000.0001) %MON dynstat_wvel_sd              =   1.9567290186886E-06
(PID.TID 0000.0001) %MON dynstat_wvel_del2            =   1.3376148689201E-08
(PID.TID 0000.0001) %MON dynstat_theta_max            =   2.9959443542485E+01
(PID.TID 0000.0001) %MON dynstat_theta_min            =  -2.1512268266862E+00
(PID.TID 0000.0001) %MON dynstat_theta_mean           =   3.8482845898871E+00
(PID.TID 0000.0001) %MON dynstat_theta_sd             =   5.1044866172959E+00
(PID.TID 0000.0001) %MON dynstat_theta_del2           =   2.2566174360060E-03
(PID.TID 0000.0001) %MON dynstat_salt_max             =   3.7553240089982E+01
(PID.TID 0000.0001) %MON dynstat_salt_min             =   3.1355089049817E+01
(PID.TID 0000.0001) %MON dynstat_salt_mean            =   3.4547943275786E+01
(PID.TID 0000.0001) %MON dynstat_salt_sd              =   3.5669915814385E-01
(PID.TID 0000.0001) %MON dynstat_salt_del2            =   3.8311826833691E-04
(PID.TID 0000.0001) %MON forcing_qnet_max             =   4.5157683105469E+02
(PID.TID 0000.0001) %MON forcing_qnet_min             =  -2.1235058186849E+02
(PID.TID 0000.0001) %MON forcing_qnet_mean            =  -1.7624071088848E+01
(PID.TID 0000.0001) %MON forcing_qnet_sd              =   1.1579672925848E+02
(PID.TID 0000.0001) %MON forcing_qnet_del2            =   2.7323208045697E-01
(PID.TID 0000.0001) %MON forcing_qsw_max              =   0.0000000000000E+00
(PID.TID 0000.0001) %MON forcing_qsw_min              =   0.0000000000000E+00
(PID.TID 0000.0001) %MON forcing_qsw_mean             =   0.0000000000000E+00
(PID.TID 0000.0001) %MON forcing_qsw_sd               =   0.0000000000000E+00
(PID.TID 0000.0001) %MON forcing_qsw_del2             =   0.0000000000000E+00
(PID.TID 0000.0001) %MON forcing_empmr_max            =   6.9206222512719E-05
(PID.TID 0000.0001) %MON forcing_empmr_min            =  -1.5544422772962E-04
(PID.TID 0000.0001) %MON forcing_empmr_mean           =   1.2460351247397E-14
(PID.TID 0000.0001) %MON forcing_empmr_sd             =   2.4700019777611E-05
(PID.TID 0000.0001) %MON forcing_empmr_del2           =   1.1591736879229E-07
(PID.TID 0000.0001) %MON forcing_fu_max               =   2.6907762686412E-01
(PID.TID 0000.0001) %MON forcing_fu_min               =  -1.5713627139727E-01
(PID.TID 0000.0001) %MON forcing_fu_mean              =   1.7813586480810E-02
(PID.TID 0000.0001) %MON forcing_fu_sd                =   8.9604501838056E-02
(PID.TID 0000.0001) %MON forcing_fu_del2              =   2.4838319211938E-04
(PID.TID 0000.0001) %MON forcing_fv_max               =   1.9811773399512E-01
(PID.TID 0000.0001) %MON forcing_fv_min               =  -1.5963796973228E-01
(PID.TID 0000.0001) %MON forcing_fv_mean              =  -6.4134326874516E-03
(PID.TID 0000.0001) %MON forcing_fv_sd                =   4.4374188740913E-02
(PID.TID 0000.0001) %MON forcing_fv_del2              =   1.7989439238480E-04
(PID.TID 0000.0001) %MON advcfl_uvel_max              =   4.0051741564072E-02
(PID.TID 0000.0001) %MON advcfl_vvel_max              =   2.0777853619422E-02
(PID.TID 0000.0001) %MON advcfl_wvel_max              =   1.3279305674248E-02
(PID.TID 0000.0001) %MON advcfl_W_hf_max              =   1.5650610258935E-02
(PID.TID 0000.0001) %MON pe_b_mean                    =   5.7419233995957E-04
(PID.TID 0000.0001) %MON ke_max                       =   1.7923844670742E-02
(PID.TID 0000.0001) %MON ke_mean                      =   1.1250004093878E-04
(PID.TID 0000.0001) %MON ke_vol                       =   1.1739855207381E+18
(PID.TID 0000.0001) %MON vort_r_min                   =  -5.5470226907972E-07
(PID.TID 0000.0001) %MON vort_r_max                   =   6.2129920791652E-07
(PID.TID 0000.0001) %MON vort_a_mean                  =  -2.5798915502264E-05
(PID.TID 0000.0001) %MON vort_a_sd                    =   7.3558775088599E-05
(PID.TID 0000.0001) %MON vort_p_mean                  =  -3.0020960747216E-05
(PID.TID 0000.0001) %MON vort_p_sd                    =   9.8090563634961E-05
(PID.TID 0000.0001) %MON surfExpan_theta_mean         =  -4.0015110689306E-07
(PID.TID 0000.0001) %MON surfExpan_salt_mean          =  -4.5358620123448E-09
(PID.TID 0000.0001) // =======================================================
(PID.TID 0000.0001) // End MONITOR dynamic field statistics
(PID.TID 0000.0001) // =======================================================
(PID.TID 0000.0001) // =======================================================
(PID.TID 0000.0001) // Begin MONITOR ptracer field statistics
(PID.TID 0000.0001) // =======================================================
(PID.TID 0000.0001) %MON trcstat_ptracer01_max        =   3.6469309737292E-10
(PID.TID 0000.0001) %MON trcstat_ptracer01_min        =  -3.6093993269988E-12
(PID.TID 0000.0001) %MON trcstat_ptracer01_mean       =   1.0806963324184E-11
(PID.TID 0000.0001) %MON trcstat_ptracer01_sd         =   3.0879643876484E-11
(PID.TID 0000.0001) %MON trcstat_ptracer01_del2       =   4.6752440572941E-14
(PID.TID 0000.0001) %MON trcstat_ptracer02_max        =   3.0069778354172E-10
(PID.TID 0000.0001) %MON trcstat_ptracer02_min        =  -2.3541449199220E-12
(PID.TID 0000.0001) %MON trcstat_ptracer02_mean       =   1.1018752847200E-11
(PID.TID 0000.0001) %MON trcstat_ptracer02_sd         =   2.8654646400922E-11
(PID.TID 0000.0001) %MON trcstat_ptracer02_del2       =   3.8546331367183E-14
(PID.TID 0000.0001) // =======================================================
(PID.TID 0000.0001) // End MONITOR ptracers field statistics
(PID.TID 0000.0001) // =======================================================
 EXTERNAL_FIELDS_LOAD,   4269603 : iP,iLd,i0,i1=   12    1   12    1 ; Wght=  0.4500000000  0.5500000000
 CFC_FIELDS_LOAD,   4269603 : iP,iLd,i0,i1=   12    1   12    1 ; Wght=  0.4500000000  0.5500000000
 YEAR,ACFC12north,ACFC12south   30.004166666666666        43.029041666666664        35.855125000000001     
 YEAR,ACFC12north,ACFC12south   30.004166666666666        43.029041666666664        35.855125000000001     
 YEAR,ACFC12north,ACFC12south   30.004166666666666        43.029041666666664        35.855125000000001     
 YEAR,ACFC12north,ACFC12south   30.004166666666666        43.029041666666664        35.855125000000001     
 cg2d: Sum(rhs),rhsMax =  -3.62493652872331E-08  1.98173784282169E+00
(PID.TID 0000.0001)      cg2d_init_res =   2.88694028960798E-02
(PID.TID 0000.0001)      cg2d_iters(min,last) =      -1     111
(PID.TID 0000.0001)      cg2d_last_res =   7.87766112193891E-14
(PID.TID 0000.0001) // =======================================================
(PID.TID 0000.0001) // Begin MONITOR dynamic field statistics
(PID.TID 0000.0001) // =======================================================
(PID.TID 0000.0001) %MON time_tsnumber                =               4269604
(PID.TID 0000.0001) %MON time_secondsf                =   1.8444689280000E+11
(PID.TID 0000.0001) %MON dynstat_eta_max              =   8.8643323841849E-01
(PID.TID 0000.0001) %MON dynstat_eta_min              =  -1.7125706491445E+00
(PID.TID 0000.0001) %MON dynstat_eta_mean             =   1.2266443305783E-10
(PID.TID 0000.0001) %MON dynstat_eta_sd               =   6.4271344306476E-01
(PID.TID 0000.0001) %MON dynstat_eta_del2             =   9.3291745523390E-04
(PID.TID 0000.0001) %MON dynstat_uvel_max             =   1.5515061674980E-01
(PID.TID 0000.0001) %MON dynstat_uvel_min             =  -1.8495639881298E-01
(PID.TID 0000.0001) %MON dynstat_uvel_mean            =   2.9599255747863E-03
(PID.TID 0000.0001) %MON dynstat_uvel_sd              =   1.3957255192008E-02
(PID.TID 0000.0001) %MON dynstat_uvel_del2            =   3.8264054232293E-05
(PID.TID 0000.0001) %MON dynstat_vvel_max             =   1.1236133768402E-01
(PID.TID 0000.0001) %MON dynstat_vvel_min             =  -1.4977475071231E-01
(PID.TID 0000.0001) %MON dynstat_vvel_mean            =  -1.0938769168647E-04
(PID.TID 0000.0001) %MON dynstat_vvel_sd              =   6.3682107920678E-03
(PID.TID 0000.0001) %MON dynstat_vvel_del2            =   2.6652851668815E-05
(PID.TID 0000.0001) %MON dynstat_wvel_max             =   4.7836757679694E-05
(PID.TID 0000.0001) %MON dynstat_wvel_min             =  -6.5943591799906E-05
(PID.TID 0000.0001) %MON dynstat_wvel_mean            =   9.5021886451825E-23
(PID.TID 0000.0001) %MON dynstat_wvel_sd              =   1.9592678020541E-06
(PID.TID 0000.0001) %MON dynstat_wvel_del2            =   1.3401026283190E-08
(PID.TID 0000.0001) %MON dynstat_theta_max            =   2.9962380672647E+01
(PID.TID 0000.0001) %MON dynstat_theta_min            =  -2.1513558704181E+00
(PID.TID 0000.0001) %MON dynstat_theta_mean           =   3.8483400070687E+00
(PID.TID 0000.0001) %MON dynstat_theta_sd             =   5.1045429446780E+00
(PID.TID 0000.0001) %MON dynstat_theta_del2           =   2.2585635259385E-03
(PID.TID 0000.0001) %MON dynstat_salt_max             =   3.7552932746930E+01
(PID.TID 0000.0001) %MON dynstat_salt_min             =   3.1354875557800E+01
(PID.TID 0000.0001) %MON dynstat_salt_mean            =   3.4547944083024E+01
(PID.TID 0000.0001) %MON dynstat_salt_sd              =   3.5669796926673E-01
(PID.TID 0000.0001) %MON dynstat_salt_del2            =   3.8345798314403E-04
(PID.TID 0000.0001) %MON forcing_qnet_max             =   4.5149834136963E+02
(PID.TID 0000.0001) %MON forcing_qnet_min             =  -2.1192386779785E+02
(PID.TID 0000.0001) %MON forcing_qnet_mean            =  -1.7618810898482E+01
(PID.TID 0000.0001) %MON forcing_qnet_sd              =   1.1569810928118E+02
(PID.TID 0000.0001) %MON forcing_qnet_del2            =   2.7337286084428E-01
(PID.TID 0000.0001) %MON forcing_qsw_max              =   0.0000000000000E+00
(PID.TID 0000.0001) %MON forcing_qsw_min              =   0.0000000000000E+00
(PID.TID 0000.0001) %MON forcing_qsw_mean             =   0.0000000000000E+00
(PID.TID 0000.0001) %MON forcing_qsw_sd               =   0.0000000000000E+00
(PID.TID 0000.0001) %MON forcing_qsw_del2             =   0.0000000000000E+00
(PID.TID 0000.0001) %MON forcing_empmr_max            =   6.9206222512719E-05
(PID.TID 0000.0001) %MON forcing_empmr_min            =  -1.5544422772962E-04
(PID.TID 0000.0001) %MON forcing_empmr_mean           =   1.2460351247397E-14
(PID.TID 0000.0001) %MON forcing_empmr_sd             =   2.4700019777611E-05
(PID.TID 0000.0001) %MON forcing_empmr_del2           =   1.1591736879229E-07
(PID.TID 0000.0001) %MON forcing_fu_max               =   2.6902737915516E-01
(PID.TID 0000.0001) %MON forcing_fu_min               =  -1.5706808120012E-01
(PID.TID 0000.0001) %MON forcing_fu_mean              =   1.7804393042849E-02
(PID.TID 0000.0001) %MON forcing_fu_sd                =   8.9598809050515E-02
(PID.TID 0000.0001) %MON forcing_fu_del2              =   2.4870321403548E-04
(PID.TID 0000.0001) %MON forcing_fv_max               =   1.9845492169261E-01
(PID.TID 0000.0001) %MON forcing_fv_min               =  -1.5973595827818E-01
(PID.TID 0000.0001) %MON forcing_fv_mean              =  -6.3949581310796E-03
(PID.TID 0000.0001) %MON forcing_fv_sd                =   4.4425766452552E-02
(PID.TID 0000.0001) %MON forcing_fv_del2              =   1.7992767173481E-04
(PID.TID 0000.0001) %MON advcfl_uvel_max              =   4.0066007885406E-02
(PID.TID 0000.0001) %MON advcfl_vvel_max              =   2.0692502730805E-02
(PID.TID 0000.0001) %MON advcfl_wvel_max              =   1.3327357124296E-02
(PID.TID 0000.0001) %MON advcfl_W_hf_max              =   1.5707242325064E-02
(PID.TID 0000.0001) %MON pe_b_mean                    =   5.7020467151624E-04
(PID.TID 0000.0001) %MON ke_max                       =   1.7941829380054E-02
(PID.TID 0000.0001) %MON ke_mean                      =   1.1247423713276E-04
(PID.TID 0000.0001) %MON ke_vol                       =   1.1739855207381E+18
(PID.TID 0000.0001) %MON vort_r_min                   =  -5.5555106052885E-07
(PID.TID 0000.0001) %MON vort_r_max                   =   6.2140311197873E-07
(PID.TID 0000.0001) %MON vort_a_mean                  =  -2.5798915502264E-05
(PID.TID 0000.0001) %MON vort_a_sd                    =   7.3558771989105E-05
(PID.TID 0000.0001) %MON vort_p_mean                  =  -3.0020960747216E-05
(PID.TID 0000.0001) %MON vort_p_sd                    =   9.8090554637361E-05
(PID.TID 0000.0001) %MON surfExpan_theta_mean         =  -3.5359196776034E-07
(PID.TID 0000.0001) %MON surfExpan_salt_mean          =  -8.4928702984816E-09
(PID.TID 0000.0001) // =======================================================
(PID.TID 0000.0001) // End MONITOR dynamic field statistics
(PID.TID 0000.0001) // =======================================================
(PID.TID 0000.0001) // =======================================================
(PID.TID 0000.0001) // Begin MONITOR ptracer field statistics
(PID.TID 0000.0001) // =======================================================
(PID.TID 0000.0001) %MON trcstat_ptracer01_max        =   3.6683569567892E-10
(PID.TID 0000.0001) %MON trcstat_ptracer01_min        =  -3.6099202852626E-12
(PID.TID 0000.0001) %MON trcstat_ptracer01_mean       =   1.0818611919702E-11
(PID.TID 0000.0001) %MON trcstat_ptracer01_sd         =   3.0929724238500E-11
(PID.TID 0000.0001) %MON trcstat_ptracer01_del2       =   4.6869297788042E-14
(PID.TID 0000.0001) %MON trcstat_ptracer02_max        =   3.0089703973852E-10
(PID.TID 0000.0001) %MON trcstat_ptracer02_min        =  -2.3543464419945E-12
(PID.TID 0000.0001) %MON trcstat_ptracer02_mean       =   1.1020305098320E-11
(PID.TID 0000.0001) %MON trcstat_ptracer02_sd         =   2.8658035925951E-11
(PID.TID 0000.0001) %MON trcstat_ptracer02_del2       =   3.8566914985921E-14
(PID.TID 0000.0001) // =======================================================
(PID.TID 0000.0001) // End MONITOR ptracers field statistics
(PID.TID 0000.0001) // =======================================================
 Computing Diagnostic #    230  LaUH1TH      Counter:       4   Parms: UU      MX      
           Vector  Mate for  LaUH1TH      Diagnostic #    231  LaVH1TH  exists 
 Computing Diagnostic #    231  LaVH1TH      Counter:       4   Parms: VV      MX      
           Vector  Mate for  LaVH1TH      Diagnostic #    230  LaUH1TH  exists 
 Computing Diagnostic #    238  LaUH2RHO     Counter:       4   Parms: UU      MX      
           Vector  Mate for  LaUH2RHO     Diagnostic #    239  LaVH2RHO exists 
 Computing Diagnostic #    239  LaVH2RHO     Counter:       4   Parms: VV      MX      
           Vector  Mate for  LaVH2RHO     Diagnostic #    238  LaUH2RHO exists 
 Compute Stats, Diag. #     23  ETAN      vol(   0 ): 1.322E+15  Parms: SM      M1      
 Compute Stats, Diag. #     25  DETADT2   vol(   0 ): 1.322E+15  Parms: SM      M1      
 Compute Stats, Diag. #    147  momKE     vol(   0 ): 4.696E+18  Parms: SMR     MR      
 Compute Stats, Diag. #    205  TRAC01    vol(   0 ): 4.696E+18  Parms: SMR     MR      
 Compute Stats, Diag. #    217  TRAC02    vol(   0 ): 4.696E+18  Parms: SMR     MR      
(PID.TID 0000.0001) DIAGSTATS_CLOSE_IO: close file: dynStDiag.0004269600.txt , unit=     9
(PID.TID 0000.0001) %CHECKPOINT   4269604 ckptA
(PID.TID 0000.0001)   Seconds in section "ALL                    [THE_MODEL_MAIN]":
(PID.TID 0000.0001)           User time:   20.670000000000002
(PID.TID 0000.0001)         System time:  0.17999999999999999
(PID.TID 0000.0001)     Wall clock time:   21.140247821807861
(PID.TID 0000.0001)          No. starts:           1
(PID.TID 0000.0001)           No. stops:           1
(PID.TID 0000.0001)   Seconds in section "INITIALISE_FIXED       [THE_MODEL_MAIN]":
(PID.TID 0000.0001)           User time:  0.26000000000000001
(PID.TID 0000.0001)         System time:  1.00000000000000002E-002
(PID.TID 0000.0001)     Wall clock time:  0.29403305053710938
(PID.TID 0000.0001)          No. starts:           1
(PID.TID 0000.0001)           No. stops:           1
(PID.TID 0000.0001)   Seconds in section "THE_MAIN_LOOP          [THE_MODEL_MAIN]":
(PID.TID 0000.0001)           User time:   20.410000000000000
(PID.TID 0000.0001)         System time:  0.16999999999999998
(PID.TID 0000.0001)     Wall clock time:   20.846172094345093
(PID.TID 0000.0001)          No. starts:           1
(PID.TID 0000.0001)           No. stops:           1
(PID.TID 0000.0001)   Seconds in section "INITIALISE_VARIA    [THE_MAIN_LOOP]":
(PID.TID 0000.0001)           User time:  0.86000000000000010
(PID.TID 0000.0001)         System time:  0.12000000000000001
(PID.TID 0000.0001)     Wall clock time:   1.1537950038909912
(PID.TID 0000.0001)          No. starts:           1
(PID.TID 0000.0001)           No. stops:           1
(PID.TID 0000.0001)   Seconds in section "MAIN LOOP           [THE_MAIN_LOOP]":
(PID.TID 0000.0001)           User time:   19.550000000000001
(PID.TID 0000.0001)         System time:  4.99999999999999889E-002
(PID.TID 0000.0001)     Wall clock time:   19.692346096038818
(PID.TID 0000.0001)          No. starts:           1
(PID.TID 0000.0001)           No. stops:           1
(PID.TID 0000.0001)   Seconds in section "MAIN_DO_LOOP        [THE_MAIN_LOOP]":
(PID.TID 0000.0001)           User time:   19.550000000000001
(PID.TID 0000.0001)         System time:  4.99999999999999889E-002
(PID.TID 0000.0001)     Wall clock time:   19.692298412322998
(PID.TID 0000.0001)          No. starts:           4
(PID.TID 0000.0001)           No. stops:           4
(PID.TID 0000.0001)   Seconds in section "FORWARD_STEP        [MAIN_DO_LOOP]":
(PID.TID 0000.0001)           User time:   19.550000000000001
(PID.TID 0000.0001)         System time:  4.99999999999999889E-002
(PID.TID 0000.0001)     Wall clock time:   19.692222356796265
(PID.TID 0000.0001)          No. starts:           4
(PID.TID 0000.0001)           No. stops:           4
(PID.TID 0000.0001)   Seconds in section "DO_STATEVARS_DIAGS  [FORWARD_STEP]":
(PID.TID 0000.0001)           User time:  2.99999999999975842E-002
(PID.TID 0000.0001)         System time:   0.0000000000000000
(PID.TID 0000.0001)     Wall clock time:  2.97889709472656250E-002
(PID.TID 0000.0001)          No. starts:           8
(PID.TID 0000.0001)           No. stops:           8
(PID.TID 0000.0001)   Seconds in section "LOAD_FIELDS_DRIVER  [FORWARD_STEP]":
(PID.TID 0000.0001)           User time:  3.99999999999991473E-002
(PID.TID 0000.0001)         System time:   0.0000000000000000
(PID.TID 0000.0001)     Wall clock time:  9.16562080383300781E-002
(PID.TID 0000.0001)          No. starts:           4
(PID.TID 0000.0001)           No. stops:           4
(PID.TID 0000.0001)   Seconds in section "EXTERNAL_FLDS_LOAD [LOAD_FLDS_DRIVER]":
(PID.TID 0000.0001)           User time:  3.00000000000011369E-002
(PID.TID 0000.0001)         System time:   0.0000000000000000
(PID.TID 0000.0001)     Wall clock time:  5.22320270538330078E-002
(PID.TID 0000.0001)          No. starts:           4
(PID.TID 0000.0001)           No. stops:           4
(PID.TID 0000.0001)   Seconds in section "DO_ATMOSPHERIC_PHYS [FORWARD_STEP]":
(PID.TID 0000.0001)           User time:   0.0000000000000000
(PID.TID 0000.0001)         System time:   0.0000000000000000
(PID.TID 0000.0001)     Wall clock time:  4.69684600830078125E-005
(PID.TID 0000.0001)          No. starts:           4
(PID.TID 0000.0001)           No. stops:           4
(PID.TID 0000.0001)   Seconds in section "DO_OCEANIC_PHYS     [FORWARD_STEP]":
(PID.TID 0000.0001)           User time:  0.56000000000000050
(PID.TID 0000.0001)         System time:   0.0000000000000000
(PID.TID 0000.0001)     Wall clock time:  0.55291342735290527
(PID.TID 0000.0001)          No. starts:           4
(PID.TID 0000.0001)           No. stops:           4
(PID.TID 0000.0001)   Seconds in section "GCHEM_CALC_TENDENCY [FORWARD_STEP]":
(PID.TID 0000.0001)           User time:  3.99999999999991473E-002
(PID.TID 0000.0001)         System time:   0.0000000000000000
(PID.TID 0000.0001)     Wall clock time:  3.99498939514160156E-002
(PID.TID 0000.0001)          No. starts:           4
(PID.TID 0000.0001)           No. stops:           4
(PID.TID 0000.0001)   Seconds in section "THERMODYNAMICS      [FORWARD_STEP]":
(PID.TID 0000.0001)           User time:   5.0700000000000003
(PID.TID 0000.0001)         System time:  1.99999999999999900E-002
(PID.TID 0000.0001)     Wall clock time:   5.1170186996459961
(PID.TID 0000.0001)          No. starts:           4
(PID.TID 0000.0001)           No. stops:           4
(PID.TID 0000.0001)   Seconds in section "DYNAMICS            [FORWARD_STEP]":
(PID.TID 0000.0001)           User time:   3.4999999999999964
(PID.TID 0000.0001)         System time:   0.0000000000000000
(PID.TID 0000.0001)     Wall clock time:   3.5016257762908936
(PID.TID 0000.0001)          No. starts:           4
(PID.TID 0000.0001)           No. stops:           4
(PID.TID 0000.0001)   Seconds in section "SOLVE_FOR_PRESSURE  [FORWARD_STEP]":
(PID.TID 0000.0001)           User time:   1.5700000000000003
(PID.TID 0000.0001)         System time:   0.0000000000000000
(PID.TID 0000.0001)     Wall clock time:   1.5659406185150146
(PID.TID 0000.0001)          No. starts:           4
(PID.TID 0000.0001)           No. stops:           4
(PID.TID 0000.0001)   Seconds in section "MOM_CORRECTION_STEP [FORWARD_STEP]":
(PID.TID 0000.0001)           User time:  5.99999999999987210E-002
(PID.TID 0000.0001)         System time:   0.0000000000000000
(PID.TID 0000.0001)     Wall clock time:  6.58001899719238281E-002
(PID.TID 0000.0001)          No. starts:           4
(PID.TID 0000.0001)           No. stops:           4
(PID.TID 0000.0001)   Seconds in section "INTEGR_CONTINUITY   [FORWARD_STEP]":
(PID.TID 0000.0001)           User time:  0.16000000000000014
(PID.TID 0000.0001)         System time:   0.0000000000000000
(PID.TID 0000.0001)     Wall clock time:  0.16615962982177734
(PID.TID 0000.0001)          No. starts:           4
(PID.TID 0000.0001)           No. stops:           4
(PID.TID 0000.0001)   Seconds in section "TRC_CORRECTION_STEP [FORWARD_STEP]":
(PID.TID 0000.0001)           User time:  5.99999999999987210E-002
(PID.TID 0000.0001)         System time:   0.0000000000000000
(PID.TID 0000.0001)     Wall clock time:  6.26761913299560547E-002
(PID.TID 0000.0001)          No. starts:           4
(PID.TID 0000.0001)           No. stops:           4
(PID.TID 0000.0001)   Seconds in section "GCHEM_FORCING_SEP  [FORWARD_STEP]":
(PID.TID 0000.0001)           User time:   0.0000000000000000
(PID.TID 0000.0001)         System time:   0.0000000000000000
(PID.TID 0000.0001)     Wall clock time:  4.00543212890625000E-005
(PID.TID 0000.0001)          No. starts:           4
(PID.TID 0000.0001)           No. stops:           4
(PID.TID 0000.0001)   Seconds in section "BLOCKING_EXCHANGES  [FORWARD_STEP]":
(PID.TID 0000.0001)           User time:  8.99999999999998579E-002
(PID.TID 0000.0001)         System time:   0.0000000000000000
(PID.TID 0000.0001)     Wall clock time:  8.47787857055664063E-002
(PID.TID 0000.0001)          No. starts:           4
(PID.TID 0000.0001)           No. stops:           4
(PID.TID 0000.0001)   Seconds in section "DO_STATEVARS_TAVE   [FORWARD_STEP]":
(PID.TID 0000.0001)           User time:  0.49999999999999645
(PID.TID 0000.0001)         System time:   0.0000000000000000
(PID.TID 0000.0001)     Wall clock time:  0.50880098342895508
(PID.TID 0000.0001)          No. starts:           4
(PID.TID 0000.0001)           No. stops:           4
(PID.TID 0000.0001)   Seconds in section "MONITOR             [FORWARD_STEP]":
(PID.TID 0000.0001)           User time:  0.71999999999999886
(PID.TID 0000.0001)         System time:   0.0000000000000000
(PID.TID 0000.0001)     Wall clock time:  0.71890711784362793
(PID.TID 0000.0001)          No. starts:           4
(PID.TID 0000.0001)           No. stops:           4
(PID.TID 0000.0001)   Seconds in section "DO_THE_MODEL_IO     [FORWARD_STEP]":
(PID.TID 0000.0001)           User time:   7.0200000000000031
(PID.TID 0000.0001)         System time:  2.00000000000000178E-002
(PID.TID 0000.0001)     Wall clock time:   7.0551340579986572
(PID.TID 0000.0001)          No. starts:           4
(PID.TID 0000.0001)           No. stops:           4
(PID.TID 0000.0001)   Seconds in section "PTRACERS_RESET      [FORWARD_STEP]":
(PID.TID 0000.0001)           User time:   0.0000000000000000
(PID.TID 0000.0001)         System time:   0.0000000000000000
(PID.TID 0000.0001)     Wall clock time:  5.98430633544921875E-005
(PID.TID 0000.0001)          No. starts:           4
(PID.TID 0000.0001)           No. stops:           4
(PID.TID 0000.0001)   Seconds in section "DO_WRITE_PICKUP     [FORWARD_STEP]":
(PID.TID 0000.0001)           User time:  0.12000000000000099
(PID.TID 0000.0001)         System time:  9.99999999999998113E-003
(PID.TID 0000.0001)     Wall clock time:  0.13002800941467285
(PID.TID 0000.0001)          No. starts:           4
(PID.TID 0000.0001)           No. stops:           4
(PID.TID 0000.0001) // ======================================================
(PID.TID 0000.0001) // Tile <-> Tile communication statistics
(PID.TID 0000.0001) // ======================================================
(PID.TID 0000.0001) // o Tile number: 000001
(PID.TID 0000.0001) //         No. X exchanges =              0
(PID.TID 0000.0001) //            Max. X spins =              0
(PID.TID 0000.0001) //            Min. X spins =     1000000000
(PID.TID 0000.0001) //          Total. X spins =              0
(PID.TID 0000.0001) //            Avg. X spins =       0.00E+00
(PID.TID 0000.0001) //         No. Y exchanges =              0
(PID.TID 0000.0001) //            Max. Y spins =              0
(PID.TID 0000.0001) //            Min. Y spins =     1000000000
(PID.TID 0000.0001) //          Total. Y spins =              0
(PID.TID 0000.0001) //            Avg. Y spins =       0.00E+00
(PID.TID 0000.0001) // o Tile number: 000002
(PID.TID 0000.0001) //         No. X exchanges =              0
(PID.TID 0000.0001) //            Max. X spins =              0
(PID.TID 0000.0001) //            Min. X spins =     1000000000
(PID.TID 0000.0001) //          Total. X spins =              0
(PID.TID 0000.0001) //            Avg. X spins =       0.00E+00
(PID.TID 0000.0001) //         No. Y exchanges =              0
(PID.TID 0000.0001) //            Max. Y spins =              0
(PID.TID 0000.0001) //            Min. Y spins =     1000000000
(PID.TID 0000.0001) //          Total. Y spins =              0
(PID.TID 0000.0001) //            Avg. Y spins =       0.00E+00
(PID.TID 0000.0001) // o Tile number: 000003
(PID.TID 0000.0001) //         No. X exchanges =              0
(PID.TID 0000.0001) //            Max. X spins =              0
(PID.TID 0000.0001) //            Min. X spins =     1000000000
(PID.TID 0000.0001) //          Total. X spins =              0
(PID.TID 0000.0001) //            Avg. X spins =       0.00E+00
(PID.TID 0000.0001) //         No. Y exchanges =              0
(PID.TID 0000.0001) //            Max. Y spins =              0
(PID.TID 0000.0001) //            Min. Y spins =     1000000000
(PID.TID 0000.0001) //          Total. Y spins =              0
(PID.TID 0000.0001) //            Avg. Y spins =       0.00E+00
(PID.TID 0000.0001) // o Tile number: 000004
(PID.TID 0000.0001) //         No. X exchanges =              0
(PID.TID 0000.0001) //            Max. X spins =              0
(PID.TID 0000.0001) //            Min. X spins =     1000000000
(PID.TID 0000.0001) //          Total. X spins =              0
(PID.TID 0000.0001) //            Avg. X spins =       0.00E+00
(PID.TID 0000.0001) //         No. Y exchanges =              0
(PID.TID 0000.0001) //            Max. Y spins =              0
(PID.TID 0000.0001) //            Min. Y spins =     1000000000
(PID.TID 0000.0001) //          Total. Y spins =              0
(PID.TID 0000.0001) //            Avg. Y spins =       0.00E+00
(PID.TID 0000.0001) // o Thread number: 000001
(PID.TID 0000.0001) //            No. barriers =           4722
(PID.TID 0000.0001) //      Max. barrier spins =              1
(PID.TID 0000.0001) //      Min. barrier spins =              1
(PID.TID 0000.0001) //     Total barrier spins =           4722
(PID.TID 0000.0001) //      Avg. barrier spins =       1.00E+00
PROGRAM MAIN: Execution ended Normally
