(PID.TID 0000.0001) 
(PID.TID 0000.0001) // ======================================================
(PID.TID 0000.0001) //                      MITgcm UV
(PID.TID 0000.0001) //                      =========
(PID.TID 0000.0001) // ======================================================
(PID.TID 0000.0001) // execution environment starting up...
(PID.TID 0000.0001) 
(PID.TID 0000.0001) // MITgcmUV version:  checkpoint59f
(PID.TID 0000.0001) // Build user:        jmc
(PID.TID 0000.0001) // Build host:        faulks
(PID.TID 0000.0001) // Build date:        Sun Sep 16 03:11:58 EDT 2007
(PID.TID 0000.0001) 
(PID.TID 0000.0001) // =======================================================
(PID.TID 0000.0001) // Execution Environment parameter file "eedata"
(PID.TID 0000.0001) // =======================================================
(PID.TID 0000.0001) ># Example "eedata" file
(PID.TID 0000.0001) ># Lines beginning "#" are comments
(PID.TID 0000.0001) ># nTx - No. threads per process in X
(PID.TID 0000.0001) ># nTy - No. threads per process in Y
(PID.TID 0000.0001) > &EEPARMS
(PID.TID 0000.0001) > nTx=1,
(PID.TID 0000.0001) > nTy=1,
(PID.TID 0000.0001) > &
(PID.TID 0000.0001) ># Note: Some systems use & as the
(PID.TID 0000.0001) ># namelist terminator. Other systems
(PID.TID 0000.0001) ># use a / character (as shown here).
(PID.TID 0000.0001) 
(PID.TID 0000.0001) // =======================================================
(PID.TID 0000.0001) // Computational Grid Specification ( see files "SIZE.h" )
(PID.TID 0000.0001) //                                  ( and "eedata"       )
(PID.TID 0000.0001) // =======================================================
(PID.TID 0000.0001)      nPx =    1 ; /* No. processes in X */
(PID.TID 0000.0001)      nPy =    1 ; /* No. processes in Y */
(PID.TID 0000.0001)      nSx =    1 ; /* No. tiles in X per process */
(PID.TID 0000.0001)      nSy =    1 ; /* No. tiles in Y per process */
(PID.TID 0000.0001)      sNx =    2 ; /* Tile size in X */
(PID.TID 0000.0001)      sNy =   64 ; /* Tile size in Y */
(PID.TID 0000.0001)      OLx =    4 ; /* Tile overlap distance in X */
(PID.TID 0000.0001)      OLy =    4 ; /* Tile overlap distance in Y */
(PID.TID 0000.0001)      nTx =    1 ; /* No. threads in X per process */
(PID.TID 0000.0001)      nTy =    1 ; /* No. threads in Y per process */
(PID.TID 0000.0001)       Nr =    5 ; /* No. levels in the vertical   */
(PID.TID 0000.0001)       nX =    2 ; /* Total domain size in X ( = nPx*nSx*sNx ) */
(PID.TID 0000.0001)       nY =   64 ; /* Total domain size in Y ( = nPy*nSy*sNy ) */
(PID.TID 0000.0001)   nTiles =    1 ; /* Total no. tiles per process ( = nSx*nSy ) */
(PID.TID 0000.0001)   nProcs =    1 ; /* Total no. processes ( = nPx*nPy ) */
(PID.TID 0000.0001) nThreads =    1 ; /* Total no. threads per process ( = nTx*nTy ) */
(PID.TID 0000.0001) usingMPI =    F ; /* Flag used to control whether MPI is in use */
(PID.TID 0000.0001)                   /*  note: To execute a program with MPI calls */
(PID.TID 0000.0001)                   /*  it must be launched appropriately e.g     */
(PID.TID 0000.0001)                   /*  "mpirun -np 64 ......"                    */
(PID.TID 0000.0001) useCoupler=   F ; /* Flag used to control communications with */
(PID.TID 0000.0001)                   /*  other model components, through a coupler */
(PID.TID 0000.0001) 
(PID.TID 0000.0001) // ======================================================
(PID.TID 0000.0001) // Mapping of tiles to threads
(PID.TID 0000.0001) // ======================================================
(PID.TID 0000.0001) // -o- Thread   1, tiles (   1:   1,   1:   1)
(PID.TID 0000.0001) 
(PID.TID 0000.0001) // ======================================================
(PID.TID 0000.0001) // Tile <-> Tile connectvity table
(PID.TID 0000.0001) // ======================================================
(PID.TID 0000.0001) // Tile number: 000001 (process no. = 000001)
(PID.TID 0000.0001) //        WEST: Tile = 000001, Process = 000001, Comm = put
(PID.TID 0000.0001) //                bi = 000001, bj = 000001
(PID.TID 0000.0001) //        EAST: Tile = 000001, Process = 000001, Comm = put
(PID.TID 0000.0001) //                bi = 000001, bj = 000001
(PID.TID 0000.0001) //       SOUTH: Tile = 000001, Process = 000001, Comm = put
(PID.TID 0000.0001) //                bi = 000001, bj = 000001
(PID.TID 0000.0001) //       NORTH: Tile = 000001, Process = 000001, Comm = put
(PID.TID 0000.0001) //                bi = 000001, bj = 000001
(PID.TID 0000.0001) 
(PID.TID 0000.0001) // =======================================================
(PID.TID 0000.0001) // Model parameter file "data"
(PID.TID 0000.0001) // =======================================================
(PID.TID 0000.0001) ># ====================
(PID.TID 0000.0001) ># | Model parameters |
(PID.TID 0000.0001) ># ====================
(PID.TID 0000.0001) >#
(PID.TID 0000.0001) ># Continuous equation parameters
(PID.TID 0000.0001) > &PARM01
(PID.TID 0000.0001) > tRef= 281.089, 289.321, 307.191, 331.377, 432.413,
(PID.TID 0000.0001) > tRef=5*0.,
(PID.TID 0000.0001) > sRef=5*0.,
(PID.TID 0000.0001) > viscAr=0.,
(PID.TID 0000.0001) > viscAh=0.,
(PID.TID 0000.0001) > viscA4=0.,
(PID.TID 0000.0001) > no_slip_sides=.FALSE.,
(PID.TID 0000.0001) > no_slip_bottom=.FALSE.,
(PID.TID 0000.0001) > diffKrT=0.,
(PID.TID 0000.0001) > diffKhT=0.,
(PID.TID 0000.0001) > diffK4T=0.,
(PID.TID 0000.0001) > diffKrS=0.,
(PID.TID 0000.0001) > diffKhS=0.,
(PID.TID 0000.0001) > diffK4S=0.,
(PID.TID 0000.0001) > buoyancyRelation='ATMOSPHERIC',
(PID.TID 0000.0001) > eosType='IDEALGAS',
(PID.TID 0000.0001) > rotationPeriod=86400.,
(PID.TID 0000.0001) > gravity=9.81,
(PID.TID 0000.0001) > rhonil=1.0,
(PID.TID 0000.0001) > rhoConst=1.0,
(PID.TID 0000.0001) > rigidLid=.FALSE.,
(PID.TID 0000.0001) > implicitFreeSurface=.TRUE.,
(PID.TID 0000.0001) > staggerTimestep=.TRUE.,
(PID.TID 0000.0001) > readBinaryPrec=64,
(PID.TID 0000.0001) > writeBinaryPrec=64,
(PID.TID 0000.0001) ># globalFiles=.TRUE.,
(PID.TID 0000.0001) > &
(PID.TID 0000.0001) >
(PID.TID 0000.0001) ># Elliptic solver parameters
(PID.TID 0000.0001) > &PARM02
(PID.TID 0000.0001) > cg2dMaxIters=600,
(PID.TID 0000.0001) > cg2dTargetResidual=1.E-13,
(PID.TID 0000.0001) > &
(PID.TID 0000.0001) >
(PID.TID 0000.0001) ># Time stepping parameters
(PID.TID 0000.0001) > &PARM03
(PID.TID 0000.0001) > niter0=0,
(PID.TID 0000.0001) > nTimeSteps=10,
(PID.TID 0000.0001) > abEps=0.1,
(PID.TID 0000.0001) > deltaT=1200.0,
(PID.TID 0000.0001) > cAdjFreq=0.,
(PID.TID 0000.0001) > pChkptFreq=0.0,
(PID.TID 0000.0001) > chkptFreq=0.0,
(PID.TID 0000.0001) > dumpFreq=2592000.0,
(PID.TID 0000.0001) > taveFreq=2592000.,
(PID.TID 0000.0001) > monitorFreq=1.,
(PID.TID 0000.0001) > &
(PID.TID 0000.0001) >
(PID.TID 0000.0001) ># Gridding parameters
(PID.TID 0000.0001) > &PARM04
(PID.TID 0000.0001) > usingSphericalPolarGrid=.TRUE.,
(PID.TID 0000.0001) > delX=1*2.8125,
(PID.TID 0000.0001) > delY=64*2.8125,
(PID.TID 0000.0001) > delR=100.E2, 250.E2, 300.E2, 200.E2, 150.E2,
(PID.TID 0000.0001) > Ro_SeaLevel=1.E5,
(PID.TID 0000.0001) > phiMin=-90.,
(PID.TID 0000.0001) > &
(PID.TID 0000.0001) >
(PID.TID 0000.0001) ># Input datasets
(PID.TID 0000.0001) > &PARM05
(PID.TID 0000.0001) > &
(PID.TID 0000.0001) 
(PID.TID 0000.0001) S/R INI_PARMS ; starts to read PARM01
(PID.TID 0000.0001) S/R INI_PARMS ; read PARM01 : OK
(PID.TID 0000.0001) S/R INI_PARMS ; starts to read PARM02
(PID.TID 0000.0001) S/R INI_PARMS ; read PARM02 : OK
(PID.TID 0000.0001) S/R INI_PARMS ; starts to read PARM03
(PID.TID 0000.0001) S/R INI_PARMS ; read PARM03 : OK
(PID.TID 0000.0001) S/R INI_PARMS ; starts to read PARM04
(PID.TID 0000.0001) S/R INI_PARMS ; read PARM04 : OK
(PID.TID 0000.0001) S/R INI_PARMS ; starts to read PARM05
(PID.TID 0000.0001) S/R INI_PARMS ; read PARM05 : OK
(PID.TID 0000.0001)  PACKAGES_BOOT: opening data.pkg
(PID.TID 0000.0001)  OPEN_COPY_DATA_FILE: opening file data.pkg
(PID.TID 0000.0001) // =======================================================
(PID.TID 0000.0001) // Parameter file "data.pkg"
(PID.TID 0000.0001) // =======================================================
(PID.TID 0000.0001) >#
(PID.TID 0000.0001) ># ********
(PID.TID 0000.0001) ># Packages
(PID.TID 0000.0001) ># ********
(PID.TID 0000.0001) > &PACKAGES
(PID.TID 0000.0001) > useSHAP_FILT = .TRUE.,
(PID.TID 0000.0001) > useGrdchk    = .TRUE.,
(PID.TID 0000.0001) > useMYPACKAGE = .TRUE.,
(PID.TID 0000.0001) > &
(PID.TID 0000.0001) 
(PID.TID 0000.0001)  PACKAGES_BOOT: finished reading data.pkg
(PID.TID 0000.0001)  SHAP_FILT_READPARMS: opening data.shap
(PID.TID 0000.0001)  OPEN_COPY_DATA_FILE: opening file data.shap
(PID.TID 0000.0001) // =======================================================
(PID.TID 0000.0001) // Parameter file "data.shap"
(PID.TID 0000.0001) // =======================================================
(PID.TID 0000.0001) ># Packages
(PID.TID 0000.0001) > &SHAP_PARM01
(PID.TID 0000.0001) > nShapT=4,
(PID.TID 0000.0001) > nShapUV=4,
(PID.TID 0000.0001) > Shap_funct=4,
(PID.TID 0000.0001) > &
(PID.TID 0000.0001) 
(PID.TID 0000.0001)  SHAP_FILT_READPARMS: finished reading data.shap
(PID.TID 0000.0001) Shap_funct =   /* select Shapiro filter function */
(PID.TID 0000.0001)                       4
(PID.TID 0000.0001)     ;
(PID.TID 0000.0001) nShapT =   /* power of Shapiro filter for Temperat */
(PID.TID 0000.0001)                       4
(PID.TID 0000.0001)     ;
(PID.TID 0000.0001) nShapS =   /* power of Shapiro filter for Salinity */
(PID.TID 0000.0001)                       4
(PID.TID 0000.0001)     ;
(PID.TID 0000.0001) nShapUV =   /* power of Shapiro filter for momentum */
(PID.TID 0000.0001)                       4
(PID.TID 0000.0001)     ;
(PID.TID 0000.0001) shap_filt_uvStar = /* apply filter before Press. Solver */
(PID.TID 0000.0001)                   T
(PID.TID 0000.0001)     ;
(PID.TID 0000.0001) shap_filt_TrStagg = /* filter T,S before calc PhiHyd (staggerTimeStep) */
(PID.TID 0000.0001)                   T
(PID.TID 0000.0001)     ;
(PID.TID 0000.0001) Shap_alwaysExchUV = /* always exch(U,V)    nShapUV times*/
(PID.TID 0000.0001)                   T
(PID.TID 0000.0001)     ;
(PID.TID 0000.0001) Shap_alwaysExchTr = /* always exch(Tracer) nShapTr times*/
(PID.TID 0000.0001)                   T
(PID.TID 0000.0001)     ;
(PID.TID 0000.0001) Shap_Trtau =   /* time scale of Shapiro filter (Tracer) */
(PID.TID 0000.0001)                 1.200000000000000E+03
(PID.TID 0000.0001)     ;
(PID.TID 0000.0001) Shap_TrLength =   /* Length scale of Shapiro filter (Tracer) */
(PID.TID 0000.0001)                 0.000000000000000E+00
(PID.TID 0000.0001)     ;
(PID.TID 0000.0001) Shap_uvtau =   /* time scale of Shapiro filter (Momentum) */
(PID.TID 0000.0001)                 1.200000000000000E+03
(PID.TID 0000.0001)     ;
(PID.TID 0000.0001) Shap_uvLength =   /* Length scale of Shapiro filter (Momentum) */
(PID.TID 0000.0001)                 0.000000000000000E+00
(PID.TID 0000.0001)     ;
(PID.TID 0000.0001) Shap_noSlip =  /* No-slip parameter (0=Free-slip ; 1=No-slip)*/
(PID.TID 0000.0001)                 0.000000000000000E+00
(PID.TID 0000.0001)     ;
(PID.TID 0000.0001) Shap_diagFreq =   /* Frequency^-1 for diagnostic output (s)*/
(PID.TID 0000.0001)                 0.000000000000000E+00
(PID.TID 0000.0001)     ;
(PID.TID 0000.0001) MYPACKAGE_READPARMS: opening data.mypackage
(PID.TID 0000.0001)  OPEN_COPY_DATA_FILE: opening file data.mypackage
(PID.TID 0000.0001) // =======================================================
(PID.TID 0000.0001) // Parameter file "data.mypackage"
(PID.TID 0000.0001) // =======================================================
(PID.TID 0000.0001) >#
(PID.TID 0000.0001) > &MYPACKAGE_PARM01
(PID.TID 0000.0001) > &
(PID.TID 0000.0001) 
(PID.TID 0000.0001) MYPACKAGE_READPARMS: finished reading data.mypackage
(PID.TID 0000.0001) OPTIM_READPARMS: opening data.optim
(PID.TID 0000.0001)  OPEN_COPY_DATA_FILE: opening file data.optim
(PID.TID 0000.0001) // =======================================================
(PID.TID 0000.0001) // Parameter file "data.optim"
(PID.TID 0000.0001) // =======================================================
(PID.TID 0000.0001) >#
(PID.TID 0000.0001) ># ********************************
(PID.TID 0000.0001) ># Off-line optimization parameters
(PID.TID 0000.0001) ># ********************************
(PID.TID 0000.0001) > &OPTIM
(PID.TID 0000.0001) > optimcycle=0,
(PID.TID 0000.0001) > &
(PID.TID 0000.0001) 
(PID.TID 0000.0001) OPTIM_READPARMS: finished reading data.optim
(PID.TID 0000.0001) CTRL_READPARMS: opening data.ctrl
(PID.TID 0000.0001)  OPEN_COPY_DATA_FILE: opening file data.ctrl
(PID.TID 0000.0001) // =======================================================
(PID.TID 0000.0001) // Parameter file "data.ctrl"
(PID.TID 0000.0001) // =======================================================
(PID.TID 0000.0001) >#
(PID.TID 0000.0001) >#
(PID.TID 0000.0001) ># *********************
(PID.TID 0000.0001) ># ECCO controlvariables
(PID.TID 0000.0001) ># *********************
(PID.TID 0000.0001) > &CTRL_NML
(PID.TID 0000.0001) > xx_theta_file      = 'xx_theta',
(PID.TID 0000.0001) > xx_salt_file       = 'xx_salt',
(PID.TID 0000.0001) > xx_tr1_file        = 'xx_tr1',
(PID.TID 0000.0001) > xx_hflux_file      = 'xx_hflux',
(PID.TID 0000.0001) > xx_sflux_file      = 'xx_sflux',
(PID.TID 0000.0001) > xx_tauu_file       = 'xx_tauu',
(PID.TID 0000.0001) > xx_tauv_file       = 'xx_tauv',
(PID.TID 0000.0001) > xx_sst_file        = 'xx_sst',
(PID.TID 0000.0001) > xx_sss_file        = 'xx_sss',
(PID.TID 0000.0001) > xx_diffkr_file     = 'xx_diffkr',
(PID.TID 0000.0001) > xx_kapgm_file      = 'xx_kapgm',
(PID.TID 0000.0001) > &
(PID.TID 0000.0001) >#
(PID.TID 0000.0001) ># *********************
(PID.TID 0000.0001) ># names for ctrl_pack/unpack
(PID.TID 0000.0001) ># *********************
(PID.TID 0000.0001) > &CTRL_PACKNAMES
(PID.TID 0000.0001) > ctrlname = 'ecco_ctrl',
(PID.TID 0000.0001) > costname = 'ecco_cost',
(PID.TID 0000.0001) > scalname = 'ecco_scal',
(PID.TID 0000.0001) > maskname = 'ecco_mask',
(PID.TID 0000.0001) > metaname = 'ecco_meta',
(PID.TID 0000.0001) > &
(PID.TID 0000.0001) >
(PID.TID 0000.0001) 
(PID.TID 0000.0001) CTRL_READPARMS: finished reading data.ctrl
(PID.TID 0000.0001) COST_READPARMS: opening data.cost
(PID.TID 0000.0001)  OPEN_COPY_DATA_FILE: opening file data.cost
(PID.TID 0000.0001) // =======================================================
(PID.TID 0000.0001) // Parameter file "data.cost"
(PID.TID 0000.0001) // =======================================================
(PID.TID 0000.0001) >#
(PID.TID 0000.0001) >#
(PID.TID 0000.0001) ># ******************
(PID.TID 0000.0001) ># ECCO cost function
(PID.TID 0000.0001) ># ******************
(PID.TID 0000.0001) > &COST_NML
(PID.TID 0000.0001) >#
(PID.TID 0000.0001) > mult_tracer  = 1.,
(PID.TID 0000.0001) > mult_test    = 1.,
(PID.TID 0000.0001) > &
(PID.TID 0000.0001) 
(PID.TID 0000.0001) COST_READPARMS: finished reading data.cost
(PID.TID 0000.0001) GRDCHK_READPARMS: opening data.grdchk
(PID.TID 0000.0001)  OPEN_COPY_DATA_FILE: opening file data.grdchk
(PID.TID 0000.0001) // =======================================================
(PID.TID 0000.0001) // Parameter file "data.grdchk"
(PID.TID 0000.0001) // =======================================================
(PID.TID 0000.0001) >
(PID.TID 0000.0001) ># *******************
(PID.TID 0000.0001) ># ECCO gradient check
(PID.TID 0000.0001) ># *******************
(PID.TID 0000.0001) > &GRDCHK_NML
(PID.TID 0000.0001) > grdchk_eps       = 1.d-2,
(PID.TID 0000.0001) > nbeg             = 1,
(PID.TID 0000.0001) > nstep            = 1,
(PID.TID 0000.0001) > nend             = 4,
(PID.TID 0000.0001) > grdchkvarindex   = 1,
(PID.TID 0000.0001) > &
(PID.TID 0000.0001) 
(PID.TID 0000.0001) GRDCHK_READPARMS: finished reading data.grdchk
(PID.TID 0000.0001) 
(PID.TID 0000.0001) // =======================================================
(PID.TID 0000.0001) // Gradient check configuration  >>> START <<<
(PID.TID 0000.0001) // =======================================================
(PID.TID 0000.0001) 
(PID.TID 0000.0001)   eps:                              0.100E-01
(PID.TID 0000.0001)   First location:                           1
(PID.TID 0000.0001)   Last location:                            4
(PID.TID 0000.0001)   Increment:                                1
(PID.TID 0000.0001) 
(PID.TID 0000.0001) // =======================================================
(PID.TID 0000.0001) // Gradient check configuration  >>> END <<<
(PID.TID 0000.0001) // =======================================================
(PID.TID 0000.0001) 
(PID.TID 0000.0001) SET_PARMS: done
(PID.TID 0000.0001) Enter INI_VERTICAL_GRID: setInterFDr=    T ; setCenterDr=    F
(PID.TID 0000.0001) %MON XC_max                       =   6.1731162500000E+04
(PID.TID 0000.0001) %MON XC_min                       =   1.4062500000000E+00
(PID.TID 0000.0001) %MON XC_mean                      =   3.0866284375000E+04
(PID.TID 0000.0001) %MON XC_sd                        =   3.0864878125000E+04
(PID.TID 0000.0001) %MON XG_max                       =   2.8125000000000E+00
(PID.TID 0000.0001) %MON XG_min                       =   2.8125000000000E+00
(PID.TID 0000.0001) %MON XG_mean                      =   2.8125000000000E+00
(PID.TID 0000.0001) %MON XG_sd                        =   0.0000000000000E+00
(PID.TID 0000.0001) %MON DXC_max                      =   6.8608913357743E+09
(PID.TID 0000.0001) %MON DXC_min                      =   1.6842542873232E+08
(PID.TID 0000.0001) %MON DXC_mean                     =   4.3695336528951E+09
(PID.TID 0000.0001) %MON DXC_sd                       =   2.1112257528249E+09
(PID.TID 0000.0001) %MON DXF_max                      =   1.3721470079080E+10
(PID.TID 0000.0001) %MON DXF_min                      =   7.6737143816223E+03
(PID.TID 0000.0001) %MON DXF_mean                     =   4.3695336528951E+09
(PID.TID 0000.0001) %MON DXF_sd                       =   5.2919964848858E+09
(PID.TID 0000.0001) %MON DXG_max                      =   1.3725603974381E+10
(PID.TID 0000.0001) %MON DXG_min                      =   1.5342806404640E+04
(PID.TID 0000.0001) %MON DXG_mean                     =   4.4375544188470E+09
(PID.TID 0000.0001) %MON DXG_sd                       =   5.3060107456477E+09
(PID.TID 0000.0001) %MON DXV_max                      =   6.8629583305122E+09
(PID.TID 0000.0001) %MON DXV_min                      =   3.3674940428422E+08
(PID.TID 0000.0001) %MON DXV_mean                     =   4.4375544188470E+09
(PID.TID 0000.0001) %MON DXV_sd                       =   2.0571874952504E+09
(PID.TID 0000.0001) %MON YC_max                       =   8.8593750000000E+01
(PID.TID 0000.0001) %MON YC_min                       =  -8.8593750000000E+01
(PID.TID 0000.0001) %MON YC_mean                      =   0.0000000000000E+00
(PID.TID 0000.0001) %MON YC_sd                        =   5.1955180880375E+01
(PID.TID 0000.0001) %MON YG_max                       =   8.7187500000000E+01
(PID.TID 0000.0001) %MON YG_min                       =  -9.0000000000000E+01
(PID.TID 0000.0001) %MON YG_mean                      =  -1.4285714285714E+00
(PID.TID 0000.0001) %MON YG_sd                        =   5.2365595692639E+01
(PID.TID 0000.0001) %MON DYC_max                      =   3.1268664380261E+05
(PID.TID 0000.0001) %MON DYC_min                      =   3.1268664380261E+05
(PID.TID 0000.0001) %MON DYC_mean                     =   3.1268664380261E+05
(PID.TID 0000.0001) %MON DYC_sd                       =   4.6566128730774E-10
(PID.TID 0000.0001) %MON DYF_max                      =   3.1268664380261E+05
(PID.TID 0000.0001) %MON DYF_min                      =   3.1268664380261E+05
(PID.TID 0000.0001) %MON DYF_mean                     =   3.1268664380261E+05
(PID.TID 0000.0001) %MON DYF_sd                       =   4.6566128730774E-10
(PID.TID 0000.0001) %MON DYG_max                      =   3.1268664380261E+05
(PID.TID 0000.0001) %MON DYG_min                      =   3.1268664380261E+05
(PID.TID 0000.0001) %MON DYG_mean                     =   3.1268664380261E+05
(PID.TID 0000.0001) %MON DYG_sd                       =   4.6566128730774E-10
(PID.TID 0000.0001) %MON DYU_max                      =   3.1268664380261E+05
(PID.TID 0000.0001) %MON DYU_min                      =   3.1268664380261E+05
(PID.TID 0000.0001) %MON DYU_mean                     =   3.1268664380261E+05
(PID.TID 0000.0001) %MON DYU_sd                       =   4.6566128730774E-10
(PID.TID 0000.0001) %MON RA_max                       =   4.2900896769041E+15
(PID.TID 0000.0001) %MON RA_min                       =   2.3992270990190E+09
(PID.TID 0000.0001) %MON RA_mean                      =   1.3661576426676E+15
(PID.TID 0000.0001) %MON RA_sd                        =   1.6545704912941E+15
(PID.TID 0000.0001) %MON RAW_max                      =   2.1450937052904E+15
(PID.TID 0000.0001) %MON RAW_min                      =   5.2659094759409E+13
(PID.TID 0000.0001) %MON RAW_mean                     =   1.3661576426676E+15
(PID.TID 0000.0001) %MON RAW_sd                       =   6.6008581847342E+14
(PID.TID 0000.0001) %MON RAS_max                      =   4.2913821609784E+15
(PID.TID 0000.0001) %MON RAS_min                      =   4.7970089933466E+09
(PID.TID 0000.0001) %MON RAS_mean                     =   1.3874246923455E+15
(PID.TID 0000.0001) %MON RAS_sd                       =   1.6589521235156E+15
(PID.TID 0000.0001) %MON RAZ_max                      =   2.1457399620498E+15
(PID.TID 0000.0001) %MON RAZ_min                      =   1.0528646964919E+14
(PID.TID 0000.0001) %MON RAZ_mean                     =   1.3874246923455E+15
(PID.TID 0000.0001) %MON RAZ_sd                       =   6.4319047346721E+14
(PID.TID 0000.0001) %MON AngleCS_max                  =   1.0000000000000E+00
(PID.TID 0000.0001) %MON AngleCS_min                  =   1.0000000000000E+00
(PID.TID 0000.0001) %MON AngleCS_mean                 =   1.0000000000000E+00
(PID.TID 0000.0001) %MON AngleCS_sd                   =   0.0000000000000E+00
(PID.TID 0000.0001) %MON AngleSN_max                  =   0.0000000000000E+00
(PID.TID 0000.0001) %MON AngleSN_min                  =   0.0000000000000E+00
(PID.TID 0000.0001) %MON AngleSN_mean                 =   0.0000000000000E+00
(PID.TID 0000.0001) %MON AngleSN_sd                   =   0.0000000000000E+00
(PID.TID 0000.0001) 
(PID.TID 0000.0001) INI_PHIREF: PhiRef/g [m] at level Center (integer)
(PID.TID 0000.0001)                      and at level Interface (half-int.) :
(PID.TID 0000.0001)  K=  0.5  ;  r=  100000.0  ;  phiRef/g=       0.000
(PID.TID 0000.0001)  K=  1.0  ;  r=   95000.0  ;  phiRef/g=       0.000
(PID.TID 0000.0001)  K=  1.5  ;  r=   90000.0  ;  phiRef/g=       0.000
(PID.TID 0000.0001)  K=  2.0  ;  r=   77500.0  ;  phiRef/g=       0.000
(PID.TID 0000.0001)  K=  2.5  ;  r=   65000.0  ;  phiRef/g=       0.000
(PID.TID 0000.0001)  K=  3.0  ;  r=   50000.0  ;  phiRef/g=       0.000
(PID.TID 0000.0001)  K=  3.5  ;  r=   35000.0  ;  phiRef/g=       0.000
(PID.TID 0000.0001)  K=  4.0  ;  r=   25000.0  ;  phiRef/g=       0.000
(PID.TID 0000.0001)  K=  4.5  ;  r=   15000.0  ;  phiRef/g=       0.000
(PID.TID 0000.0001)  K=  5.0  ;  r=    7500.0  ;  phiRef/g=       0.000
(PID.TID 0000.0001)  K=  5.5  ;  r=       0.0  ;  phiRef/g=       0.000
(PID.TID 0000.0001) // =======================================================
(PID.TID 0000.0001) // Field Model R_low (ini_masks_etc) at iteration          1
(PID.TID 0000.0001) // CMIN =          1.000000000000000E+32
(PID.TID 0000.0001) // CMAX =         -1.000000000000000E+32
(PID.TID 0000.0001) // CINT =          0.000000000000000E+00
(PID.TID 0000.0001) // SYMBOLS (CMIN->CMAX): -abcdefghijklmnopqrstuvwxyz+
(PID.TID 0000.0001) //                  0.0: .
(PID.TID 0000.0001) // RANGE I (Lo:Hi:Step):(  -3:   6:   1)
(PID.TID 0000.0001) // RANGE J (Lo:Hi:Step):(  68:  -3:  -1)
(PID.TID 0000.0001) // RANGE K (Lo:Hi:Step):(   1:   1:   1)
(PID.TID 0000.0001) // =======================================================
(PID.TID 0000.0001) // =======================================================
(PID.TID 0000.0001) // END OF FIELD                                          =
(PID.TID 0000.0001) // =======================================================
(PID.TID 0000.0001) 
(PID.TID 0000.0001) // =======================================================
(PID.TID 0000.0001) // Field Model Ro_surf (ini_masks_etc) at iteration          1
(PID.TID 0000.0001) // CMIN =          1.000000000000000E+05
(PID.TID 0000.0001) // CMAX =          1.000000000000000E+05
(PID.TID 0000.0001) // CINT =          0.000000000000000E+00
(PID.TID 0000.0001) // SYMBOLS (CMIN->CMAX): -abcdefghijklmnopqrstuvwxyz+
(PID.TID 0000.0001) //                  0.0: .
(PID.TID 0000.0001) // RANGE I (Lo:Hi:Step):(  -3:   6:   1)
(PID.TID 0000.0001) // RANGE J (Lo:Hi:Step):(  68:  -3:  -1)
(PID.TID 0000.0001) // RANGE K (Lo:Hi:Step):(   1:   1:   1)
(PID.TID 0000.0001) // =======================================================
(PID.TID 0000.0001) // =======================================================
(PID.TID 0000.0001) // END OF FIELD                                          =
(PID.TID 0000.0001) // =======================================================
(PID.TID 0000.0001) 
(PID.TID 0000.0001) // =======================================================
(PID.TID 0000.0001) // Field hFacC at iteration          1
(PID.TID 0000.0001) // CMIN =          1.000000000000000E+00
(PID.TID 0000.0001) // CMAX =          1.000000000000000E+00
(PID.TID 0000.0001) // CINT =          0.000000000000000E+00
(PID.TID 0000.0001) // SYMBOLS (CMIN->CMAX): -abcdefghijklmnopqrstuvwxyz+
(PID.TID 0000.0001) //                  0.0: .
(PID.TID 0000.0001) // RANGE I (Lo:Hi:Step):(  -3:   6:   1)
(PID.TID 0000.0001) // RANGE J (Lo:Hi:Step):(  68:  -3:  -1)
(PID.TID 0000.0001) // RANGE K (Lo:Hi:Step):(   1:   1:   1)
(PID.TID 0000.0001) // =======================================================
(PID.TID 0000.0001) // =======================================================
(PID.TID 0000.0001) // END OF FIELD                                          =
(PID.TID 0000.0001) // =======================================================
(PID.TID 0000.0001) 
(PID.TID 0000.0001) // =======================================================
(PID.TID 0000.0001) // Field hFacW at iteration          1
(PID.TID 0000.0001) // CMIN =          1.000000000000000E+00
(PID.TID 0000.0001) // CMAX =          1.000000000000000E+00
(PID.TID 0000.0001) // CINT =          0.000000000000000E+00
(PID.TID 0000.0001) // SYMBOLS (CMIN->CMAX): -abcdefghijklmnopqrstuvwxyz+
(PID.TID 0000.0001) //                  0.0: .
(PID.TID 0000.0001) // RANGE I (Lo:Hi:Step):(  -3:   6:   1)
(PID.TID 0000.0001) // RANGE J (Lo:Hi:Step):(  68:  -3:  -1)
(PID.TID 0000.0001) // RANGE K (Lo:Hi:Step):(   1:   1:   1)
(PID.TID 0000.0001) // =======================================================
(PID.TID 0000.0001) // =======================================================
(PID.TID 0000.0001) // END OF FIELD                                          =
(PID.TID 0000.0001) // =======================================================
(PID.TID 0000.0001) 
(PID.TID 0000.0001) // =======================================================
(PID.TID 0000.0001) // Field hFacS at iteration          1
(PID.TID 0000.0001) // CMIN =          1.000000000000000E+00
(PID.TID 0000.0001) // CMAX =          1.000000000000000E+00
(PID.TID 0000.0001) // CINT =          0.000000000000000E+00
(PID.TID 0000.0001) // SYMBOLS (CMIN->CMAX): -abcdefghijklmnopqrstuvwxyz+
(PID.TID 0000.0001) //                  0.0: .
(PID.TID 0000.0001) // RANGE I (Lo:Hi:Step):(  -3:   6:   1)
(PID.TID 0000.0001) // RANGE J (Lo:Hi:Step):(  68:  -3:  -1)
(PID.TID 0000.0001) // RANGE K (Lo:Hi:Step):(   1:   1:   1)
(PID.TID 0000.0001) // =======================================================
(PID.TID 0000.0001) // =======================================================
(PID.TID 0000.0001) // END OF FIELD                                          =
(PID.TID 0000.0001) // =======================================================
(PID.TID 0000.0001) 
(PID.TID 0000.0001) 
(PID.TID 0000.0001) // ===================================
(PID.TID 0000.0001) // GAD parameters :
(PID.TID 0000.0001) // ===================================
(PID.TID 0000.0001) tempAdvScheme =   /* Temp. Horiz.Advection scheme selector */
(PID.TID 0000.0001)                       2
(PID.TID 0000.0001)     ;
(PID.TID 0000.0001) tempVertAdvScheme =   /* Temp. Vert. Advection scheme selector */
(PID.TID 0000.0001)                       2
(PID.TID 0000.0001)     ;
(PID.TID 0000.0001) tempMultiDimAdvec =   /* use Muti-Dim Advec method for Temp */
(PID.TID 0000.0001)                   F
(PID.TID 0000.0001)     ;
(PID.TID 0000.0001) tempSOM_Advection = /* use 2nd Order Moment Advection for Temp */
(PID.TID 0000.0001)                   F
(PID.TID 0000.0001)     ;
(PID.TID 0000.0001) AdamsBashforthGt = /* apply Adams-Bashforth extrapolation on Gt */
(PID.TID 0000.0001)                   T
(PID.TID 0000.0001)     ;
(PID.TID 0000.0001) AdamsBashforth_T = /* apply Adams-Bashforth extrapolation on Temp */
(PID.TID 0000.0001)                   F
(PID.TID 0000.0001)     ;
(PID.TID 0000.0001) saltAdvScheme =   /* Salt. Horiz.advection scheme selector */
(PID.TID 0000.0001)                       2
(PID.TID 0000.0001)     ;
(PID.TID 0000.0001) saltVertAdvScheme =   /* Salt. Vert. Advection scheme selector */
(PID.TID 0000.0001)                       2
(PID.TID 0000.0001)     ;
(PID.TID 0000.0001) saltMultiDimAdvec =   /* use Muti-Dim Advec method for Salt */
(PID.TID 0000.0001)                   F
(PID.TID 0000.0001)     ;
(PID.TID 0000.0001) saltSOM_Advection = /* use 2nd Order Moment Advection for Salt */
(PID.TID 0000.0001)                   F
(PID.TID 0000.0001)     ;
(PID.TID 0000.0001) AdamsBashforthGs = /* apply Adams-Bashforth extrapolation on Gs */
(PID.TID 0000.0001)                   T
(PID.TID 0000.0001)     ;
(PID.TID 0000.0001) AdamsBashforth_S = /* apply Adams-Bashforth extrapolation on Salt */
(PID.TID 0000.0001)                   F
(PID.TID 0000.0001)     ;
(PID.TID 0000.0001) // ===================================
(PID.TID 0000.0001) ctrl-wet 1:    nvarlength =         2560
(PID.TID 0000.0001) ctrl-wet 2: surface wet C =          128
(PID.TID 0000.0001) ctrl-wet 3: surface wet W =          128
(PID.TID 0000.0001) ctrl-wet 4: surface wet S =          126
(PID.TID 0000.0001) ctrl-wet 4a:surface wet V =            0
(PID.TID 0000.0001) ctrl-wet 5: 3D wet points =          640
(PID.TID 0000.0001) ctrl-wet 6: no recs for i =     1           1
(PID.TID 0000.0001) ctrl-wet 6: no recs for i =     2           1
(PID.TID 0000.0001) ctrl-wet 6: no recs for i =     3           0
(PID.TID 0000.0001) ctrl-wet 6: no recs for i =     4           0
(PID.TID 0000.0001) ctrl-wet 6: no recs for i =     5           0
(PID.TID 0000.0001) ctrl-wet 6: no recs for i =     6           0
(PID.TID 0000.0001) ctrl-wet 6: no recs for i =     7           0
(PID.TID 0000.0001) ctrl-wet 6: no recs for i =     8           0
(PID.TID 0000.0001) ctrl-wet 6: no recs for i =     9           0
(PID.TID 0000.0001) ctrl-wet 6: no recs for i =    10           0
(PID.TID 0000.0001) ctrl-wet 6: no recs for i =    11           0
(PID.TID 0000.0001) ctrl-wet 6: no recs for i =    12           0
(PID.TID 0000.0001) ctrl-wet 6: no recs for i =    13           0
(PID.TID 0000.0001) ctrl-wet 6: no recs for i =    14           0
(PID.TID 0000.0001) ctrl-wet 6: no recs for i =    15           1
(PID.TID 0000.0001) ctrl-wet 6: no recs for i =    16           0
(PID.TID 0000.0001) ctrl-wet 6: no recs for i =    17           1
(PID.TID 0000.0001) ctrl-wet 6: no recs for i =    18           0
(PID.TID 0000.0001) ctrl-wet 6: no recs for i =    19           0
(PID.TID 0000.0001) ctrl-wet 6: no recs for i =    20           0
(PID.TID 0000.0001) ctrl-wet 6: no recs for i =    21           0
(PID.TID 0000.0001) ctrl-wet 6: no recs for i =    22           0
(PID.TID 0000.0001) ctrl-wet 6: no recs for i =    23           0
(PID.TID 0000.0001) ctrl-wet 6: no recs for i =    24           0
(PID.TID 0000.0001) ctrl-wet 6: no recs for i =    25           0
(PID.TID 0000.0001) ctrl-wet 6: no recs for i =    26           0
(PID.TID 0000.0001) ctrl-wet 6: no recs for i =    27           0
(PID.TID 0000.0001) ctrl-wet 6: no recs for i =    28           0
(PID.TID 0000.0001) ctrl-wet 6: no recs for i =    29           0
(PID.TID 0000.0001) ctrl-wet 6: no recs for i =    30           0
(PID.TID 0000.0001) ctrl-wet 6: no recs for i =    31           0
(PID.TID 0000.0001) ctrl-wet 6: no recs for i =    32           0
(PID.TID 0000.0001) ctrl-wet 6: no recs for i =    33           0
(PID.TID 0000.0001) ctrl-wet 6: no recs for i =    34           0
(PID.TID 0000.0001) ctrl-wet 6: no recs for i =    35           0
(PID.TID 0000.0001) ctrl-wet 6: no recs for i =    36           0
(PID.TID 0000.0001) ctrl-wet 6: no recs for i =    37           0
(PID.TID 0000.0001) ctrl-wet 6: no recs for i =    38           0
(PID.TID 0000.0001) ctrl-wet 6: no recs for i =    39           0
(PID.TID 0000.0001) ctrl-wet 6: no recs for i =    40           0
(PID.TID 0000.0001) ctrl-wet 6: no recs for i =    41           0
(PID.TID 0000.0001) ctrl-wet 6: no recs for i =    42           0
(PID.TID 0000.0001) ctrl-wet 6: no recs for i =    43           0
(PID.TID 0000.0001) ctrl-wet 6: no recs for i =    44           0
(PID.TID 0000.0001) ctrl-wet 6: no recs for i =    45           0
(PID.TID 0000.0001) ctrl-wet 6: no recs for i =    46           0
(PID.TID 0000.0001) ctrl-wet 6: no recs for i =    47           0
(PID.TID 0000.0001) ctrl-wet 6: no recs for i =    48           0
(PID.TID 0000.0001) ctrl-wet 6: no recs for i =    49           0
(PID.TID 0000.0001) ctrl-wet 6: no recs for i =    50           0
(PID.TID 0000.0001) ctrl-wet 6: no recs for i =    51           0
(PID.TID 0000.0001) ctrl-wet 6: no recs for i =    52           0
(PID.TID 0000.0001) ctrl-wet 6: no recs for i =    53           0
(PID.TID 0000.0001) ctrl-wet 6: no recs for i =    54           0
(PID.TID 0000.0001) ctrl-wet 6: no recs for i =    55           0
(PID.TID 0000.0001) ctrl-wet 6: no recs for i =    56           0
(PID.TID 0000.0001) ctrl-wet 6: no recs for i =    57           0
(PID.TID 0000.0001) ctrl-wet 6: no recs for i =    58           0
(PID.TID 0000.0001) ctrl-wet 6: no recs for i =    59           0
(PID.TID 0000.0001) ctrl-wet 6: no recs for i =    60           0
(PID.TID 0000.0001) ctrl-wet 7: flux          1280
(PID.TID 0000.0001) ctrl-wet 8: atmos         1280
(PID.TID 0000.0001) ctrl-wet -------------------------------------------------
(PID.TID 0000.0001) ctrl-wet 13: global nvarlength for Nr =    5        2560
(PID.TID 0000.0001) ctrl-wet -------------------------------------------------
(PID.TID 0000.0001) ctrl-wet 14: global nWet C/S/W/V k=    1         128         126         128           0
(PID.TID 0000.0001) ctrl-wet 14: global nWet C/S/W/V k=    2         128         126         128           0
(PID.TID 0000.0001) ctrl-wet 14: global nWet C/S/W/V k=    3         128         126         128           0
(PID.TID 0000.0001) ctrl-wet 14: global nWet C/S/W/V k=    4         128         126         128           0
(PID.TID 0000.0001) ctrl-wet 14: global nWet C/S/W/V k=    5         128         126         128           0
(PID.TID 0000.0001) ctrl-wet -------------------------------------------------
(PID.TID 0000.0001) ctrl-wet -------------------------------------------------
(PID.TID 0000.0001) ctrl-wet -------------------------------------------------
(PID.TID 0000.0001) ctrl_init: no. of control variables:            4
(PID.TID 0000.0001) ctrl_init: control vector length:            2560
(PID.TID 0000.0001) GAD_CHECK: #define ALLOW_GENERIC_ADVDIFF
(PID.TID 0000.0001) CTRL_CHECK: ctrl package
(PID.TID 0000.0001) COST_CHECK: cost package
(PID.TID 0000.0001) CTRL_CHECK: ctrl package
(PID.TID 0000.0001) MYPACKAGE_CHECK: #define MYPACKAGE
(PID.TID 0000.0001) %MON fCori_max                    =   1.4540029928789E-04
(PID.TID 0000.0001) %MON fCori_min                    =  -1.4540029928789E-04
(PID.TID 0000.0001) %MON fCori_mean                   =  -2.1175823681358E-21
(PID.TID 0000.0001) %MON fCori_sd                     =   1.0284451245737E-04
(PID.TID 0000.0001) %MON fCoriG_max                   =   1.4526891053949E-04
(PID.TID 0000.0001) %MON fCoriG_min                   =  -1.4544410433286E-04
(PID.TID 0000.0001) %MON fCoriG_mean                  =  -2.3086365767121E-06
(PID.TID 0000.0001) %MON fCoriG_sd                    =   1.0363181330709E-04
(PID.TID 0000.0001) %MON fCoriCos_max                 =   1.4540029928789E-04
(PID.TID 0000.0001) %MON fCoriCos_min                 =   3.5693770017430E-06
(PID.TID 0000.0001) %MON fCoriCos_mean                =   9.2601889431869E-05
(PID.TID 0000.0001) %MON fCoriCos_sd                  =   4.4742416298653E-05
(PID.TID 0000.0001) INI_CG2D: CG2D normalisation factor =  2.2781266630324642E-10
(PID.TID 0000.0001) 
(PID.TID 0000.0001) CONFIG_CHECK: OK
(PID.TID 0000.0001) // =======================================================
(PID.TID 0000.0001) // Model configuration
(PID.TID 0000.0001) // =======================================================
(PID.TID 0000.0001) //
(PID.TID 0000.0001) // "Physical" paramters ( PARM01 in namelist )
(PID.TID 0000.0001) //
(PID.TID 0000.0001) buoyancyRelation = /* Type of relation to get Buoyancy */
(PID.TID 0000.0001)               'ATMOSPHERIC'
(PID.TID 0000.0001)     ;
(PID.TID 0000.0001) fluidIsAir  =  /* fluid major constituent is Air */
(PID.TID 0000.0001)                   T
(PID.TID 0000.0001)     ;
(PID.TID 0000.0001) fluidIsWater=  /* fluid major constituent is Water */
(PID.TID 0000.0001)                   F
(PID.TID 0000.0001)     ;
(PID.TID 0000.0001) usingPCoords =  /* use p (or p*) vertical coordinate */
(PID.TID 0000.0001)                   T
(PID.TID 0000.0001)     ;
(PID.TID 0000.0001) usingZCoords =  /* use z (or z*) vertical coordinate */
(PID.TID 0000.0001)                   F
(PID.TID 0000.0001)     ;
(PID.TID 0000.0001) tRef =   /* Reference temperature profile ( oC or K ) */
(PID.TID 0000.0001)     5 @  0.000000000000000E+00              /* K =  1:  5 */
(PID.TID 0000.0001)     ;
(PID.TID 0000.0001) sRef =   /* Reference salinity profile ( psu ) */
(PID.TID 0000.0001)     5 @  0.000000000000000E+00              /* K =  1:  5 */
(PID.TID 0000.0001)     ;
(PID.TID 0000.0001) viscAh =   /* Lateral eddy viscosity ( m^2/s ) */
(PID.TID 0000.0001)                 0.000000000000000E+00
(PID.TID 0000.0001)     ;
(PID.TID 0000.0001) viscAhMax =   /* Maximum lateral eddy viscosity ( m^2/s ) */
(PID.TID 0000.0001)                 1.000000000000000E+21
(PID.TID 0000.0001)     ;
(PID.TID 0000.0001) viscAhGrid =   /* Grid dependent lateral eddy viscosity ( non-dim. ) */
(PID.TID 0000.0001)                 0.000000000000000E+00
(PID.TID 0000.0001)     ;
(PID.TID 0000.0001) useFullLeith =   /* Use Full Form of Leith Viscosity on/off flag*/
(PID.TID 0000.0001)                   F
(PID.TID 0000.0001)     ;
(PID.TID 0000.0001) useStrainTensionVisc =   /* Use StrainTension Form of Viscous Operator on/off flag*/
(PID.TID 0000.0001)                   F
(PID.TID 0000.0001)     ;
(PID.TID 0000.0001) useAreaViscLength =   /* Use area for visc length instead of geom. mean*/
(PID.TID 0000.0001)                   F
(PID.TID 0000.0001)     ;
(PID.TID 0000.0001) viscC2leith = /* Leith harmonic visc. factor (on grad(vort),non-dim.) */
(PID.TID 0000.0001)                 0.000000000000000E+00
(PID.TID 0000.0001)     ;
(PID.TID 0000.0001) viscC2leithD = /* Leith harmonic viscosity factor (on grad(div),non-dim.) */
(PID.TID 0000.0001)                 0.000000000000000E+00
(PID.TID 0000.0001)     ;
(PID.TID 0000.0001) viscC2smag =   /* Smagorinsky harmonic viscosity factor (non-dim.) */
(PID.TID 0000.0001)                 0.000000000000000E+00
(PID.TID 0000.0001)     ;
(PID.TID 0000.0001) viscA4 =   /* Lateral biharmonic viscosity ( m^4/s ) */
(PID.TID 0000.0001)                 0.000000000000000E+00
(PID.TID 0000.0001)     ;
(PID.TID 0000.0001) viscA4Max =   /* Maximum biharmonic viscosity ( m^2/s ) */
(PID.TID 0000.0001)                 1.000000000000000E+21
(PID.TID 0000.0001)     ;
(PID.TID 0000.0001) viscA4Grid =   /* Grid dependent biharmonic viscosity ( non-dim. ) */
(PID.TID 0000.0001)                 0.000000000000000E+00
(PID.TID 0000.0001)     ;
(PID.TID 0000.0001) viscC4leith = /* Leith biharm viscosity factor (on grad(vort), non-dim.) */
(PID.TID 0000.0001)                 0.000000000000000E+00
(PID.TID 0000.0001)     ;
(PID.TID 0000.0001) viscC4leithD = /* Leith biharm viscosity factor (on grad(div), non-dim.) */
(PID.TID 0000.0001)                 0.000000000000000E+00
(PID.TID 0000.0001)     ;
(PID.TID 0000.0001) viscC4Smag = /* Smagorinsky biharm viscosity factor (non-dim) */
(PID.TID 0000.0001)                 0.000000000000000E+00
(PID.TID 0000.0001)     ;
(PID.TID 0000.0001) no_slip_sides =  /* Viscous BCs: No-slip sides */
(PID.TID 0000.0001)                   F
(PID.TID 0000.0001)     ;
(PID.TID 0000.0001) sideDragFactor = /* side-drag scaling factor (non-dim) */
(PID.TID 0000.0001)                 2.000000000000000E+00
(PID.TID 0000.0001)     ;
(PID.TID 0000.0001) viscAr =   /* Vertical eddy viscosity ( units of r^2/s ) */
(PID.TID 0000.0001)                 0.000000000000000E+00
(PID.TID 0000.0001)     ;
(PID.TID 0000.0001) no_slip_bottom =  /* Viscous BCs: No-slip bottom */
(PID.TID 0000.0001)                   F
(PID.TID 0000.0001)     ;
(PID.TID 0000.0001) bottomDragLinear = /* linear bottom-drag coefficient ( 1/s ) */
(PID.TID 0000.0001)                 0.000000000000000E+00
(PID.TID 0000.0001)     ;
(PID.TID 0000.0001) bottomDragQuadratic = /* quadratic bottom-drag coeff. ( 1/m ) */
(PID.TID 0000.0001)                 0.000000000000000E+00
(PID.TID 0000.0001)     ;
(PID.TID 0000.0001) diffKhT =   /* Laplacian diffusion of heat laterally ( m^2/s ) */
(PID.TID 0000.0001)                 0.000000000000000E+00
(PID.TID 0000.0001)     ;
(PID.TID 0000.0001) diffK4T =   /* Bihaarmonic diffusion of heat laterally ( m^4/s ) */
(PID.TID 0000.0001)                 0.000000000000000E+00
(PID.TID 0000.0001)     ;
(PID.TID 0000.0001) diffKhS =   /* Laplacian diffusion of salt laterally ( m^2/s ) */
(PID.TID 0000.0001)                 0.000000000000000E+00
(PID.TID 0000.0001)     ;
(PID.TID 0000.0001) diffK4S =   /* Bihaarmonic diffusion of salt laterally ( m^4/s ) */
(PID.TID 0000.0001)                 0.000000000000000E+00
(PID.TID 0000.0001)     ;
(PID.TID 0000.0001) diffKrNrT = /* vertical profile of vertical diffusion of Temp ( m^2/s )*/
(PID.TID 0000.0001)     5 @  0.000000000000000E+00              /* K =  1:  5 */
(PID.TID 0000.0001)     ;
(PID.TID 0000.0001) diffKrNrS = /* vertical profile of vertical diffusion of Salt ( m^2/s )*/
(PID.TID 0000.0001)     5 @  0.000000000000000E+00              /* K =  1:  5 */
(PID.TID 0000.0001)     ;
(PID.TID 0000.0001) diffKrBL79surf =   /* Surface diffusion for Bryan and Lewis 1979 ( m^2/s ) */
(PID.TID 0000.0001)                 0.000000000000000E+00
(PID.TID 0000.0001)     ;
(PID.TID 0000.0001) diffKrBL79deep =   /* Deep diffusion for Bryan and Lewis 1979 ( m^2/s ) */
(PID.TID 0000.0001)                 0.000000000000000E+00
(PID.TID 0000.0001)     ;
(PID.TID 0000.0001) diffKrBL79scl =   /* Depth scale for Bryan and Lewis 1979 ( m ) */
(PID.TID 0000.0001)                 2.000000000000000E+02
(PID.TID 0000.0001)     ;
(PID.TID 0000.0001) diffKrBL79Ho =   /* Turning depth for Bryan and Lewis 1979 ( m ) */
(PID.TID 0000.0001)                -2.000000000000000E+03
(PID.TID 0000.0001)     ;
(PID.TID 0000.0001) ivdc_kappa = /* Implicit Vertical Diffusivity for Convection ( m^2/s ) */
(PID.TID 0000.0001)                 0.000000000000000E+00
(PID.TID 0000.0001)     ;
(PID.TID 0000.0001) hMixCriteria=  /* Criteria for mixed-layer diagnostic */
(PID.TID 0000.0001)                -8.000000000000000E-01
(PID.TID 0000.0001)     ;
(PID.TID 0000.0001) eosType =  /* Type of Equation of State */
(PID.TID 0000.0001)               'IDEALG'
(PID.TID 0000.0001)     ;
(PID.TID 0000.0001) tAlpha =   /* Linear EOS thermal expansion coefficient ( 1/oC ) */
(PID.TID 0000.0001)                 1.234567000000000E+05
(PID.TID 0000.0001)     ;
(PID.TID 0000.0001) sBeta =   /* Linear EOS haline contraction coefficient ( 1/psu ) */
(PID.TID 0000.0001)                 1.234567000000000E+05
(PID.TID 0000.0001)     ;
(PID.TID 0000.0001) atm_Rd =  /* gas constant for dry air ( J/kg/K ) */
(PID.TID 0000.0001)                 2.868571428571428E+02
(PID.TID 0000.0001)     ;
(PID.TID 0000.0001) atm_Cp =  /* specific heat (Cp) of dry air ( J/kg/K ) */
(PID.TID 0000.0001)                 1.004000000000000E+03
(PID.TID 0000.0001)     ;
(PID.TID 0000.0001) atm_kappa =  /* kappa (=Rd/Cp ) of dry air */
(PID.TID 0000.0001)                 2.857142857142857E-01
(PID.TID 0000.0001)     ;
(PID.TID 0000.0001) atm_Rq = /* water vap. specific vol. anomaly relative to dry air */
(PID.TID 0000.0001)                 0.000000000000000E+00
(PID.TID 0000.0001)     ;
(PID.TID 0000.0001) atm_Po =  /* standard reference pressure ( Pa ) */
(PID.TID 0000.0001)                 1.000000000000000E+05
(PID.TID 0000.0001)     ;
(PID.TID 0000.0001) integr_GeoPot =  /* select how the geopotential is integrated */
(PID.TID 0000.0001)                       2
(PID.TID 0000.0001)     ;
(PID.TID 0000.0001) selectFindRoSurf=  /* select how Surf.Ref. pressure is defined */
(PID.TID 0000.0001)                       0
(PID.TID 0000.0001)     ;
(PID.TID 0000.0001) rhonil =   /* Reference density ( kg/m^3 ) */
(PID.TID 0000.0001)                 1.000000000000000E+00
(PID.TID 0000.0001)     ;
(PID.TID 0000.0001) rhoConst =   /* Reference density ( kg/m^3 ) */
(PID.TID 0000.0001)                 1.000000000000000E+00
(PID.TID 0000.0001)     ;
(PID.TID 0000.0001) rhoFacC = /* normalized Reference density @ cell-Center (-) */
(PID.TID 0000.0001)     5 @  1.000000000000000E+00              /* K =  1:  5 */
(PID.TID 0000.0001)     ;
(PID.TID 0000.0001) rhoFacF = /* normalized Reference density @ W-Interface (-) */
(PID.TID 0000.0001)     6 @  1.000000000000000E+00              /* K =  1:  6 */
(PID.TID 0000.0001)     ;
(PID.TID 0000.0001) rhoConstFresh =   /* Reference density ( kg/m^3 ) */
(PID.TID 0000.0001)                 1.000000000000000E+00
(PID.TID 0000.0001)     ;
(PID.TID 0000.0001) gravity =   /* Gravitational acceleration ( m/s^2 ) */
(PID.TID 0000.0001)                 9.810000000000000E+00
(PID.TID 0000.0001)     ;
(PID.TID 0000.0001) gBaro =   /* Barotropic gravity ( m/s^2 ) */
(PID.TID 0000.0001)                 9.810000000000000E+00
(PID.TID 0000.0001)     ;
(PID.TID 0000.0001) rotationPeriod =   /* Rotation Period ( s ) */
(PID.TID 0000.0001)                 8.640000000000000E+04
(PID.TID 0000.0001)     ;
(PID.TID 0000.0001) omega =   /* Angular velocity ( rad/s ) */
(PID.TID 0000.0001)                 7.272205216643040E-05
(PID.TID 0000.0001)     ;
(PID.TID 0000.0001) f0 =   /* Reference coriolis parameter ( 1/s ) */
(PID.TID 0000.0001)                 1.000000000000000E-04
(PID.TID 0000.0001)     ;
(PID.TID 0000.0001) beta =   /* Beta ( 1/(m.s) ) */
(PID.TID 0000.0001)                 9.999999999999999E-12
(PID.TID 0000.0001)     ;
(PID.TID 0000.0001) freeSurfFac =   /* Implicit free surface factor */
(PID.TID 0000.0001)                 1.000000000000000E+00
(PID.TID 0000.0001)     ;
(PID.TID 0000.0001) implicitFreeSurface =   /* Implicit free surface on/off flag */
(PID.TID 0000.0001)                   T
(PID.TID 0000.0001)     ;
(PID.TID 0000.0001) rigidLid =   /* Rigid lid on/off flag */
(PID.TID 0000.0001)                   F
(PID.TID 0000.0001)     ;
(PID.TID 0000.0001) implicSurfPress =   /* Surface Pressure implicit factor (0-1)*/
(PID.TID 0000.0001)                 1.000000000000000E+00
(PID.TID 0000.0001)     ;
(PID.TID 0000.0001) implicDiv2Dflow =   /* Barot. Flow Div. implicit factor (0-1)*/
(PID.TID 0000.0001)                 1.000000000000000E+00
(PID.TID 0000.0001)     ;
(PID.TID 0000.0001) exactConserv =   /* Exact Volume Conservation on/off flag*/
(PID.TID 0000.0001)                   F
(PID.TID 0000.0001)     ;
(PID.TID 0000.0001) linFSConserveTr =   /* Tracer correction for Lin Free Surface on/off flag*/
(PID.TID 0000.0001)                   F
(PID.TID 0000.0001)     ;
(PID.TID 0000.0001) uniformLin_PhiSurf =   /* use uniform Bo_surf on/off flag*/
(PID.TID 0000.0001)                   T
(PID.TID 0000.0001)     ;
(PID.TID 0000.0001) nonlinFreeSurf =   /* Non-linear Free Surf. options (-1,0,1,2,3)*/
(PID.TID 0000.0001)                       0
(PID.TID 0000.0001)     ;
(PID.TID 0000.0001)      -1,0= Off ; 1,2,3= On, 2=+rescale gU,gV, 3=+update cg2d solv.
(PID.TID 0000.0001) hFacInf =   /* lower threshold for hFac (nonlinFreeSurf only)*/
(PID.TID 0000.0001)                 2.000000000000000E-01
(PID.TID 0000.0001)     ;
(PID.TID 0000.0001) hFacSup =   /* upper threshold for hFac (nonlinFreeSurf only)*/
(PID.TID 0000.0001)                 2.000000000000000E+00
(PID.TID 0000.0001)     ;
(PID.TID 0000.0001) select_rStar =   /* r* Coordinate options (not yet implemented)*/
(PID.TID 0000.0001)                       0
(PID.TID 0000.0001)     ;
(PID.TID 0000.0001) useRealFreshWaterFlux =   /* Real Fresh Water Flux on/off flag*/
(PID.TID 0000.0001)                   F
(PID.TID 0000.0001)     ;
(PID.TID 0000.0001) convertFW2Salt = /* convert F.W. Flux to Salt Flux (-1=use local S)(ppt)*/
(PID.TID 0000.0001)                 3.500000000000000E+01
(PID.TID 0000.0001)     ;
(PID.TID 0000.0001) use3Dsolver = /* use 3-D pressure solver on/off flag */
(PID.TID 0000.0001)                   F
(PID.TID 0000.0001)     ;
(PID.TID 0000.0001) nonHydrostatic =  /* Non-Hydrostatic on/off flag */
(PID.TID 0000.0001)                   F
(PID.TID 0000.0001)     ;
(PID.TID 0000.0001) nh_Am2 = /* Non-Hydrostatic terms scaling factor */
(PID.TID 0000.0001)                 1.000000000000000E+00
(PID.TID 0000.0001)     ;
(PID.TID 0000.0001) quasiHydrostatic = /* Quasi-Hydrostatic on/off flag */
(PID.TID 0000.0001)                   F
(PID.TID 0000.0001)     ;
(PID.TID 0000.0001) momStepping =  /* Momentum equation on/off flag */
(PID.TID 0000.0001)                   T
(PID.TID 0000.0001)     ;
(PID.TID 0000.0001) vectorInvariantMomentum= /* Vector-Invariant Momentum on/off */
(PID.TID 0000.0001)                   F
(PID.TID 0000.0001)     ;
(PID.TID 0000.0001) momAdvection =  /* Momentum advection on/off flag */
(PID.TID 0000.0001)                   T
(PID.TID 0000.0001)     ;
(PID.TID 0000.0001) momViscosity =  /* Momentum viscosity on/off flag */
(PID.TID 0000.0001)                   T
(PID.TID 0000.0001)     ;
(PID.TID 0000.0001) momImplVertAdv =/* Momentum implicit vert. advection on/off*/
(PID.TID 0000.0001)                   F
(PID.TID 0000.0001)     ;
(PID.TID 0000.0001) implicitViscosity = /* Implicit viscosity on/off flag */
(PID.TID 0000.0001)                   F
(PID.TID 0000.0001)     ;
(PID.TID 0000.0001) metricTerms =  /* metric-Terms on/off flag */
(PID.TID 0000.0001)                   T
(PID.TID 0000.0001)     ;
(PID.TID 0000.0001) useNHMTerms = /* Non-Hydrostatic Metric-Terms on/off */
(PID.TID 0000.0001)                   F
(PID.TID 0000.0001)     ;
(PID.TID 0000.0001) useConstantF =  /* use Constant f0 Coriolis flag */
(PID.TID 0000.0001)                   F
(PID.TID 0000.0001)     ;
(PID.TID 0000.0001) useBetaPlaneF = /* use Beta-Plane Coriolis flag */
(PID.TID 0000.0001)                   F
(PID.TID 0000.0001)     ;
(PID.TID 0000.0001) useSphereF  =   /* use Spherical Coriolis flag */
(PID.TID 0000.0001)                   T
(PID.TID 0000.0001)     ;
(PID.TID 0000.0001) use3dCoriolis = /* 3-D Coriolis on/off flag */
(PID.TID 0000.0001)                   F
(PID.TID 0000.0001)     ;
(PID.TID 0000.0001) useCoriolis =  /* Coriolis on/off flag */
(PID.TID 0000.0001)                   T
(PID.TID 0000.0001)     ;
(PID.TID 0000.0001) useCDscheme =  /* CD scheme on/off flag */
(PID.TID 0000.0001)                   F
(PID.TID 0000.0001)     ;
(PID.TID 0000.0001) useJamartWetPoints= /* Coriolis WetPoints method flag */
(PID.TID 0000.0001)                   F
(PID.TID 0000.0001)     ;
(PID.TID 0000.0001) useJamartMomAdv= /* V.I. Non-linear terms Jamart flag */
(PID.TID 0000.0001)                   F
(PID.TID 0000.0001)     ;
(PID.TID 0000.0001) SadournyCoriolis= /* Sadourny Coriolis discr. flag */
(PID.TID 0000.0001)                   F
(PID.TID 0000.0001)     ;
(PID.TID 0000.0001) upwindVorticity= /* Upwind bias vorticity flag */
(PID.TID 0000.0001)                   F
(PID.TID 0000.0001)     ;
(PID.TID 0000.0001) useAbsVorticity= /* Work with f+zeta in Coriolis */
(PID.TID 0000.0001)                   F
(PID.TID 0000.0001)     ;
(PID.TID 0000.0001) highOrderVorticity= /* High order interp. of vort. flag */
(PID.TID 0000.0001)                   F
(PID.TID 0000.0001)     ;
(PID.TID 0000.0001) upwindShear= /* Upwind vertical Shear advection flag */
(PID.TID 0000.0001)                   F
(PID.TID 0000.0001)     ;
(PID.TID 0000.0001) selectKEscheme= /* Kinetic Energy scheme selector */
(PID.TID 0000.0001)                       0
(PID.TID 0000.0001)     ;
(PID.TID 0000.0001) momForcing =  /* Momentum forcing on/off flag */
(PID.TID 0000.0001)                   T
(PID.TID 0000.0001)     ;
(PID.TID 0000.0001) momPressureForcing =  /* Momentum pressure term on/off flag */
(PID.TID 0000.0001)                   T
(PID.TID 0000.0001)     ;
(PID.TID 0000.0001) implicitIntGravWave= /* Implicit Internal Gravity Wave flag */
(PID.TID 0000.0001)                   F
(PID.TID 0000.0001)     ;
(PID.TID 0000.0001) staggerTimeStep =   /* Stagger time stepping on/off flag */
(PID.TID 0000.0001)                   T
(PID.TID 0000.0001)     ;
(PID.TID 0000.0001) multiDimAdvection =   /* enable/disable Multi-Dim Advection */
(PID.TID 0000.0001)                   T
(PID.TID 0000.0001)     ;
(PID.TID 0000.0001) useMultiDimAdvec =   /* Multi-Dim Advection is/is-not used */
(PID.TID 0000.0001)                   F
(PID.TID 0000.0001)     ;
(PID.TID 0000.0001) implicitDiffusion =/* Implicit Diffusion on/off flag */
(PID.TID 0000.0001)                   F
(PID.TID 0000.0001)     ;
(PID.TID 0000.0001) tempStepping =  /* Temperature equation on/off flag */
(PID.TID 0000.0001)                   T
(PID.TID 0000.0001)     ;
(PID.TID 0000.0001) tempAdvection=  /* Temperature advection on/off flag */
(PID.TID 0000.0001)                   T
(PID.TID 0000.0001)     ;
(PID.TID 0000.0001) tempImplVertAdv =/* Temp. implicit vert. advection on/off */
(PID.TID 0000.0001)                   F
(PID.TID 0000.0001)     ;
(PID.TID 0000.0001) tempForcing  =  /* Temperature forcing on/off flag */
(PID.TID 0000.0001)                   T
(PID.TID 0000.0001)     ;
(PID.TID 0000.0001) saltStepping =  /* Salinity equation on/off flag */
(PID.TID 0000.0001)                   T
(PID.TID 0000.0001)     ;
(PID.TID 0000.0001) saltAdvection=  /* Salinity advection on/off flag */
(PID.TID 0000.0001)                   T
(PID.TID 0000.0001)     ;
(PID.TID 0000.0001) saltImplVertAdv =/* Sali. implicit vert. advection on/off */
(PID.TID 0000.0001)                   F
(PID.TID 0000.0001)     ;
(PID.TID 0000.0001) saltForcing  =  /* Salinity forcing on/off flag */
(PID.TID 0000.0001)                   T
(PID.TID 0000.0001)     ;
(PID.TID 0000.0001)  readBinaryPrec = /* Precision used for reading binary files */
(PID.TID 0000.0001)                      64
(PID.TID 0000.0001)     ;
(PID.TID 0000.0001) writeBinaryPrec = /* Precision used for writing binary files */
(PID.TID 0000.0001)                      64
(PID.TID 0000.0001)     ;
(PID.TID 0000.0001)  globalFiles = /* write "global" (=not per tile) files */
(PID.TID 0000.0001)                   F
(PID.TID 0000.0001)     ;
(PID.TID 0000.0001)  useSingleCpuIO = /* only master MPI process does I/O */
(PID.TID 0000.0001)                   F
(PID.TID 0000.0001)     ;
(PID.TID 0000.0001)  debugMode  =  /* Debug Mode on/off flag */
(PID.TID 0000.0001)                   F
(PID.TID 0000.0001)     ;
(PID.TID 0000.0001)    debLevA  =  /* 1rst level of debugging */
(PID.TID 0000.0001)                       1
(PID.TID 0000.0001)     ;
(PID.TID 0000.0001)    debLevB  =  /* 2nd  level of debugging */
(PID.TID 0000.0001)                       2
(PID.TID 0000.0001)     ;
(PID.TID 0000.0001)  debugLevel =  /* select debugging level */
(PID.TID 0000.0001)                       1
(PID.TID 0000.0001)     ;
(PID.TID 0000.0001) //
(PID.TID 0000.0001) // Elliptic solver(s) paramters ( PARM02 in namelist )
(PID.TID 0000.0001) //
(PID.TID 0000.0001) cg2dMaxIters =   /* Upper limit on 2d con. grad iterations  */
(PID.TID 0000.0001)                     600
(PID.TID 0000.0001)     ;
(PID.TID 0000.0001) cg2dChkResFreq =   /* 2d con. grad convergence test frequency */
(PID.TID 0000.0001)                       1
(PID.TID 0000.0001)     ;
(PID.TID 0000.0001) cg2dTargetResidual =   /* 2d con. grad target residual  */
(PID.TID 0000.0001)                 1.000000000000000E-13
(PID.TID 0000.0001)     ;
(PID.TID 0000.0001) cg2dTargetResWunit =   /* CG2d target residual [W units] */
(PID.TID 0000.0001)                -1.000000000000000E+00
(PID.TID 0000.0001)     ;
(PID.TID 0000.0001) cg2dPreCondFreq =   /* Freq. for updating cg2d preconditioner */
(PID.TID 0000.0001)                       1
(PID.TID 0000.0001)     ;
(PID.TID 0000.0001) //
(PID.TID 0000.0001) // Time stepping paramters ( PARM03 in namelist )
(PID.TID 0000.0001) //
(PID.TID 0000.0001) nIter0 =   /* Run starting timestep number  */
(PID.TID 0000.0001)                       0
(PID.TID 0000.0001)     ;
(PID.TID 0000.0001) nTimeSteps =   /* Number of timesteps */
(PID.TID 0000.0001)                      10
(PID.TID 0000.0001)     ;
(PID.TID 0000.0001) deltaTmom =   /* Momentum equation timestep ( s ) */
(PID.TID 0000.0001)                 1.200000000000000E+03
(PID.TID 0000.0001)     ;
(PID.TID 0000.0001) deltaTfreesurf =   /* FreeSurface equation timestep ( s ) */
(PID.TID 0000.0001)                 1.200000000000000E+03
(PID.TID 0000.0001)     ;
(PID.TID 0000.0001) dTtracerLev =   /* Tracer equation timestep ( s ) */
(PID.TID 0000.0001)     5 @  1.200000000000000E+03              /* K =  1:  5 */
(PID.TID 0000.0001)     ;
(PID.TID 0000.0001) deltaTClock  =   /* Model clock timestep ( s ) */
(PID.TID 0000.0001)                 1.200000000000000E+03
(PID.TID 0000.0001)     ;
(PID.TID 0000.0001) cAdjFreq =   /* Convective adjustment interval ( s ) */
(PID.TID 0000.0001)                 0.000000000000000E+00
(PID.TID 0000.0001)     ;
(PID.TID 0000.0001) momForcingOutAB = /* =1: take Momentum Forcing out of Adams-Bash. stepping */
(PID.TID 0000.0001)                       0
(PID.TID 0000.0001)     ;
(PID.TID 0000.0001) tracForcingOutAB = /* =1: take T,S,pTr Forcing out of Adams-Bash. stepping */
(PID.TID 0000.0001)                       0
(PID.TID 0000.0001)     ;
(PID.TID 0000.0001) momDissip_In_AB = /* put Dissipation Tendency in Adams-Bash. stepping */
(PID.TID 0000.0001)                   T
(PID.TID 0000.0001)     ;
(PID.TID 0000.0001) doAB_onGtGs = /* apply AB on Tendencies (rather than on T,S)*/
(PID.TID 0000.0001)                   T
(PID.TID 0000.0001)     ;
(PID.TID 0000.0001) abEps =   /* Adams-Bashforth-2 stabilizing weight */
(PID.TID 0000.0001)                 1.000000000000000E-01
(PID.TID 0000.0001)     ;
(PID.TID 0000.0001) baseTime =   /* Model base time ( s ). */
(PID.TID 0000.0001)                 0.000000000000000E+00
(PID.TID 0000.0001)     ;
(PID.TID 0000.0001) startTime =   /* Run start time ( s ). */
(PID.TID 0000.0001)                 0.000000000000000E+00
(PID.TID 0000.0001)     ;
(PID.TID 0000.0001) endTime =   /* Integration ending time ( s ). */
(PID.TID 0000.0001)                 1.200000000000000E+04
(PID.TID 0000.0001)     ;
(PID.TID 0000.0001) pChkPtFreq =   /* Permanent restart/checkpoint file interval ( s ). */
(PID.TID 0000.0001)                 0.000000000000000E+00
(PID.TID 0000.0001)     ;
(PID.TID 0000.0001) chkPtFreq =   /* Rolling restart/checkpoint file interval ( s ). */
(PID.TID 0000.0001)                 0.000000000000000E+00
(PID.TID 0000.0001)     ;
(PID.TID 0000.0001) pickup_write_mdsio =   /* Model IO flag. */
(PID.TID 0000.0001)                   T
(PID.TID 0000.0001)     ;
(PID.TID 0000.0001) pickup_read_mdsio =   /* Model IO flag. */
(PID.TID 0000.0001)                   T
(PID.TID 0000.0001)     ;
(PID.TID 0000.0001) pickup_write_immed =   /* Model IO flag. */
(PID.TID 0000.0001)                   F
(PID.TID 0000.0001)     ;
(PID.TID 0000.0001) dumpFreq =   /* Model state write out interval ( s ). */
(PID.TID 0000.0001)                 2.592000000000000E+06
(PID.TID 0000.0001)     ;
(PID.TID 0000.0001) dumpInitAndLast= /* write out Initial & Last iter. model state */
(PID.TID 0000.0001)                   T
(PID.TID 0000.0001)     ;
(PID.TID 0000.0001) snapshot_mdsio =   /* Model IO flag. */
(PID.TID 0000.0001)                   T
(PID.TID 0000.0001)     ;
(PID.TID 0000.0001) monitorFreq =   /* Monitor output interval ( s ). */
(PID.TID 0000.0001)                 1.000000000000000E+00
(PID.TID 0000.0001)     ;
(PID.TID 0000.0001) monitor_stdio =   /* Model IO flag. */
(PID.TID 0000.0001)                   T
(PID.TID 0000.0001)     ;
(PID.TID 0000.0001) externForcingPeriod =   /* forcing period (s) */
(PID.TID 0000.0001)                 0.000000000000000E+00
(PID.TID 0000.0001)     ;
(PID.TID 0000.0001) externForcingCycle =   /* period of the cyle (s). */
(PID.TID 0000.0001)                 0.000000000000000E+00
(PID.TID 0000.0001)     ;
(PID.TID 0000.0001) tauThetaClimRelax =   /* relaxation time scale (s) */
(PID.TID 0000.0001)                 0.000000000000000E+00
(PID.TID 0000.0001)     ;
(PID.TID 0000.0001) tauSaltClimRelax =   /* relaxation time scale (s) */
(PID.TID 0000.0001)                 0.000000000000000E+00
(PID.TID 0000.0001)     ;
(PID.TID 0000.0001) latBandClimRelax =   /* max. Lat. where relaxation */
(PID.TID 0000.0001)                 1.800000000000000E+02
(PID.TID 0000.0001)     ;
(PID.TID 0000.0001) //
(PID.TID 0000.0001) // Gridding paramters ( PARM04 in namelist )
(PID.TID 0000.0001) //
(PID.TID 0000.0001) usingCartesianGrid = /* Cartesian coordinates flag ( True/False ) */
(PID.TID 0000.0001)                   F
(PID.TID 0000.0001)     ;
(PID.TID 0000.0001) usingCylindricalGrid = /* Cylindrical coordinates flag ( True/False ) */
(PID.TID 0000.0001)                   F
(PID.TID 0000.0001)     ;
(PID.TID 0000.0001) usingSphericalPolarGrid = /* Spherical coordinates flag ( True/False ) */
(PID.TID 0000.0001)                   T
(PID.TID 0000.0001)     ;
(PID.TID 0000.0001) usingCurvilinearGrid = /* Curvilinear coordinates flag ( True/False ) */
(PID.TID 0000.0001)                   F
(PID.TID 0000.0001)     ;
(PID.TID 0000.0001) Ro_SeaLevel = /* r(1) ( units of r ) */
(PID.TID 0000.0001)                 1.000000000000000E+05
(PID.TID 0000.0001)     ;
(PID.TID 0000.0001) rkSign =   /* index orientation relative to vertical coordinate */
(PID.TID 0000.0001)                -1.000000000000000E+00
(PID.TID 0000.0001)     ;
(PID.TID 0000.0001) gravitySign = /* gravity orientation relative to vertical coordinate */
(PID.TID 0000.0001)                 1.000000000000000E+00
(PID.TID 0000.0001)     ;
(PID.TID 0000.0001) mass2rUnit = /* convert mass per unit area [kg/m2] to r-units [Pa] */
(PID.TID 0000.0001)                 9.810000000000000E+00
(PID.TID 0000.0001)     ;
(PID.TID 0000.0001) rUnit2mass = /* convert r-units [Pa] to mass per unit area [kg/m2] */
(PID.TID 0000.0001)                 1.019367991845056E-01
(PID.TID 0000.0001)     ;
(PID.TID 0000.0001) drC =   /* C spacing ( units of r ) */
(PID.TID 0000.0001)                 5.000000000000000E+03,      /* K =  1 */
(PID.TID 0000.0001)                 1.750000000000000E+04,      /* K =  2 */
(PID.TID 0000.0001)                 2.750000000000000E+04,      /* K =  3 */
(PID.TID 0000.0001)                 2.500000000000000E+04,      /* K =  4 */
(PID.TID 0000.0001)                 1.750000000000000E+04       /* K =  5 */
(PID.TID 0000.0001)     ;
(PID.TID 0000.0001) drF =   /* W spacing ( units of r ) */
(PID.TID 0000.0001)                 1.000000000000000E+04,      /* K =  1 */
(PID.TID 0000.0001)                 2.500000000000000E+04,      /* K =  2 */
(PID.TID 0000.0001)                 3.000000000000000E+04,      /* K =  3 */
(PID.TID 0000.0001)                 2.000000000000000E+04,      /* K =  4 */
(PID.TID 0000.0001)                 1.500000000000000E+04       /* K =  5 */
(PID.TID 0000.0001)     ;
(PID.TID 0000.0001) delX =   /* U spacing ( m - cartesian, degrees - spherical ) */
(PID.TID 0000.0001)                 2.812500000000000E+00,      /* I =  1 */
(PID.TID 0000.0001)                 1.234567000000000E+05       /* I =  2 */
(PID.TID 0000.0001)     ;
(PID.TID 0000.0001) delY =   /* V spacing ( m - cartesian, degrees - spherical ) */
(PID.TID 0000.0001)    64 @  2.812500000000000E+00              /* J =  1: 64 */
(PID.TID 0000.0001)     ;
(PID.TID 0000.0001) phiMin =    /* South edge (ignored - cartesian, degrees - spherical ) */
(PID.TID 0000.0001)                -9.000000000000000E+01
(PID.TID 0000.0001)     ;
(PID.TID 0000.0001) thetaMin =    /* West edge ( ignored - cartesian, degrees - spherical ) */
(PID.TID 0000.0001)                 0.000000000000000E+00
(PID.TID 0000.0001)     ;
(PID.TID 0000.0001) rSphere =  /* Radius ( ignored - cartesian, m - spherical ) */
(PID.TID 0000.0001)                 6.370000000000000E+06
(PID.TID 0000.0001)     ;
(PID.TID 0000.0001) deepAtmosphere = /* Deep/Shallow Atmosphere flag (True/False) */
(PID.TID 0000.0001)                   F
(PID.TID 0000.0001)     ;
(PID.TID 0000.0001) xcoord =   /* P-point X coord ( m - cartesian, degrees - spherical ) */
(PID.TID 0000.0001)                 1.406250000000000E+00,      /* I =  1 */
(PID.TID 0000.0001)                 6.173116250000000E+04       /* I =  2 */
(PID.TID 0000.0001)     ;
(PID.TID 0000.0001) ycoord =   /* P-point Y coord ( m - cartesian, degrees - spherical ) */
(PID.TID 0000.0001)                -8.859375000000000E+01,      /* J =  1 */
(PID.TID 0000.0001)                -8.578125000000000E+01,      /* J =  2 */
(PID.TID 0000.0001)                -8.296875000000000E+01,      /* J =  3 */
(PID.TID 0000.0001)                -8.015625000000000E+01,      /* J =  4 */
(PID.TID 0000.0001)                -7.734375000000000E+01,      /* J =  5 */
(PID.TID 0000.0001)                -7.453125000000000E+01,      /* J =  6 */
(PID.TID 0000.0001)                -7.171875000000000E+01,      /* J =  7 */
(PID.TID 0000.0001)                -6.890625000000000E+01,      /* J =  8 */
(PID.TID 0000.0001)                -6.609375000000000E+01,      /* J =  9 */
(PID.TID 0000.0001)                -6.328125000000000E+01,      /* J = 10 */
(PID.TID 0000.0001)                -6.046875000000000E+01,      /* J = 11 */
(PID.TID 0000.0001)                -5.765625000000000E+01,      /* J = 12 */
(PID.TID 0000.0001)                -5.484375000000000E+01,      /* J = 13 */
(PID.TID 0000.0001)                -5.203125000000000E+01,      /* J = 14 */
(PID.TID 0000.0001)                -4.921875000000000E+01,      /* J = 15 */
(PID.TID 0000.0001)                -4.640625000000000E+01,      /* J = 16 */
(PID.TID 0000.0001)                -4.359375000000000E+01,      /* J = 17 */
(PID.TID 0000.0001)                -4.078125000000000E+01,      /* J = 18 */
(PID.TID 0000.0001)                -3.796875000000000E+01,      /* J = 19 */
(PID.TID 0000.0001)                -3.515625000000000E+01,      /* J = 20 */
(PID.TID 0000.0001)                -3.234375000000000E+01,      /* J = 21 */
(PID.TID 0000.0001)                -2.953125000000000E+01,      /* J = 22 */
(PID.TID 0000.0001)                -2.671875000000000E+01,      /* J = 23 */
(PID.TID 0000.0001)                -2.390625000000000E+01,      /* J = 24 */
(PID.TID 0000.0001)                -2.109375000000000E+01,      /* J = 25 */
(PID.TID 0000.0001)                -1.828125000000000E+01,      /* J = 26 */
(PID.TID 0000.0001)                -1.546875000000000E+01,      /* J = 27 */
(PID.TID 0000.0001)                -1.265625000000000E+01,      /* J = 28 */
(PID.TID 0000.0001)                -9.843750000000000E+00,      /* J = 29 */
(PID.TID 0000.0001)                -7.031250000000000E+00,      /* J = 30 */
(PID.TID 0000.0001)                -4.218750000000000E+00,      /* J = 31 */
(PID.TID 0000.0001)                -1.406250000000000E+00,      /* J = 32 */
(PID.TID 0000.0001)                 1.406250000000000E+00,      /* J = 33 */
(PID.TID 0000.0001)                 4.218750000000000E+00,      /* J = 34 */
(PID.TID 0000.0001)                 7.031250000000000E+00,      /* J = 35 */
(PID.TID 0000.0001)                 9.843750000000000E+00,      /* J = 36 */
(PID.TID 0000.0001)                 1.265625000000000E+01,      /* J = 37 */
(PID.TID 0000.0001)                 1.546875000000000E+01,      /* J = 38 */
(PID.TID 0000.0001)                 1.828125000000000E+01,      /* J = 39 */
(PID.TID 0000.0001)                 2.109375000000000E+01,      /* J = 40 */
(PID.TID 0000.0001)                 2.390625000000000E+01,      /* J = 41 */
(PID.TID 0000.0001)                 2.671875000000000E+01,      /* J = 42 */
(PID.TID 0000.0001)                 2.953125000000000E+01,      /* J = 43 */
(PID.TID 0000.0001)                 3.234375000000000E+01,      /* J = 44 */
(PID.TID 0000.0001)                 3.515625000000000E+01,      /* J = 45 */
(PID.TID 0000.0001)                 3.796875000000000E+01,      /* J = 46 */
(PID.TID 0000.0001)                 4.078125000000000E+01,      /* J = 47 */
(PID.TID 0000.0001)                 4.359375000000000E+01,      /* J = 48 */
(PID.TID 0000.0001)                 4.640625000000000E+01,      /* J = 49 */
(PID.TID 0000.0001)                 4.921875000000000E+01,      /* J = 50 */
(PID.TID 0000.0001)                 5.203125000000000E+01,      /* J = 51 */
(PID.TID 0000.0001)                 5.484375000000000E+01,      /* J = 52 */
(PID.TID 0000.0001)                 5.765625000000000E+01,      /* J = 53 */
(PID.TID 0000.0001)                 6.046875000000000E+01,      /* J = 54 */
(PID.TID 0000.0001)                 6.328125000000000E+01,      /* J = 55 */
(PID.TID 0000.0001)                 6.609375000000000E+01,      /* J = 56 */
(PID.TID 0000.0001)                 6.890625000000000E+01,      /* J = 57 */
(PID.TID 0000.0001)                 7.171875000000000E+01,      /* J = 58 */
(PID.TID 0000.0001)                 7.453125000000000E+01,      /* J = 59 */
(PID.TID 0000.0001)                 7.734375000000000E+01,      /* J = 60 */
(PID.TID 0000.0001)                 8.015625000000000E+01,      /* J = 61 */
(PID.TID 0000.0001)                 8.296875000000000E+01,      /* J = 62 */
(PID.TID 0000.0001)                 8.578125000000000E+01,      /* J = 63 */
(PID.TID 0000.0001)                 8.859375000000000E+01       /* J = 64 */
(PID.TID 0000.0001)     ;
(PID.TID 0000.0001) rcoord =   /* P-point R coordinate (  units of r ) */
(PID.TID 0000.0001)                 9.500000000000000E+04,      /* K =  1 */
(PID.TID 0000.0001)                 7.750000000000000E+04,      /* K =  2 */
(PID.TID 0000.0001)                 5.000000000000000E+04,      /* K =  3 */
(PID.TID 0000.0001)                 2.500000000000000E+04,      /* K =  4 */
(PID.TID 0000.0001)                 7.500000000000000E+03       /* K =  5 */
(PID.TID 0000.0001)     ;
(PID.TID 0000.0001) rF =   /* W-Interf. R coordinate (  units of r ) */
(PID.TID 0000.0001)                 1.000000000000000E+05,      /* K =  1 */
(PID.TID 0000.0001)                 9.000000000000000E+04,      /* K =  2 */
(PID.TID 0000.0001)                 6.500000000000000E+04,      /* K =  3 */
(PID.TID 0000.0001)                 3.500000000000000E+04,      /* K =  4 */
(PID.TID 0000.0001)                 1.500000000000000E+04,      /* K =  5 */
(PID.TID 0000.0001)                 0.000000000000000E+00       /* K =  6 */
(PID.TID 0000.0001)     ;
(PID.TID 0000.0001) deepFacC = /* deep-model grid factor @ cell-Center (-) */
(PID.TID 0000.0001)     5 @  1.000000000000000E+00              /* K =  1:  5 */
(PID.TID 0000.0001)     ;
(PID.TID 0000.0001) deepFacF = /* deep-model grid factor @ W-Interface (-) */
(PID.TID 0000.0001)     6 @  1.000000000000000E+00              /* K =  1:  6 */
(PID.TID 0000.0001)     ;
(PID.TID 0000.0001) rVel2wUnit = /* convert units: rVel -> wSpeed (=1 if z-coord)*/
(PID.TID 0000.0001)     6 @  1.000000000000000E+00              /* K =  1:  6 */
(PID.TID 0000.0001)     ;
(PID.TID 0000.0001) wUnit2rVel = /* convert units: wSpeed -> rVel (=1 if z-coord)*/
(PID.TID 0000.0001)     6 @  1.000000000000000E+00              /* K =  1:  6 */
(PID.TID 0000.0001)     ;
(PID.TID 0000.0001) dBdrRef = /* Vertical gradient of reference boyancy [(m/s/r)^2)] */
(PID.TID 0000.0001)     5 @  0.000000000000000E+00              /* K =  1:  5 */
(PID.TID 0000.0001)     ;
(PID.TID 0000.0001) dxF =  /* dxF(:,1,:,1) ( units: m ) */
(PID.TID 0000.0001)                 7.673714381622299E+03,      /* I =  1 */
(PID.TID 0000.0001)                 3.368431837502683E+08       /* I =  2 */
(PID.TID 0000.0001)     ;
(PID.TID 0000.0001) dxF =  /* dxF(1,:,1,:) ( units: m ) */
(PID.TID 0000.0001)                 7.673714381622299E+03,      /* J =  1 */
(PID.TID 0000.0001)                 2.300265649478360E+04,      /* J =  2 */
(PID.TID 0000.0001)                 3.827618319365421E+04,      /* J =  3 */
(PID.TID 0000.0001)                 5.345749921461356E+04,      /* J =  4 */
(PID.TID 0000.0001)                 6.851003143764105E+04,      /* J =  5 */
(PID.TID 0000.0001)                 8.339751699416524E+04,      /* J =  6 */
(PID.TID 0000.0001)                 9.808409062749070E+04,      /* J =  7 */
(PID.TID 0000.0001)                 1.125343710953429E+05,      /* J =  8 */
(PID.TID 0000.0001)                 1.267135464063795E+05,      /* J =  9 */
(PID.TID 0000.0001)                 1.405874576853274E+05,      /* J = 10 */
(PID.TID 0000.0001)                 1.541226814647045E+05,      /* J = 11 */
(PID.TID 0000.0001)                 1.672866102048804E+05,      /* J = 12 */
(PID.TID 0000.0001)                 1.800475308484964E+05,      /* J = 13 */
(PID.TID 0000.0001)                 1.923747012199971E+05,      /* J = 14 */
(PID.TID 0000.0001)                 2.042384240862251E+05,      /* J = 15 */
(PID.TID 0000.0001)                 2.156101186996563E+05,      /* J = 16 */
(PID.TID 0000.0001)                 2.264623896519241E+05,      /* J = 17 */
(PID.TID 0000.0001)                 2.367690928717577E+05,      /* J = 18 */
(PID.TID 0000.0001)                 2.465053986083400E+05,      /* J = 19 */
(PID.TID 0000.0001)                 2.556478512483520E+05,      /* J = 20 */
(PID.TID 0000.0001)                 2.641744258225996E+05,      /* J = 21 */
(PID.TID 0000.0001)                 2.720645810660936E+05,      /* J = 22 */
(PID.TID 0000.0001)                 2.792993089037565E+05,      /* J = 23 */
(PID.TID 0000.0001)                 2.858611802425402E+05,      /* J = 24 */
(PID.TID 0000.0001)                 2.917343869596373E+05,      /* J = 25 */
(PID.TID 0000.0001)                 2.969047799856344E+05,      /* J = 26 */
(PID.TID 0000.0001)                 3.013599033908587E+05,      /* J = 27 */
(PID.TID 0000.0001)                 3.050890243928043E+05,      /* J = 28 */
(PID.TID 0000.0001)                 3.080831592123453E+05,      /* J = 29 */
(PID.TID 0000.0001)                 3.103350947164461E+05,      /* J = 30 */
(PID.TID 0000.0001)                 3.118394057952309E+05,      /* J = 31 */
(PID.TID 0000.0001)     2 @  3.125924684315491E+05,             /* J = 32: 33 */
(PID.TID 0000.0001)                 3.118394057952309E+05,      /* J = 34 */
(PID.TID 0000.0001)                 3.103350947164461E+05,      /* J = 35 */
(PID.TID 0000.0001)                 3.080831592123453E+05,      /* J = 36 */
(PID.TID 0000.0001)                 3.050890243928043E+05,      /* J = 37 */
(PID.TID 0000.0001)                 3.013599033908587E+05,      /* J = 38 */
(PID.TID 0000.0001)                 2.969047799856344E+05,      /* J = 39 */
(PID.TID 0000.0001)                 2.917343869596373E+05,      /* J = 40 */
(PID.TID 0000.0001)                 2.858611802425402E+05,      /* J = 41 */
(PID.TID 0000.0001)                 2.792993089037565E+05,      /* J = 42 */
(PID.TID 0000.0001)                 2.720645810660936E+05,      /* J = 43 */
(PID.TID 0000.0001)                 2.641744258225996E+05,      /* J = 44 */
(PID.TID 0000.0001)                 2.556478512483520E+05,      /* J = 45 */
(PID.TID 0000.0001)                 2.465053986083400E+05,      /* J = 46 */
(PID.TID 0000.0001)                 2.367690928717577E+05,      /* J = 47 */
(PID.TID 0000.0001)                 2.264623896519241E+05,      /* J = 48 */
(PID.TID 0000.0001)                 2.156101186996563E+05,      /* J = 49 */
(PID.TID 0000.0001)                 2.042384240862251E+05,      /* J = 50 */
(PID.TID 0000.0001)                 1.923747012199971E+05,      /* J = 51 */
(PID.TID 0000.0001)                 1.800475308484964E+05,      /* J = 52 */
(PID.TID 0000.0001)                 1.672866102048804E+05,      /* J = 53 */
(PID.TID 0000.0001)                 1.541226814647045E+05,      /* J = 54 */
(PID.TID 0000.0001)                 1.405874576853274E+05,      /* J = 55 */
(PID.TID 0000.0001)                 1.267135464063795E+05,      /* J = 56 */
(PID.TID 0000.0001)                 1.125343710953429E+05,      /* J = 57 */
(PID.TID 0000.0001)                 9.808409062749070E+04,      /* J = 58 */
(PID.TID 0000.0001)                 8.339751699416524E+04,      /* J = 59 */
(PID.TID 0000.0001)                 6.851003143764105E+04,      /* J = 60 */
(PID.TID 0000.0001)                 5.345749921461356E+04,      /* J = 61 */
(PID.TID 0000.0001)                 3.827618319365421E+04,      /* J = 62 */
(PID.TID 0000.0001)                 2.300265649478360E+04,      /* J = 63 */
(PID.TID 0000.0001)                 7.673714381622299E+03       /* J = 64 */
(PID.TID 0000.0001)     ;
(PID.TID 0000.0001) dyF =  /* dyF(:,1,:,1) ( units: m ) */
(PID.TID 0000.0001)     2 @  3.126866438026091E+05              /* I =  1:  2 */
(PID.TID 0000.0001)     ;
(PID.TID 0000.0001) dyF =  /* dyF(1,:,1,:) ( units: m ) */
(PID.TID 0000.0001)    64 @  3.126866438026091E+05              /* J =  1: 64 */
(PID.TID 0000.0001)     ;
(PID.TID 0000.0001) dxG =  /* dxG(:,1,:,1) ( units: m ) */
(PID.TID 0000.0001)     2 @  0.000000000000000E+00              /* I =  1:  2 */
(PID.TID 0000.0001)     ;
(PID.TID 0000.0001) dxG =  /* dxG(1,:,1,:) ( units: m ) */
(PID.TID 0000.0001)                 0.000000000000000E+00,      /* J =  1 */
(PID.TID 0000.0001)                 1.534280640463982E+04,      /* J =  2 */
(PID.TID 0000.0001)                 3.064865064477965E+04,      /* J =  3 */
(PID.TID 0000.0001)                 4.588065960101153E+04,      /* J =  4 */
(PID.TID 0000.0001)                 6.100213802959342E+04,      /* J =  5 */
(PID.TID 0000.0001)                 7.597665696450579E+04,      /* J =  6 */
(PID.TID 0000.0001)                 9.076814147802141E+04,      /* J =  7 */
(PID.TID 0000.0001)                 1.053409575883663E+05,      /* J =  8 */
(PID.TID 0000.0001)                 1.196599981051027E+05,      /* J =  9 */
(PID.TID 0000.0001)                 1.336907672054259E+05,      /* J = 10 */
(PID.TID 0000.0001)                 1.473994635376230E+05,      /* J = 11 */
(PID.TID 0000.0001)                 1.607530616514898E+05,      /* J = 12 */
(PID.TID 0000.0001)                 1.737193915595329E+05,      /* J = 13 */
(PID.TID 0000.0001)                 1.862672162372875E+05,      /* J = 14 */
(PID.TID 0000.0001)                 1.983663068760452E+05,      /* J = 15 */
(PID.TID 0000.0001)                 2.099875157067021E+05,      /* J = 16 */
(PID.TID 0000.0001)                 2.211028462192875E+05,      /* J = 17 */
(PID.TID 0000.0001)                 2.316855206090085E+05,      /* J = 18 */
(PID.TID 0000.0001)                 2.417100442863276E+05,      /* J = 19 */
(PID.TID 0000.0001)                 2.511522672956614E+05,      /* J = 20 */
(PID.TID 0000.0001)                 2.599894424947394E+05,      /* J = 21 */
(PID.TID 0000.0001)                 2.682002803544621E+05,      /* J = 22 */
(PID.TID 0000.0001)                 2.757650002472408E+05,      /* J = 23 */
(PID.TID 0000.0001)                 2.826653781002625E+05,      /* J = 24 */
(PID.TID 0000.0001)                 2.888847902988777E+05,      /* J = 25 */
(PID.TID 0000.0001)                 2.944082537343438E+05,      /* J = 26 */
(PID.TID 0000.0001)                 2.992224618994463E+05,      /* J = 27 */
(PID.TID 0000.0001)                 3.033158169450409E+05,      /* J = 28 */
(PID.TID 0000.0001)                 3.066784576202870E+05,      /* J = 29 */
(PID.TID 0000.0001)                 3.093022830292655E+05,      /* J = 30 */
(PID.TID 0000.0001)                 3.111809721467461E+05,      /* J = 31 */
(PID.TID 0000.0001)                 3.123099990460912E+05,      /* J = 32 */
(PID.TID 0000.0001)                 3.126866438026091E+05,      /* J = 33 */
(PID.TID 0000.0001)                 3.123099990460912E+05,      /* J = 34 */
(PID.TID 0000.0001)                 3.111809721467461E+05,      /* J = 35 */
(PID.TID 0000.0001)                 3.093022830292655E+05,      /* J = 36 */
(PID.TID 0000.0001)                 3.066784576202870E+05,      /* J = 37 */
(PID.TID 0000.0001)                 3.033158169450409E+05,      /* J = 38 */
(PID.TID 0000.0001)                 2.992224618994463E+05,      /* J = 39 */
(PID.TID 0000.0001)                 2.944082537343438E+05,      /* J = 40 */
(PID.TID 0000.0001)                 2.888847902988777E+05,      /* J = 41 */
(PID.TID 0000.0001)                 2.826653781002625E+05,      /* J = 42 */
(PID.TID 0000.0001)                 2.757650002472408E+05,      /* J = 43 */
(PID.TID 0000.0001)                 2.682002803544621E+05,      /* J = 44 */
(PID.TID 0000.0001)                 2.599894424947394E+05,      /* J = 45 */
(PID.TID 0000.0001)                 2.511522672956614E+05,      /* J = 46 */
(PID.TID 0000.0001)                 2.417100442863276E+05,      /* J = 47 */
(PID.TID 0000.0001)                 2.316855206090085E+05,      /* J = 48 */
(PID.TID 0000.0001)                 2.211028462192875E+05,      /* J = 49 */
(PID.TID 0000.0001)                 2.099875157067021E+05,      /* J = 50 */
(PID.TID 0000.0001)                 1.983663068760452E+05,      /* J = 51 */
(PID.TID 0000.0001)                 1.862672162372875E+05,      /* J = 52 */
(PID.TID 0000.0001)                 1.737193915595329E+05,      /* J = 53 */
(PID.TID 0000.0001)                 1.607530616514898E+05,      /* J = 54 */
(PID.TID 0000.0001)                 1.473994635376230E+05,      /* J = 55 */
(PID.TID 0000.0001)                 1.336907672054259E+05,      /* J = 56 */
(PID.TID 0000.0001)                 1.196599981051027E+05,      /* J = 57 */
(PID.TID 0000.0001)                 1.053409575883663E+05,      /* J = 58 */
(PID.TID 0000.0001)                 9.076814147802141E+04,      /* J = 59 */
(PID.TID 0000.0001)                 7.597665696450579E+04,      /* J = 60 */
(PID.TID 0000.0001)                 6.100213802959342E+04,      /* J = 61 */
(PID.TID 0000.0001)                 4.588065960101153E+04,      /* J = 62 */
(PID.TID 0000.0001)                 3.064865064477965E+04,      /* J = 63 */
(PID.TID 0000.0001)                 1.534280640463982E+04       /* J = 64 */
(PID.TID 0000.0001)     ;
(PID.TID 0000.0001) dyG =  /* dyG(:,1,:,1) ( units: m ) */
(PID.TID 0000.0001)     2 @  3.126866438026091E+05              /* I =  1:  2 */
(PID.TID 0000.0001)     ;
(PID.TID 0000.0001) dyG =  /* dyG(1,:,1,:) ( units: m ) */
(PID.TID 0000.0001)    64 @  3.126866438026091E+05              /* J =  1: 64 */
(PID.TID 0000.0001)     ;
(PID.TID 0000.0001) dxC =  /* dxC(:,1,:,1) ( units: m ) */
(PID.TID 0000.0001)     2 @  1.684254287323250E+08              /* I =  1:  2 */
(PID.TID 0000.0001)     ;
(PID.TID 0000.0001) dxC =  /* dxC(1,:,1,:) ( units: m ) */
(PID.TID 0000.0001)                 1.684254287323250E+08,      /* J =  1 */
(PID.TID 0000.0001)                 5.048705345868341E+08,      /* J =  2 */
(PID.TID 0000.0001)                 8.400993631020875E+08,      /* J =  3 */
(PID.TID 0000.0001)                 1.173304318667613E+09,      /* J =  4 */
(PID.TID 0000.0001)                 1.503682681360149E+09,      /* J =  5 */
(PID.TID 0000.0001)                 1.830438540766241E+09,      /* J =  6 */
(PID.TID 0000.0001)                 2.152784713400146E+09,      /* J =  7 */
(PID.TID 0000.0001)                 2.469944639097800E+09,      /* J =  8 */
(PID.TID 0000.0001)                 2.781154251818265E+09,      /* J =  9 */
(PID.TID 0000.0001)                 3.085663820345761E+09,      /* J = 10 */
(PID.TID 0000.0001)                 3.382739754457813E+09,      /* J = 11 */
(PID.TID 0000.0001)                 3.671666372208366E+09,      /* J = 12 */
(PID.TID 0000.0001)                 3.951747624068279E+09,      /* J = 13 */
(PID.TID 0000.0001)                 4.222308769769599E+09,      /* J = 14 */
(PID.TID 0000.0001)                 4.482698003813974E+09,      /* J = 15 */
(PID.TID 0000.0001)                 4.732288025729192E+09,      /* J = 16 */
(PID.TID 0000.0001)                 4.970477551290949E+09,      /* J = 17 */
(PID.TID 0000.0001)                 5.196692761069232E+09,      /* J = 18 */
(PID.TID 0000.0001)                 5.410388682809572E+09,      /* J = 19 */
(PID.TID 0000.0001)                 5.611050504318942E+09,      /* J = 20 */
(PID.TID 0000.0001)                 5.798194813693431E+09,      /* J = 21 */
(PID.TID 0000.0001)                 5.971370763899847E+09,      /* J = 22 */
(PID.TID 0000.0001)                 6.130161158905724E+09,      /* J = 23 */
(PID.TID 0000.0001)                 6.274183458741092E+09,      /* J = 24 */
(PID.TID 0000.0001)                 6.403090701070787E+09,      /* J = 25 */
(PID.TID 0000.0001)                 6.516572337057097E+09,      /* J = 26 */
(PID.TID 0000.0001)                 6.614354979499111E+09,      /* J = 27 */
(PID.TID 0000.0001)                 6.696203061446442E+09,      /* J = 28 */
(PID.TID 0000.0001)                 6.761919403700629E+09,      /* J = 29 */
(PID.TID 0000.0001)                 6.811345689837112E+09,      /* J = 30 */
(PID.TID 0000.0001)                 6.844362847603359E+09,      /* J = 31 */
(PID.TID 0000.0001)     2 @  6.860891335774346E+09,             /* J = 32: 33 */
(PID.TID 0000.0001)                 6.844362847603359E+09,      /* J = 34 */
(PID.TID 0000.0001)                 6.811345689837112E+09,      /* J = 35 */
(PID.TID 0000.0001)                 6.761919403700629E+09,      /* J = 36 */
(PID.TID 0000.0001)                 6.696203061446442E+09,      /* J = 37 */
(PID.TID 0000.0001)                 6.614354979499111E+09,      /* J = 38 */
(PID.TID 0000.0001)                 6.516572337057097E+09,      /* J = 39 */
(PID.TID 0000.0001)                 6.403090701070787E+09,      /* J = 40 */
(PID.TID 0000.0001)                 6.274183458741092E+09,      /* J = 41 */
(PID.TID 0000.0001)                 6.130161158905724E+09,      /* J = 42 */
(PID.TID 0000.0001)                 5.971370763899847E+09,      /* J = 43 */
(PID.TID 0000.0001)                 5.798194813693431E+09,      /* J = 44 */
(PID.TID 0000.0001)                 5.611050504318942E+09,      /* J = 45 */
(PID.TID 0000.0001)                 5.410388682809572E+09,      /* J = 46 */
(PID.TID 0000.0001)                 5.196692761069232E+09,      /* J = 47 */
(PID.TID 0000.0001)                 4.970477551290949E+09,      /* J = 48 */
(PID.TID 0000.0001)                 4.732288025729192E+09,      /* J = 49 */
(PID.TID 0000.0001)                 4.482698003813974E+09,      /* J = 50 */
(PID.TID 0000.0001)                 4.222308769769599E+09,      /* J = 51 */
(PID.TID 0000.0001)                 3.951747624068279E+09,      /* J = 52 */
(PID.TID 0000.0001)                 3.671666372208366E+09,      /* J = 53 */
(PID.TID 0000.0001)                 3.382739754457813E+09,      /* J = 54 */
(PID.TID 0000.0001)                 3.085663820345761E+09,      /* J = 55 */
(PID.TID 0000.0001)                 2.781154251818265E+09,      /* J = 56 */
(PID.TID 0000.0001)                 2.469944639097800E+09,      /* J = 57 */
(PID.TID 0000.0001)                 2.152784713400146E+09,      /* J = 58 */
(PID.TID 0000.0001)                 1.830438540766241E+09,      /* J = 59 */
(PID.TID 0000.0001)                 1.503682681360149E+09,      /* J = 60 */
(PID.TID 0000.0001)                 1.173304318667613E+09,      /* J = 61 */
(PID.TID 0000.0001)                 8.400993631020875E+08,      /* J = 62 */
(PID.TID 0000.0001)                 5.048705345868341E+08,      /* J = 63 */
(PID.TID 0000.0001)                 1.684254287323250E+08       /* J = 64 */
(PID.TID 0000.0001)     ;
(PID.TID 0000.0001) dyC =  /* dyC(:,1,:,1) ( units: m ) */
(PID.TID 0000.0001)     2 @  3.126866438026091E+05              /* I =  1:  2 */
(PID.TID 0000.0001)     ;
(PID.TID 0000.0001) dyC =  /* dyC(1,:,1,:) ( units: m ) */
(PID.TID 0000.0001)    64 @  3.126866438026091E+05              /* J =  1: 64 */
(PID.TID 0000.0001)     ;
(PID.TID 0000.0001) dxV =  /* dxV(:,1,:,1) ( units: m ) */
(PID.TID 0000.0001)     2 @  0.000000000000000E+00              /* I =  1:  2 */
(PID.TID 0000.0001)     ;
(PID.TID 0000.0001) dxV =  /* dxV(1,:,1,:) ( units: m ) */
(PID.TID 0000.0001)                 0.000000000000000E+00,      /* J =  1 */
(PID.TID 0000.0001)                 3.367494042842150E+08,      /* J =  2 */
(PID.TID 0000.0001)                 6.726875497577432E+08,      /* J =  3 */
(PID.TID 0000.0001)                 1.007005132003436E+09,      /* J =  4 */
(PID.TID 0000.0001)                 1.338896750682900E+09,      /* J =  5 */
(PID.TID 0000.0001)                 1.667562849816464E+09,      /* J =  6 */
(PID.TID 0000.0001)                 1.992211643983565E+09,      /* J =  7 */
(PID.TID 0000.0001)                 2.312061025803179E+09,      /* J =  8 */
(PID.TID 0000.0001)                 2.626340450099005E+09,      /* J =  9 */
(PID.TID 0000.0001)                 2.934292790210287E+09,      /* J = 10 */
(PID.TID 0000.0001)                 3.235176161976259E+09,      /* J = 11 */
(PID.TID 0000.0001)                 3.528265711000066E+09,      /* J = 12 */
(PID.TID 0000.0001)                 3.812855358886497E+09,      /* J = 13 */
(PID.TID 0000.0001)                 4.088259504246684E+09,      /* J = 14 */
(PID.TID 0000.0001)                 4.353814674371900E+09,      /* J = 15 */
(PID.TID 0000.0001)                 4.608881123597427E+09,      /* J = 16 */
(PID.TID 0000.0001)                 4.852844374505902E+09,      /* J = 17 */
(PID.TID 0000.0001)                 5.085116698257225E+09,      /* J = 18 */
(PID.TID 0000.0001)                 5.305138530478827E+09,      /* J = 19 */
(PID.TID 0000.0001)                 5.512379819305253E+09,      /* J = 20 */
(PID.TID 0000.0001)                 5.706341302319523E+09,      /* J = 21 */
(PID.TID 0000.0001)                 5.886555709320038E+09,      /* J = 22 */
(PID.TID 0000.0001)                 6.052588888015418E+09,      /* J = 23 */
(PID.TID 0000.0001)                 6.204040849935393E+09,      /* J = 24 */
(PID.TID 0000.0001)                 6.340546734038074E+09,      /* J = 25 */
(PID.TID 0000.0001)                 6.461777685692159E+09,      /* J = 26 */
(PID.TID 0000.0001)                 6.567441648916527E+09,      /* J = 27 */
(PID.TID 0000.0001)                 6.657284069968709E+09,      /* J = 28 */
(PID.TID 0000.0001)                 6.731088510587119E+09,      /* J = 29 */
(PID.TID 0000.0001)                 6.788677169409802E+09,      /* J = 30 */
(PID.TID 0000.0001)                 6.829911310313485E+09,      /* J = 31 */
(PID.TID 0000.0001)                 6.854691596641047E+09,      /* J = 32 */
(PID.TID 0000.0001)                 6.862958330512225E+09,      /* J = 33 */
(PID.TID 0000.0001)                 6.854691596641047E+09,      /* J = 34 */
(PID.TID 0000.0001)                 6.829911310313485E+09,      /* J = 35 */
(PID.TID 0000.0001)                 6.788677169409802E+09,      /* J = 36 */
(PID.TID 0000.0001)                 6.731088510587119E+09,      /* J = 37 */
(PID.TID 0000.0001)                 6.657284069968709E+09,      /* J = 38 */
(PID.TID 0000.0001)                 6.567441648916527E+09,      /* J = 39 */
(PID.TID 0000.0001)                 6.461777685692159E+09,      /* J = 40 */
(PID.TID 0000.0001)                 6.340546734038074E+09,      /* J = 41 */
(PID.TID 0000.0001)                 6.204040849935393E+09,      /* J = 42 */
(PID.TID 0000.0001)                 6.052588888015418E+09,      /* J = 43 */
(PID.TID 0000.0001)                 5.886555709320038E+09,      /* J = 44 */
(PID.TID 0000.0001)                 5.706341302319523E+09,      /* J = 45 */
(PID.TID 0000.0001)                 5.512379819305253E+09,      /* J = 46 */
(PID.TID 0000.0001)                 5.305138530478827E+09,      /* J = 47 */
(PID.TID 0000.0001)                 5.085116698257225E+09,      /* J = 48 */
(PID.TID 0000.0001)                 4.852844374505902E+09,      /* J = 49 */
(PID.TID 0000.0001)                 4.608881123597427E+09,      /* J = 50 */
(PID.TID 0000.0001)                 4.353814674371900E+09,      /* J = 51 */
(PID.TID 0000.0001)                 4.088259504246684E+09,      /* J = 52 */
(PID.TID 0000.0001)                 3.812855358886497E+09,      /* J = 53 */
(PID.TID 0000.0001)                 3.528265711000066E+09,      /* J = 54 */
(PID.TID 0000.0001)                 3.235176161976259E+09,      /* J = 55 */
(PID.TID 0000.0001)                 2.934292790210287E+09,      /* J = 56 */
(PID.TID 0000.0001)                 2.626340450099005E+09,      /* J = 57 */
(PID.TID 0000.0001)                 2.312061025803179E+09,      /* J = 58 */
(PID.TID 0000.0001)                 1.992211643983565E+09,      /* J = 59 */
(PID.TID 0000.0001)                 1.667562849816464E+09,      /* J = 60 */
(PID.TID 0000.0001)                 1.338896750682900E+09,      /* J = 61 */
(PID.TID 0000.0001)                 1.007005132003436E+09,      /* J = 62 */
(PID.TID 0000.0001)                 6.726875497577432E+08,      /* J = 63 */
(PID.TID 0000.0001)                 3.367494042842150E+08       /* J = 64 */
(PID.TID 0000.0001)     ;
(PID.TID 0000.0001) dyU =  /* dyU(:,1,:,1) ( units: m ) */
(PID.TID 0000.0001)     2 @  3.126866438026091E+05              /* I =  1:  2 */
(PID.TID 0000.0001)     ;
(PID.TID 0000.0001) dyU =  /* dyU(1,:,1,:) ( units: m ) */
(PID.TID 0000.0001)    64 @  3.126866438026091E+05              /* J =  1: 64 */
(PID.TID 0000.0001)     ;
(PID.TID 0000.0001) rA  =  /* rA (:,1,:,1) ( units: m^2 ) */
(PID.TID 0000.0001)                 2.399227099019018E+09,      /* I =  1 */
(PID.TID 0000.0001)                 1.053157902917195E+14       /* I =  2 */
(PID.TID 0000.0001)     ;
(PID.TID 0000.0001) rA  =  /* rA (1,:,1,:) ( units: m^2 ) */
(PID.TID 0000.0001)                 2.399227099019018E+09,      /* J =  1 */
(PID.TID 0000.0001)                 7.191901348828056E+09,      /* J =  2 */
(PID.TID 0000.0001)                 1.196724967835171E+10,      /* J =  3 */
(PID.TID 0000.0001)                 1.671376785519299E+10,      /* J =  4 */
(PID.TID 0000.0001)                 2.142002110131771E+10,      /* J =  5 */
(PID.TID 0000.0001)                 2.607467164043704E+10,      /* J =  6 */
(PID.TID 0000.0001)                 3.066650601170349E+10,      /* J =  7 */
(PID.TID 0000.0001)                 3.518446208391881E+10,      /* J =  8 */
(PID.TID 0000.0001)                 3.961765570517892E+10,      /* J =  9 */
(PID.TID 0000.0001)                 4.395540692374860E+10,      /* J = 10 */
(PID.TID 0000.0001)                 4.818726571700000E+10,      /* J = 11 */
(PID.TID 0000.0001)                 5.230303716643333E+10,      /* J = 12 */
(PID.TID 0000.0001)                 5.629280601812741E+10,      /* J = 13 */
(PID.TID 0000.0001)                 6.014696056945659E+10,      /* J = 14 */
(PID.TID 0000.0001)                 6.385621582452237E+10,      /* J = 15 */
(PID.TID 0000.0001)                 6.741163586252303E+10,      /* J = 16 */
(PID.TID 0000.0001)                 7.080465536516846E+10,      /* J = 17 */
(PID.TID 0000.0001)                 7.402710025128452E+10,      /* J = 18 */
(PID.TID 0000.0001)                 7.707120736888658E+10,      /* J = 19 */
(PID.TID 0000.0001)                 7.992964319729683E+10,      /* J = 20 */
(PID.TID 0000.0001)                 8.259552151423444E+10,      /* J = 21 */
(PID.TID 0000.0001)                 8.506241998533159E+10,      /* J = 22 */
(PID.TID 0000.0001)                 8.732439563609566E+10,      /* J = 23 */
(PID.TID 0000.0001)                 8.937599916905872E+10,      /* J = 24 */
(PID.TID 0000.0001)                 9.121228809161066E+10,      /* J = 25 */
(PID.TID 0000.0001)                 9.282883862289705E+10,      /* J = 26 */
(PID.TID 0000.0001)                 9.422175635109474E+10,      /* J = 27 */
(PID.TID 0000.0001)                 9.538768561539165E+10,      /* J = 28 */
(PID.TID 0000.0001)                 9.632381759006650E+10,      /* J = 29 */
(PID.TID 0000.0001)                 9.702789705119698E+10,      /* J = 30 */
(PID.TID 0000.0001)                 9.749822780969106E+10,      /* J = 31 */
(PID.TID 0000.0001)     2 @  9.773367679755542E+10,             /* J = 32: 33 */
(PID.TID 0000.0001)                 9.749822780969106E+10,      /* J = 34 */
(PID.TID 0000.0001)                 9.702789705119698E+10,      /* J = 35 */
(PID.TID 0000.0001)                 9.632381759006650E+10,      /* J = 36 */
(PID.TID 0000.0001)                 9.538768561539165E+10,      /* J = 37 */
(PID.TID 0000.0001)                 9.422175635109474E+10,      /* J = 38 */
(PID.TID 0000.0001)                 9.282883862289705E+10,      /* J = 39 */
(PID.TID 0000.0001)                 9.121228809161066E+10,      /* J = 40 */
(PID.TID 0000.0001)                 8.937599916905872E+10,      /* J = 41 */
(PID.TID 0000.0001)                 8.732439563609566E+10,      /* J = 42 */
(PID.TID 0000.0001)                 8.506241998533159E+10,      /* J = 43 */
(PID.TID 0000.0001)                 8.259552151423444E+10,      /* J = 44 */
(PID.TID 0000.0001)                 7.992964319729683E+10,      /* J = 45 */
(PID.TID 0000.0001)                 7.707120736888658E+10,      /* J = 46 */
(PID.TID 0000.0001)                 7.402710025128452E+10,      /* J = 47 */
(PID.TID 0000.0001)                 7.080465536516846E+10,      /* J = 48 */
(PID.TID 0000.0001)                 6.741163586252303E+10,      /* J = 49 */
(PID.TID 0000.0001)                 6.385621582452237E+10,      /* J = 50 */
(PID.TID 0000.0001)                 6.014696056945659E+10,      /* J = 51 */
(PID.TID 0000.0001)                 5.629280601812741E+10,      /* J = 52 */
(PID.TID 0000.0001)                 5.230303716643333E+10,      /* J = 53 */
(PID.TID 0000.0001)                 4.818726571700000E+10,      /* J = 54 */
(PID.TID 0000.0001)                 4.395540692374860E+10,      /* J = 55 */
(PID.TID 0000.0001)                 3.961765570517892E+10,      /* J = 56 */
(PID.TID 0000.0001)                 3.518446208391881E+10,      /* J = 57 */
(PID.TID 0000.0001)                 3.066650601170349E+10,      /* J = 58 */
(PID.TID 0000.0001)                 2.607467164043704E+10,      /* J = 59 */
(PID.TID 0000.0001)                 2.142002110131771E+10,      /* J = 60 */
(PID.TID 0000.0001)                 1.671376785519299E+10,      /* J = 61 */
(PID.TID 0000.0001)                 1.196724967835171E+10,      /* J = 62 */
(PID.TID 0000.0001)                 7.191901348828056E+09,      /* J = 63 */
(PID.TID 0000.0001)                 2.399227099019018E+09       /* J = 64 */
(PID.TID 0000.0001)     ;
(PID.TID 0000.0001) rAw =  /* rAw(:,1,:,1) ( units: m^2 ) */
(PID.TID 0000.0001)     2 @  5.265909475940928E+13              /* I =  1:  2 */
(PID.TID 0000.0001)     ;
(PID.TID 0000.0001) rAw =  /* rAw(1,:,1,:) ( units: m^2 ) */
(PID.TID 0000.0001)                 5.265909475940928E+13,      /* J =  1 */
(PID.TID 0000.0001)                 1.578504239065608E+14,      /* J =  2 */
(PID.TID 0000.0001)                 2.626614775564593E+14,      /* J =  3 */
(PID.TID 0000.0001)                 3.668397567004972E+14,      /* J =  4 */
(PID.TID 0000.0001)                 4.701342867392708E+14,      /* J =  5 */
(PID.TID 0000.0001)                 5.722962221023880E+14,      /* J =  6 */
(PID.TID 0000.0001)                 6.730794457392414E+14,      /* J =  7 */
(PID.TID 0000.0001)                 7.722411620365068E+14,      /* J =  8 */
(PID.TID 0000.0001)                 8.695424817340859E+14,      /* J =  9 */
(PID.TID 0000.0001)                 9.647489974302449E+14,      /* J = 10 */
(PID.TID 0000.0001)                 1.057631348289561E+15,      /* J = 11 */
(PID.TID 0000.0001)                 1.147965772593287E+15,      /* J = 12 */
(PID.TID 0000.0001)                 1.235534646800902E+15,      /* J = 13 */
(PID.TID 0000.0001)                 1.320127009824326E+15,      /* J = 14 */
(PID.TID 0000.0001)                 1.401539071251612E+15,      /* J = 15 */
(PID.TID 0000.0001)                 1.479574702295931E+15,      /* J = 16 */
(PID.TID 0000.0001)                 1.554045908286970E+15,      /* J = 17 */
(PID.TID 0000.0001)                 1.624773281566616E+15,      /* J = 18 */
(PID.TID 0000.0001)                 1.691586433697626E+15,      /* J = 19 */
(PID.TID 0000.0001)                 1.754324405944393E+15,      /* J = 20 */
(PID.TID 0000.0001)                 1.812836057036559E+15,      /* J = 21 */
(PID.TID 0000.0001)                 1.866980427281652E+15,      /* J = 22 */
(PID.TID 0000.0001)                 1.916627078149244E+15,      /* J = 23 */
(PID.TID 0000.0001)                 1.961656406508870E+15,      /* J = 24 */
(PID.TID 0000.0001)                 2.001959932764410E+15,      /* J = 25 */
(PID.TID 0000.0001)                 2.037440562190940E+15,      /* J = 26 */
(PID.TID 0000.0001)                 2.068012818844433E+15,      /* J = 27 */
(PID.TID 0000.0001)                 2.093603051480803E+15,      /* J = 28 */
(PID.TID 0000.0001)                 2.114149610988184E+15,      /* J = 29 */
(PID.TID 0000.0001)                 2.129602998905060E+15,      /* J = 30 */
(PID.TID 0000.0001)                 2.139925986666382E+15,      /* J = 31 */
(PID.TID 0000.0001)     2 @  2.145093705290445E+15,             /* J = 32: 33 */
(PID.TID 0000.0001)                 2.139925986666382E+15,      /* J = 34 */
(PID.TID 0000.0001)                 2.129602998905060E+15,      /* J = 35 */
(PID.TID 0000.0001)                 2.114149610988184E+15,      /* J = 36 */
(PID.TID 0000.0001)                 2.093603051480803E+15,      /* J = 37 */
(PID.TID 0000.0001)                 2.068012818844433E+15,      /* J = 38 */
(PID.TID 0000.0001)                 2.037440562190940E+15,      /* J = 39 */
(PID.TID 0000.0001)                 2.001959932764410E+15,      /* J = 40 */
(PID.TID 0000.0001)                 1.961656406508870E+15,      /* J = 41 */
(PID.TID 0000.0001)                 1.916627078149244E+15,      /* J = 42 */
(PID.TID 0000.0001)                 1.866980427281652E+15,      /* J = 43 */
(PID.TID 0000.0001)                 1.812836057036559E+15,      /* J = 44 */
(PID.TID 0000.0001)                 1.754324405944393E+15,      /* J = 45 */
(PID.TID 0000.0001)                 1.691586433697626E+15,      /* J = 46 */
(PID.TID 0000.0001)                 1.624773281566616E+15,      /* J = 47 */
(PID.TID 0000.0001)                 1.554045908286970E+15,      /* J = 48 */
(PID.TID 0000.0001)                 1.479574702295931E+15,      /* J = 49 */
(PID.TID 0000.0001)                 1.401539071251612E+15,      /* J = 50 */
(PID.TID 0000.0001)                 1.320127009824326E+15,      /* J = 51 */
(PID.TID 0000.0001)                 1.235534646800902E+15,      /* J = 52 */
(PID.TID 0000.0001)                 1.147965772593287E+15,      /* J = 53 */
(PID.TID 0000.0001)                 1.057631348289561E+15,      /* J = 54 */
(PID.TID 0000.0001)                 9.647489974302449E+14,      /* J = 55 */
(PID.TID 0000.0001)                 8.695424817340859E+14,      /* J = 56 */
(PID.TID 0000.0001)                 7.722411620365068E+14,      /* J = 57 */
(PID.TID 0000.0001)                 6.730794457392414E+14,      /* J = 58 */
(PID.TID 0000.0001)                 5.722962221023880E+14,      /* J = 59 */
(PID.TID 0000.0001)                 4.701342867392708E+14,      /* J = 60 */
(PID.TID 0000.0001)                 3.668397567004972E+14,      /* J = 61 */
(PID.TID 0000.0001)                 2.626614775564593E+14,      /* J = 62 */
(PID.TID 0000.0001)                 1.578504239065608E+14,      /* J = 63 */
(PID.TID 0000.0001)                 5.265909475940928E+13       /* J = 64 */
(PID.TID 0000.0001)     ;
(PID.TID 0000.0001) rAs =  /* rAs(:,1,:,1) ( units: m^2 ) */
(PID.TID 0000.0001)     2 @  0.000000000000000E+00              /* I =  1:  2 */
(PID.TID 0000.0001)     ;
(PID.TID 0000.0001) rAs =  /* rAs(1,:,1,:) ( units: m^2 ) */
(PID.TID 0000.0001)                 0.000000000000000E+00,      /* J =  1 */
(PID.TID 0000.0001)                 4.797008993346594E+09,      /* J =  2 */
(PID.TID 0000.0001)                 9.582461571859739E+09,      /* J =  3 */
(PID.TID 0000.0001)                 1.434482916112175E+10,      /* J =  4 */
(PID.TID 0000.0001)                 1.907263880047594E+10,      /* J =  5 */
(PID.TID 0000.0001)                 2.375450078239423E+10,      /* J =  6 */
(PID.TID 0000.0001)                 2.837913609127881E+10,      /* J =  7 */
(PID.TID 0000.0001)                 3.293540357560110E+10,      /* J =  8 */
(PID.TID 0000.0001)                 3.741232678790870E+10,      /* J =  9 */
(PID.TID 0000.0001)                 4.179912042805190E+10,      /* J = 10 */
(PID.TID 0000.0001)                 4.608521632591324E+10,      /* J = 11 */
(PID.TID 0000.0001)                 5.026028890105701E+10,      /* J = 12 */
(PID.TID 0000.0001)                 5.431428003795675E+10,      /* J = 13 */
(PID.TID 0000.0001)                 5.823742331687641E+10,      /* J = 14 */
(PID.TID 0000.0001)                 6.202026754202965E+10,      /* J = 15 */
(PID.TID 0000.0001)                 6.565369951034003E+10,      /* J = 16 */
(PID.TID 0000.0001)                 6.912896596594559E+10,      /* J = 17 */
(PID.TID 0000.0001)                 7.243769468755632E+10,      /* J = 18 */
(PID.TID 0000.0001)                 7.557191465787256E+10,      /* J = 19 */
(PID.TID 0000.0001)                 7.852407526645966E+10,      /* J = 20 */
(PID.TID 0000.0001)                 8.128706449983365E+10,      /* J = 21 */
(PID.TID 0000.0001)                 8.385422607492096E+10,      /* J = 22 */
(PID.TID 0000.0001)                 8.621937547463148E+10,      /* J = 23 */
(PID.TID 0000.0001)                 8.837681484689812E+10,      /* J = 24 */
(PID.TID 0000.0001)                 9.032134673130376E+10,      /* J = 25 */
(PID.TID 0000.0001)                 9.204828658021815E+10,      /* J = 26 */
(PID.TID 0000.0001)                 9.355347404428317E+10,      /* J = 27 */
(PID.TID 0000.0001)                 9.483328299505896E+10,      /* J = 28 */
(PID.TID 0000.0001)                 9.588463026068500E+10,      /* J = 29 */
(PID.TID 0000.0001)                 9.670498305351135E+10,      /* J = 30 */
(PID.TID 0000.0001)                 9.729236507180571E+10,      /* J = 31 */
(PID.TID 0000.0001)                 9.764536126083739E+10,      /* J = 32 */
(PID.TID 0000.0001)                 9.776312122186816E+10,      /* J = 33 */
(PID.TID 0000.0001)                 9.764536126083739E+10,      /* J = 34 */
(PID.TID 0000.0001)                 9.729236507180571E+10,      /* J = 35 */
(PID.TID 0000.0001)                 9.670498305351135E+10,      /* J = 36 */
(PID.TID 0000.0001)                 9.588463026068500E+10,      /* J = 37 */
(PID.TID 0000.0001)                 9.483328299505896E+10,      /* J = 38 */
(PID.TID 0000.0001)                 9.355347404428317E+10,      /* J = 39 */
(PID.TID 0000.0001)                 9.204828658021815E+10,      /* J = 40 */
(PID.TID 0000.0001)                 9.032134673130376E+10,      /* J = 41 */
(PID.TID 0000.0001)                 8.837681484689812E+10,      /* J = 42 */
(PID.TID 0000.0001)                 8.621937547463148E+10,      /* J = 43 */
(PID.TID 0000.0001)                 8.385422607492096E+10,      /* J = 44 */
(PID.TID 0000.0001)                 8.128706449983365E+10,      /* J = 45 */
(PID.TID 0000.0001)                 7.852407526645966E+10,      /* J = 46 */
(PID.TID 0000.0001)                 7.557191465787256E+10,      /* J = 47 */
(PID.TID 0000.0001)                 7.243769468755632E+10,      /* J = 48 */
(PID.TID 0000.0001)                 6.912896596594559E+10,      /* J = 49 */
(PID.TID 0000.0001)                 6.565369951034003E+10,      /* J = 50 */
(PID.TID 0000.0001)                 6.202026754202965E+10,      /* J = 51 */
(PID.TID 0000.0001)                 5.823742331687641E+10,      /* J = 52 */
(PID.TID 0000.0001)                 5.431428003795675E+10,      /* J = 53 */
(PID.TID 0000.0001)                 5.026028890105701E+10,      /* J = 54 */
(PID.TID 0000.0001)                 4.608521632591324E+10,      /* J = 55 */
(PID.TID 0000.0001)                 4.179912042805190E+10,      /* J = 56 */
(PID.TID 0000.0001)                 3.741232678790870E+10,      /* J = 57 */
(PID.TID 0000.0001)                 3.293540357560110E+10,      /* J = 58 */
(PID.TID 0000.0001)                 2.837913609127881E+10,      /* J = 59 */
(PID.TID 0000.0001)                 2.375450078239423E+10,      /* J = 60 */
(PID.TID 0000.0001)                 1.907263880047594E+10,      /* J = 61 */
(PID.TID 0000.0001)                 1.434482916112175E+10,      /* J = 62 */
(PID.TID 0000.0001)                 9.582461571859739E+09,      /* J = 63 */
(PID.TID 0000.0001)                 4.797008993346594E+09       /* J = 64 */
(PID.TID 0000.0001)     ;
(PID.TID 0000.0001) globalArea = /* Integrated horizontal Area (m^2) */
(PID.TID 0000.0001)                 1.748681782614515E+17
(PID.TID 0000.0001)     ;
(PID.TID 0000.0001) // =======================================================
(PID.TID 0000.0001) // End of Model config. summary
(PID.TID 0000.0001) // =======================================================
(PID.TID 0000.0001) 
(PID.TID 0000.0001) // =======================================================
(PID.TID 0000.0001) // Field Model R_low (ini_masks_etc) at iteration          1
(PID.TID 0000.0001) // CMIN =          1.000000000000000E+32
(PID.TID 0000.0001) // CMAX =         -1.000000000000000E+32
(PID.TID 0000.0001) // CINT =          0.000000000000000E+00
(PID.TID 0000.0001) // SYMBOLS (CMIN->CMAX): -abcdefghijklmnopqrstuvwxyz+
(PID.TID 0000.0001) //                  0.0: .
(PID.TID 0000.0001) // RANGE I (Lo:Hi:Step):(  -3:   6:   1)
(PID.TID 0000.0001) // RANGE J (Lo:Hi:Step):(  68:  -3:  -1)
(PID.TID 0000.0001) // RANGE K (Lo:Hi:Step):(   1:   1:   1)
(PID.TID 0000.0001) // =======================================================
(PID.TID 0000.0001) // =======================================================
(PID.TID 0000.0001) // END OF FIELD                                          =
(PID.TID 0000.0001) // =======================================================
(PID.TID 0000.0001) 
(PID.TID 0000.0001) // =======================================================
(PID.TID 0000.0001) // Field Model Ro_surf (ini_masks_etc) at iteration          1
(PID.TID 0000.0001) // CMIN =          1.000000000000000E+05
(PID.TID 0000.0001) // CMAX =          1.000000000000000E+05
(PID.TID 0000.0001) // CINT =          0.000000000000000E+00
(PID.TID 0000.0001) // SYMBOLS (CMIN->CMAX): -abcdefghijklmnopqrstuvwxyz+
(PID.TID 0000.0001) //                  0.0: .
(PID.TID 0000.0001) // RANGE I (Lo:Hi:Step):(  -3:   6:   1)
(PID.TID 0000.0001) // RANGE J (Lo:Hi:Step):(  68:  -3:  -1)
(PID.TID 0000.0001) // RANGE K (Lo:Hi:Step):(   1:   1:   1)
(PID.TID 0000.0001) // =======================================================
(PID.TID 0000.0001) // =======================================================
(PID.TID 0000.0001) // END OF FIELD                                          =
(PID.TID 0000.0001) // =======================================================
(PID.TID 0000.0001) 
(PID.TID 0000.0001) // =======================================================
(PID.TID 0000.0001) // Field hFacC at iteration          1
(PID.TID 0000.0001) // CMIN =          1.000000000000000E+00
(PID.TID 0000.0001) // CMAX =          1.000000000000000E+00
(PID.TID 0000.0001) // CINT =          0.000000000000000E+00
(PID.TID 0000.0001) // SYMBOLS (CMIN->CMAX): -abcdefghijklmnopqrstuvwxyz+
(PID.TID 0000.0001) //                  0.0: .
(PID.TID 0000.0001) // RANGE I (Lo:Hi:Step):(  -3:   6:   1)
(PID.TID 0000.0001) // RANGE J (Lo:Hi:Step):(  68:  -3:  -1)
(PID.TID 0000.0001) // RANGE K (Lo:Hi:Step):(   1:   1:   1)
(PID.TID 0000.0001) // =======================================================
(PID.TID 0000.0001) // =======================================================
(PID.TID 0000.0001) // END OF FIELD                                          =
(PID.TID 0000.0001) // =======================================================
(PID.TID 0000.0001) 
(PID.TID 0000.0001) // =======================================================
(PID.TID 0000.0001) // Field hFacW at iteration          1
(PID.TID 0000.0001) // CMIN =          1.000000000000000E+00
(PID.TID 0000.0001) // CMAX =          1.000000000000000E+00
(PID.TID 0000.0001) // CINT =          0.000000000000000E+00
(PID.TID 0000.0001) // SYMBOLS (CMIN->CMAX): -abcdefghijklmnopqrstuvwxyz+
(PID.TID 0000.0001) //                  0.0: .
(PID.TID 0000.0001) // RANGE I (Lo:Hi:Step):(  -3:   6:   1)
(PID.TID 0000.0001) // RANGE J (Lo:Hi:Step):(  68:  -3:  -1)
(PID.TID 0000.0001) // RANGE K (Lo:Hi:Step):(   1:   1:   1)
(PID.TID 0000.0001) // =======================================================
(PID.TID 0000.0001) // =======================================================
(PID.TID 0000.0001) // END OF FIELD                                          =
(PID.TID 0000.0001) // =======================================================
(PID.TID 0000.0001) 
(PID.TID 0000.0001) // =======================================================
(PID.TID 0000.0001) // Field hFacS at iteration          1
(PID.TID 0000.0001) // CMIN =          1.000000000000000E+00
(PID.TID 0000.0001) // CMAX =          1.000000000000000E+00
(PID.TID 0000.0001) // CINT =          0.000000000000000E+00
(PID.TID 0000.0001) // SYMBOLS (CMIN->CMAX): -abcdefghijklmnopqrstuvwxyz+
(PID.TID 0000.0001) //                  0.0: .
(PID.TID 0000.0001) // RANGE I (Lo:Hi:Step):(  -3:   6:   1)
(PID.TID 0000.0001) // RANGE J (Lo:Hi:Step):(  68:  -3:  -1)
(PID.TID 0000.0001) // RANGE K (Lo:Hi:Step):(   1:   1:   1)
(PID.TID 0000.0001) // =======================================================
(PID.TID 0000.0001) // =======================================================
(PID.TID 0000.0001) // END OF FIELD                                          =
(PID.TID 0000.0001) // =======================================================
(PID.TID 0000.0001) 
(PID.TID 0000.0001) %MON fCori_max                    =   1.4540029928789E-04
(PID.TID 0000.0001) %MON fCori_min                    =  -1.4540029928789E-04
(PID.TID 0000.0001) %MON fCori_mean                   =  -2.1175823681358E-21
(PID.TID 0000.0001) %MON fCori_sd                     =   1.0284451245737E-04
(PID.TID 0000.0001) %MON fCoriG_max                   =   1.4526891053949E-04
(PID.TID 0000.0001) %MON fCoriG_min                   =  -1.4544410433286E-04
(PID.TID 0000.0001) %MON fCoriG_mean                  =  -2.3086365767121E-06
(PID.TID 0000.0001) %MON fCoriG_sd                    =   1.0363181330709E-04
(PID.TID 0000.0001) %MON fCoriCos_max                 =   1.4540029928789E-04
(PID.TID 0000.0001) %MON fCoriCos_min                 =   3.5693770017430E-06
(PID.TID 0000.0001) %MON fCoriCos_mean                =   9.2601889431869E-05
(PID.TID 0000.0001) %MON fCoriCos_sd                  =   4.4742416298653E-05
(PID.TID 0000.0001) INI_CG2D: CG2D normalisation factor =  2.2781266630324642E-10
(PID.TID 0000.0001) 
(PID.TID 0000.0001) // =======================================================
(PID.TID 0000.0001) // Field Initial Temperature at iteration          1
(PID.TID 0000.0001) // CMIN =          2.550364452389422E+02
(PID.TID 0000.0001) // CMAX =          3.154764877049333E+02
(PID.TID 0000.0001) // CINT =          2.238520091333004E+00
(PID.TID 0000.0001) // SYMBOLS (CMIN->CMAX): -abcdefghijklmnopqrstuvwxyz+
(PID.TID 0000.0001) //                  0.0: .
(PID.TID 0000.0001) // RANGE I (Lo:Hi:Step):(   1:   2:   1)
(PID.TID 0000.0001) // RANGE J (Lo:Hi:Step):(  64:   1:  -1)
(PID.TID 0000.0001) // RANGE K (Lo:Hi:Step):(   1:   1:   1)
(PID.TID 0000.0001) // =======================================================
(PID.TID 0000.0001) K =   1
(PID.TID 0000.0001) 
(PID.TID 0000.0001) |--J--|12
(PID.TID 0000.0001)     64 --
(PID.TID 0000.0001)     63 --
(PID.TID 0000.0001)     62 --
(PID.TID 0000.0001)     61 aa
(PID.TID 0000.0001)     60 aa
(PID.TID 0000.0001)     59 bb
(PID.TID 0000.0001)     58 cc
(PID.TID 0000.0001)     57 cc
(PID.TID 0000.0001)     56 dd
(PID.TID 0000.0001)     55 ee
(PID.TID 0000.0001)     54 gg
(PID.TID 0000.0001)     53 hh
(PID.TID 0000.0001)     52 ii
(PID.TID 0000.0001)     51 jj
(PID.TID 0000.0001)     50 ll
(PID.TID 0000.0001)     49 mm
(PID.TID 0000.0001)     48 nn
(PID.TID 0000.0001)     47 oo
(PID.TID 0000.0001)     46 qq
(PID.TID 0000.0001)     45 rr
(PID.TID 0000.0001)     44 ss
(PID.TID 0000.0001)     43 tt
(PID.TID 0000.0001)     42 vv
(PID.TID 0000.0001)     41 ww
(PID.TID 0000.0001)     40 xx
(PID.TID 0000.0001)     39 xx
(PID.TID 0000.0001)     38 yy
(PID.TID 0000.0001)     37 zz
(PID.TID 0000.0001)     36 zz
(PID.TID 0000.0001)     35 ++
(PID.TID 0000.0001)     34 ++
(PID.TID 0000.0001)     33 ++
(PID.TID 0000.0001)     32 ++
(PID.TID 0000.0001)     31 ++
(PID.TID 0000.0001)     30 ++
(PID.TID 0000.0001)     29 zz
(PID.TID 0000.0001)     28 zz
(PID.TID 0000.0001)     27 yy
(PID.TID 0000.0001)     26 xx
(PID.TID 0000.0001)     25 xx
(PID.TID 0000.0001)     24 ww
(PID.TID 0000.0001)     23 vv
(PID.TID 0000.0001)     22 tt
(PID.TID 0000.0001)     21 ss
(PID.TID 0000.0001)     20 rr
(PID.TID 0000.0001)     19 qq
(PID.TID 0000.0001)     18 oo
(PID.TID 0000.0001)     17 nn
(PID.TID 0000.0001)     16 mm
(PID.TID 0000.0001)     15 ll
(PID.TID 0000.0001)     14 jj
(PID.TID 0000.0001)     13 ii
(PID.TID 0000.0001)     12 hh
(PID.TID 0000.0001)     11 gg
(PID.TID 0000.0001)     10 ee
(PID.TID 0000.0001)      9 dd
(PID.TID 0000.0001)      8 cc
(PID.TID 0000.0001)      7 cc
(PID.TID 0000.0001)      6 bb
(PID.TID 0000.0001)      5 aa
(PID.TID 0000.0001)      4 aa
(PID.TID 0000.0001)      3 --
(PID.TID 0000.0001)      2 --
(PID.TID 0000.0001)      1 --
(PID.TID 0000.0001) // =======================================================
(PID.TID 0000.0001) // END OF FIELD                                          =
(PID.TID 0000.0001) // =======================================================
(PID.TID 0000.0001) 
(PID.TID 0000.0001) // =======================================================
(PID.TID 0000.0001) // Field Initial Salinity at iteration          1
(PID.TID 0000.0001) // CMIN =          1.000000000000000E+32
(PID.TID 0000.0001) // CMAX =         -1.000000000000000E+32
(PID.TID 0000.0001) // CINT =          0.000000000000000E+00
(PID.TID 0000.0001) // SYMBOLS (CMIN->CMAX): -abcdefghijklmnopqrstuvwxyz+
(PID.TID 0000.0001) //                  0.0: .
(PID.TID 0000.0001) // RANGE I (Lo:Hi:Step):(   1:   2:   1)
(PID.TID 0000.0001) // RANGE J (Lo:Hi:Step):(  64:   1:  -1)
(PID.TID 0000.0001) // RANGE K (Lo:Hi:Step):(   1:   1:   1)
(PID.TID 0000.0001) // =======================================================
(PID.TID 0000.0001) // =======================================================
(PID.TID 0000.0001) // END OF FIELD                                          =
(PID.TID 0000.0001) // =======================================================
(PID.TID 0000.0001) 
(PID.TID 0000.0001) Start initial hydrostatic pressure computation
(PID.TID 0000.0001) Pressure is predetermined for buoyancyRelation ATMOSPHERIC
(PID.TID 0000.0001) 
(PID.TID 0000.0001)  MDS_READ_FIELD: opening file: xx_theta.0000000000.001.001.data
(PID.TID 0000.0001)  MDS_READ_FIELD: opening file: xx_salt.0000000000.001.001.data
(PID.TID 0000.0001)  MDS_READ_FIELD: opening file: xx_diffkr.0000000000.001.001.data
(PID.TID 0000.0001) // =======================================================
(PID.TID 0000.0001) // Begin MONITOR dynamic field statistics
(PID.TID 0000.0001) // =======================================================
(PID.TID 0000.0001) %MON time_tsnumber                =                     0
(PID.TID 0000.0001) %MON time_secondsf                =   0.0000000000000E+00
(PID.TID 0000.0001) %MON dynstat_eta_max              =   0.0000000000000E+00
(PID.TID 0000.0001) %MON dynstat_eta_min              =   0.0000000000000E+00
(PID.TID 0000.0001) %MON dynstat_eta_mean             =   0.0000000000000E+00
(PID.TID 0000.0001) %MON dynstat_eta_sd               =   0.0000000000000E+00
(PID.TID 0000.0001) %MON dynstat_eta_del2             =   0.0000000000000E+00
(PID.TID 0000.0001) %MON dynstat_uvel_max             =   0.0000000000000E+00
(PID.TID 0000.0001) %MON dynstat_uvel_min             =   0.0000000000000E+00
(PID.TID 0000.0001) %MON dynstat_uvel_mean            =   0.0000000000000E+00
(PID.TID 0000.0001) %MON dynstat_uvel_sd              =   0.0000000000000E+00
(PID.TID 0000.0001) %MON dynstat_uvel_del2            =   0.0000000000000E+00
(PID.TID 0000.0001) %MON dynstat_vvel_max             =   0.0000000000000E+00
(PID.TID 0000.0001) %MON dynstat_vvel_min             =   0.0000000000000E+00
(PID.TID 0000.0001) %MON dynstat_vvel_mean            =   0.0000000000000E+00
(PID.TID 0000.0001) %MON dynstat_vvel_sd              =   0.0000000000000E+00
(PID.TID 0000.0001) %MON dynstat_vvel_del2            =   0.0000000000000E+00
(PID.TID 0000.0001) %MON dynstat_wvel_max             =   0.0000000000000E+00
(PID.TID 0000.0001) %MON dynstat_wvel_min             =   0.0000000000000E+00
(PID.TID 0000.0001) %MON dynstat_wvel_mean            =   0.0000000000000E+00
(PID.TID 0000.0001) %MON dynstat_wvel_sd              =   0.0000000000000E+00
(PID.TID 0000.0001) %MON dynstat_wvel_del2            =   0.0000000000000E+00
(PID.TID 0000.0001) %MON dynstat_theta_max            =   4.1921910192279E+02
(PID.TID 0000.0001) %MON dynstat_theta_min            =   2.5503644523894E+02
(PID.TID 0000.0001) %MON dynstat_theta_mean           =   3.1867742639048E+02
(PID.TID 0000.0001) %MON dynstat_theta_sd             =   4.5642507144469E+01
(PID.TID 0000.0001) %MON dynstat_theta_del2           =   4.0241168714763E-02
(PID.TID 0000.0001) %MON dynstat_salt_max             =   0.0000000000000E+00
(PID.TID 0000.0001) %MON dynstat_salt_min             =   0.0000000000000E+00
(PID.TID 0000.0001) %MON dynstat_salt_mean            =   0.0000000000000E+00
(PID.TID 0000.0001) %MON dynstat_salt_sd              =   0.0000000000000E+00
(PID.TID 0000.0001) %MON dynstat_salt_del2            =   0.0000000000000E+00
(PID.TID 0000.0001) %MON advcfl_uvel_max              =   0.0000000000000E+00
(PID.TID 0000.0001) %MON advcfl_vvel_max              =   0.0000000000000E+00
(PID.TID 0000.0001) %MON advcfl_wvel_max              =   0.0000000000000E+00
(PID.TID 0000.0001) %MON advcfl_W_hf_max              =   0.0000000000000E+00
(PID.TID 0000.0001) %MON pe_b_mean                    =   0.0000000000000E+00
(PID.TID 0000.0001) %MON ke_max                       =   0.0000000000000E+00
(PID.TID 0000.0001) %MON ke_mean                      =   0.0000000000000E+00
(PID.TID 0000.0001) %MON ke_vol                       =   1.7486817826145E+22
(PID.TID 0000.0001) %MON vort_r_min                   =   0.0000000000000E+00
(PID.TID 0000.0001) %MON vort_r_max                   =   0.0000000000000E+00
(PID.TID 0000.0001) %MON vort_a_mean                  =  -5.9705800281861E-22
(PID.TID 0000.0001) %MON vort_a_sd                    =   8.3955319514376E-05
(PID.TID 0000.0001) %MON vort_p_mean                  =  -5.9705800281861E-22
(PID.TID 0000.0001) %MON vort_p_sd                    =   8.3955319514376E-05
(PID.TID 0000.0001) %MON surfExpan_theta_mean         =   0.0000000000000E+00
(PID.TID 0000.0001) %MON surfExpan_salt_mean          =   0.0000000000000E+00
(PID.TID 0000.0001) %MON surfExpan_Heat_mean          =   0.0000000000000E+00
(PID.TID 0000.0001) %MON En_Budget_T2PE_mean          =   0.0000000000000E+00
(PID.TID 0000.0001) // =======================================================
(PID.TID 0000.0001) // End MONITOR dynamic field statistics
(PID.TID 0000.0001) // =======================================================
 cg2d: Sum(rhs),rhsMax =   4.12864187282480E-16  8.97359314695303E+01
(PID.TID 0000.0001)                    cg2d_init_res =    3.34521905366028E+00
(PID.TID 0000.0001)                       cg2d_iters =    19
(PID.TID 0000.0001)                         cg2d_res =    4.03661935231877E-14
(PID.TID 0000.0001) // =======================================================
(PID.TID 0000.0001) // Begin MONITOR dynamic field statistics
(PID.TID 0000.0001) // =======================================================
(PID.TID 0000.0001) %MON time_tsnumber                =                     1
(PID.TID 0000.0001) %MON time_secondsf                =   1.2000000000000E+03
(PID.TID 0000.0001) %MON dynstat_eta_max              =   1.4335929277102E+02
(PID.TID 0000.0001) %MON dynstat_eta_min              =  -9.2440656691671E+01
(PID.TID 0000.0001) %MON dynstat_eta_mean             =  -7.4205199190667E-15
(PID.TID 0000.0001) %MON dynstat_eta_sd               =   7.6540726042358E+01
(PID.TID 0000.0001) %MON dynstat_eta_del2             =   1.0992341423121E+00
(PID.TID 0000.0001) %MON dynstat_uvel_max             =   5.8198332770380E-16
(PID.TID 0000.0001) %MON dynstat_uvel_min             =  -5.8198332770380E-16
(PID.TID 0000.0001) %MON dynstat_uvel_mean            =   0.0000000000000E+00
(PID.TID 0000.0001) %MON dynstat_uvel_sd              =   2.0573990425028E-17
(PID.TID 0000.0001) %MON dynstat_uvel_del2            =   3.1204047401453E-17
(PID.TID 0000.0001) %MON dynstat_vvel_max             =   5.2726881150810E+00
(PID.TID 0000.0001) %MON dynstat_vvel_min             =  -5.2726881150810E+00
(PID.TID 0000.0001) %MON dynstat_vvel_mean            =  -8.0432221950006E-17
(PID.TID 0000.0001) %MON dynstat_vvel_sd              =   1.9374164426475E+00
(PID.TID 0000.0001) %MON dynstat_vvel_del2            =   1.5138095756125E-02
(PID.TID 0000.0001) %MON dynstat_wvel_max             =   1.1946607730912E-01
(PID.TID 0000.0001) %MON dynstat_wvel_min             =  -7.7033880576388E-02
(PID.TID 0000.0001) %MON dynstat_wvel_mean            =   2.9239631429318E-18
(PID.TID 0000.0001) %MON dynstat_wvel_sd              =   5.1844201590354E-02
(PID.TID 0000.0001) %MON dynstat_wvel_del2            =   1.6735908586494E-03
(PID.TID 0000.0001) %MON dynstat_theta_max            =   4.1955348096026E+02
(PID.TID 0000.0001) %MON dynstat_theta_min            =   2.5503646775353E+02
(PID.TID 0000.0001) %MON dynstat_theta_mean           =   3.1869076282457E+02
(PID.TID 0000.0001) %MON dynstat_theta_sd             =   4.5634438532813E+01
(PID.TID 0000.0001) %MON dynstat_theta_del2           =   4.2535901295080E-02
(PID.TID 0000.0001) %MON dynstat_salt_max             =   0.0000000000000E+00
(PID.TID 0000.0001) %MON dynstat_salt_min             =   0.0000000000000E+00
(PID.TID 0000.0001) %MON dynstat_salt_mean            =   0.0000000000000E+00
(PID.TID 0000.0001) %MON dynstat_salt_sd              =   0.0000000000000E+00
(PID.TID 0000.0001) %MON dynstat_salt_del2            =   0.0000000000000E+00
(PID.TID 0000.0001) %MON advcfl_uvel_max              =   4.1465234703631E-21
(PID.TID 0000.0001) %MON advcfl_vvel_max              =   2.0235036780437E-02
(PID.TID 0000.0001) %MON advcfl_wvel_max              =   2.8671858554189E-02
(PID.TID 0000.0001) %MON advcfl_W_hf_max              =   2.8482436498481E-02
(PID.TID 0000.0001) %MON pe_b_mean                    =   2.9292413715457E-02
(PID.TID 0000.0001) %MON ke_max                       =   1.3026550730237E+01
(PID.TID 0000.0001) %MON ke_mean                      =   1.8764143657802E+00
(PID.TID 0000.0001) %MON ke_vol                       =   1.7486817826145E+22
(PID.TID 0000.0001) %MON vort_r_min                   =  -1.7708487565846E-25
(PID.TID 0000.0001) %MON vort_r_max                   =   1.7708487565846E-25
(PID.TID 0000.0001) %MON vort_a_mean                  =  -5.9705800281861E-22
(PID.TID 0000.0001) %MON vort_a_sd                    =   8.3955319514376E-05
(PID.TID 0000.0001) %MON vort_p_mean                  =  -5.9705800281861E-22
(PID.TID 0000.0001) %MON vort_p_sd                    =   8.3955319514376E-05
(PID.TID 0000.0001) %MON surfExpan_theta_mean         =  -1.1110637280653E+00
(PID.TID 0000.0001) %MON surfExpan_salt_mean          =   0.0000000000000E+00
(PID.TID 0000.0001) %MON surfExpan_Heat_mean          =  -1.1205699992240E+02
(PID.TID 0000.0001) %MON En_Budget_T2PE_mean          =   3.0624063315804E+01
(PID.TID 0000.0001) // =======================================================
(PID.TID 0000.0001) // End MONITOR dynamic field statistics
(PID.TID 0000.0001) // =======================================================
 cg2d: Sum(rhs),rhsMax =  -2.79637424327461E-15  1.89073450912125E+02
(PID.TID 0000.0001)                    cg2d_init_res =    2.90222878854398E+00
(PID.TID 0000.0001)                       cg2d_iters =    18
(PID.TID 0000.0001)                         cg2d_res =    5.23856448742390E-14
(PID.TID 0000.0001) // =======================================================
(PID.TID 0000.0001) // Begin MONITOR dynamic field statistics
(PID.TID 0000.0001) // =======================================================
(PID.TID 0000.0001) %MON time_tsnumber                =                     2
(PID.TID 0000.0001) %MON time_secondsf                =   2.4000000000000E+03
(PID.TID 0000.0001) %MON dynstat_eta_max              =   4.2435855957019E+02
(PID.TID 0000.0001) %MON dynstat_eta_min              =  -2.7278743290318E+02
(PID.TID 0000.0001) %MON dynstat_eta_mean             =  -2.3348403583730E-14
(PID.TID 0000.0001) %MON dynstat_eta_sd               =   2.2413791082960E+02
(PID.TID 0000.0001) %MON dynstat_eta_del2             =   2.1382733009226E+00
(PID.TID 0000.0001) %MON dynstat_uvel_max             =   8.7088558281342E-01
(PID.TID 0000.0001) %MON dynstat_uvel_min             =   3.8323449779831E-05
(PID.TID 0000.0001) %MON dynstat_uvel_mean            =   2.3378367735522E-01
(PID.TID 0000.0001) %MON dynstat_uvel_sd              =   2.2937814115184E-01
(PID.TID 0000.0001) %MON dynstat_uvel_del2            =   2.4522379317612E-03
(PID.TID 0000.0001) %MON dynstat_vvel_max             =   1.0228690360855E+01
(PID.TID 0000.0001) %MON dynstat_vvel_min             =  -1.0228690360855E+01
(PID.TID 0000.0001) %MON dynstat_vvel_mean            =   6.6923123224675E-18
(PID.TID 0000.0001) %MON dynstat_vvel_sd              =   3.8107082466146E+00
(PID.TID 0000.0001) %MON dynstat_vvel_del2            =   2.5136745796980E-02
(PID.TID 0000.0001) %MON dynstat_wvel_max             =   2.3416605566669E-01
(PID.TID 0000.0001) %MON dynstat_wvel_min             =  -1.5028898017623E-01
(PID.TID 0000.0001) %MON dynstat_wvel_mean            =   2.6707376474681E-19
(PID.TID 0000.0001) %MON dynstat_wvel_sd              =   9.9653310448415E-02
(PID.TID 0000.0001) %MON dynstat_wvel_del2            =   1.8870496822733E-03
(PID.TID 0000.0001) %MON dynstat_theta_max            =   4.2021985667295E+02
(PID.TID 0000.0001) %MON dynstat_theta_min            =   2.5503651425748E+02
(PID.TID 0000.0001) %MON dynstat_theta_mean           =   3.1872449316163E+02
(PID.TID 0000.0001) %MON dynstat_theta_sd             =   4.5614069681466E+01
(PID.TID 0000.0001) %MON dynstat_theta_del2           =   4.3855134541027E-02
(PID.TID 0000.0001) %MON dynstat_salt_max             =   0.0000000000000E+00
(PID.TID 0000.0001) %MON dynstat_salt_min             =   0.0000000000000E+00
(PID.TID 0000.0001) %MON dynstat_salt_mean            =   0.0000000000000E+00
(PID.TID 0000.0001) %MON dynstat_salt_sd              =   0.0000000000000E+00
(PID.TID 0000.0001) %MON dynstat_salt_del2            =   0.0000000000000E+00
(PID.TID 0000.0001) %MON advcfl_uvel_max              =   3.0856231979444E-07
(PID.TID 0000.0001) %MON advcfl_vvel_max              =   3.9254725701601E-02
(PID.TID 0000.0001) %MON advcfl_wvel_max              =   5.6199853360004E-02
(PID.TID 0000.0001) %MON advcfl_W_hf_max              =   5.5934455812899E-02
(PID.TID 0000.0001) %MON pe_b_mean                    =   2.5118901535530E-01
(PID.TID 0000.0001) %MON ke_max                       =   8.3726296507289E+03
(PID.TID 0000.0001) %MON ke_mean                      =   7.3129306257776E+00
(PID.TID 0000.0001) %MON ke_vol                       =   1.7486817826145E+22
(PID.TID 0000.0001) %MON vort_r_min                   =  -5.3346897606036E-07
(PID.TID 0000.0001) %MON vort_r_max                   =   5.3346897606036E-07
(PID.TID 0000.0001) %MON vort_a_mean                  =  -2.9888652117147E-21
(PID.TID 0000.0001) %MON vort_a_sd                    =   8.3999651160426E-05
(PID.TID 0000.0001) %MON vort_p_mean                  =  -2.9888652117147E-21
(PID.TID 0000.0001) %MON vort_p_sd                    =   8.3999651160426E-05
(PID.TID 0000.0001) %MON surfExpan_theta_mean         =  -2.1724094440637E+00
(PID.TID 0000.0001) %MON surfExpan_salt_mean          =   0.0000000000000E+00
(PID.TID 0000.0001) %MON surfExpan_Heat_mean          =  -2.1909965986269E+02
(PID.TID 0000.0001) %MON En_Budget_T2PE_mean          =   5.9772680990980E+01
(PID.TID 0000.0001) // =======================================================
(PID.TID 0000.0001) // End MONITOR dynamic field statistics
(PID.TID 0000.0001) // =======================================================
 cg2d: Sum(rhs),rhsMax =   1.17961196366423E-16  3.69983935898357E+02
(PID.TID 0000.0001)                    cg2d_init_res =    2.11083795173057E+00
(PID.TID 0000.0001)                       cg2d_iters =    18
(PID.TID 0000.0001)                         cg2d_res =    3.26502287003068E-14
(PID.TID 0000.0001) // =======================================================
(PID.TID 0000.0001) // Begin MONITOR dynamic field statistics
(PID.TID 0000.0001) // =======================================================
(PID.TID 0000.0001) %MON time_tsnumber                =                     3
(PID.TID 0000.0001) %MON time_secondsf                =   3.6000000000000E+03
(PID.TID 0000.0001) %MON dynstat_eta_max              =   8.2446269050927E+02
(PID.TID 0000.0001) %MON dynstat_eta_min              =  -5.3368676356691E+02
(PID.TID 0000.0001) %MON dynstat_eta_mean             =   3.6203142635446E-14
(PID.TID 0000.0001) %MON dynstat_eta_sd               =   4.3546358282385E+02
(PID.TID 0000.0001) %MON dynstat_eta_del2             =   2.5720264931476E+00
(PID.TID 0000.0001) %MON dynstat_uvel_max             =   2.2294211938484E+00
(PID.TID 0000.0001) %MON dynstat_uvel_min             =  -1.8620007243444E-02
(PID.TID 0000.0001) %MON dynstat_uvel_mean            =   6.0431494901970E-01
(PID.TID 0000.0001) %MON dynstat_uvel_sd              =   5.9909593034511E-01
(PID.TID 0000.0001) %MON dynstat_uvel_del2            =   6.1771197040979E-03
(PID.TID 0000.0001) %MON dynstat_vvel_max             =   1.4565248770865E+01
(PID.TID 0000.0001) %MON dynstat_vvel_min             =  -1.4565248770865E+01
(PID.TID 0000.0001) %MON dynstat_vvel_mean            =   1.4008459447861E-16
(PID.TID 0000.0001) %MON dynstat_vvel_sd              =   5.5335225907548E+00
(PID.TID 0000.0001) %MON dynstat_vvel_del2            =   3.0427362760392E-02
(PID.TID 0000.0001) %MON dynstat_wvel_max             =   3.3342010911598E-01
(PID.TID 0000.0001) %MON dynstat_wvel_min             =  -2.1753228033553E-01
(PID.TID 0000.0001) %MON dynstat_wvel_mean            =  -5.7134002413985E-18
(PID.TID 0000.0001) %MON dynstat_wvel_sd              =   1.4266622028766E-01
(PID.TID 0000.0001) %MON dynstat_wvel_del2            =   1.9144045448793E-03
(PID.TID 0000.0001) %MON dynstat_theta_max            =   4.2091730514592E+02
(PID.TID 0000.0001) %MON dynstat_theta_min            =   2.5503657555975E+02
(PID.TID 0000.0001) %MON dynstat_theta_mean           =   3.1876890155150E+02
(PID.TID 0000.0001) %MON dynstat_theta_sd             =   4.5587071118476E+01
(PID.TID 0000.0001) %MON dynstat_theta_del2           =   4.5686616308810E-02
(PID.TID 0000.0001) %MON dynstat_salt_max             =   0.0000000000000E+00
(PID.TID 0000.0001) %MON dynstat_salt_min             =   0.0000000000000E+00
(PID.TID 0000.0001) %MON dynstat_salt_mean            =   0.0000000000000E+00
(PID.TID 0000.0001) %MON dynstat_salt_sd              =   0.0000000000000E+00
(PID.TID 0000.0001) %MON dynstat_salt_del2            =   0.0000000000000E+00
(PID.TID 0000.0001) %MON advcfl_uvel_max              =   8.1387042094874E-07
(PID.TID 0000.0001) %MON advcfl_vvel_max              =   5.5897170126881E-02
(PID.TID 0000.0001) %MON advcfl_wvel_max              =   8.0020826187836E-02
(PID.TID 0000.0001) %MON advcfl_W_hf_max              =   7.9835956234899E-02
(PID.TID 0000.0001) %MON pe_b_mean                    =   9.4814265982893E-01
(PID.TID 0000.0001) %MON ke_max                       =   5.4649248908455E+04
(PID.TID 0000.0001) %MON ke_mean                      =   1.5668954407314E+01
(PID.TID 0000.0001) %MON ke_vol                       =   1.7486817826145E+22
(PID.TID 0000.0001) %MON vort_r_min                   =  -1.3968674944388E-06
(PID.TID 0000.0001) %MON vort_r_max                   =   1.3968674944388E-06
(PID.TID 0000.0001) %MON vort_a_mean                  =  -4.0614244982152E-21
(PID.TID 0000.0001) %MON vort_a_sd                    =   8.4070201625725E-05
(PID.TID 0000.0001) %MON vort_p_mean                  =  -4.0614244982152E-21
(PID.TID 0000.0001) %MON vort_p_sd                    =   8.4070201625725E-05
(PID.TID 0000.0001) %MON surfExpan_theta_mean         =  -3.1263867648526E+00
(PID.TID 0000.0001) %MON surfExpan_salt_mean          =   0.0000000000000E+00
(PID.TID 0000.0001) %MON surfExpan_Heat_mean          =  -3.1531361578739E+02
(PID.TID 0000.0001) %MON En_Budget_T2PE_mean          =   8.5968275083967E+01
(PID.TID 0000.0001) // =======================================================
(PID.TID 0000.0001) // End MONITOR dynamic field statistics
(PID.TID 0000.0001) // =======================================================
 cg2d: Sum(rhs),rhsMax =   1.31838984174237E-16  6.00188020663829E+02
(PID.TID 0000.0001)                    cg2d_init_res =    1.63582203230154E+00
(PID.TID 0000.0001)                       cg2d_iters =    18
(PID.TID 0000.0001)                         cg2d_res =    1.85338783436457E-14
(PID.TID 0000.0001) // =======================================================
(PID.TID 0000.0001) // Begin MONITOR dynamic field statistics
(PID.TID 0000.0001) // =======================================================
(PID.TID 0000.0001) %MON time_tsnumber                =                     4
(PID.TID 0000.0001) %MON time_secondsf                =   4.8000000000000E+03
(PID.TID 0000.0001) %MON dynstat_eta_max              =   1.3212958932278E+03
(PID.TID 0000.0001) %MON dynstat_eta_min              =  -8.6541627901261E+02
(PID.TID 0000.0001) %MON dynstat_eta_mean             =  -7.4355108683981E-14
(PID.TID 0000.0001) %MON dynstat_eta_sd               =   7.0179727591241E+02
(PID.TID 0000.0001) %MON dynstat_eta_del2             =   3.1001780605700E+00
(PID.TID 0000.0001) %MON dynstat_uvel_max             =   4.0093965036708E+00
(PID.TID 0000.0001) %MON dynstat_uvel_min             =  -7.2580075435608E-02
(PID.TID 0000.0001) %MON dynstat_uvel_mean            =   1.0932711403466E+00
(PID.TID 0000.0001) %MON dynstat_uvel_sd              =   1.0964636715677E+00
(PID.TID 0000.0001) %MON dynstat_uvel_del2            =   1.0567456575626E-02
(PID.TID 0000.0001) %MON dynstat_vvel_max             =   1.8296281264820E+01
(PID.TID 0000.0001) %MON dynstat_vvel_min             =  -1.8296281264820E+01
(PID.TID 0000.0001) %MON dynstat_vvel_mean            =   1.0748702942431E-16
(PID.TID 0000.0001) %MON dynstat_vvel_sd              =   7.0706035622559E+00
(PID.TID 0000.0001) %MON dynstat_vvel_del2            =   3.3581003248337E-02
(PID.TID 0000.0001) %MON dynstat_wvel_max             =   4.1431821124612E-01
(PID.TID 0000.0001) %MON dynstat_wvel_min             =  -2.7771168429260E-01
(PID.TID 0000.0001) %MON dynstat_wvel_mean            =   9.8322711910494E-19
(PID.TID 0000.0001) %MON dynstat_wvel_sd              =   1.8057779145876E-01
(PID.TID 0000.0001) %MON dynstat_wvel_del2            =   1.7880812095525E-03
(PID.TID 0000.0001) %MON dynstat_theta_max            =   4.2160298209269E+02
(PID.TID 0000.0001) %MON dynstat_theta_min            =   2.5503670912312E+02
(PID.TID 0000.0001) %MON dynstat_theta_mean           =   3.1882219264469E+02
(PID.TID 0000.0001) %MON dynstat_theta_sd             =   4.5554485156541E+01
(PID.TID 0000.0001) %MON dynstat_theta_del2           =   4.6837025458931E-02
(PID.TID 0000.0001) %MON dynstat_salt_max             =   0.0000000000000E+00
(PID.TID 0000.0001) %MON dynstat_salt_min             =   0.0000000000000E+00
(PID.TID 0000.0001) %MON dynstat_salt_mean            =   0.0000000000000E+00
(PID.TID 0000.0001) %MON dynstat_salt_sd              =   0.0000000000000E+00
(PID.TID 0000.0001) %MON dynstat_salt_del2            =   0.0000000000000E+00
(PID.TID 0000.0001) %MON advcfl_uvel_max              =   1.4927750445495E-06
(PID.TID 0000.0001) %MON advcfl_vvel_max              =   7.0215782966553E-02
(PID.TID 0000.0001) %MON advcfl_wvel_max              =   9.9366640543704E-02
(PID.TID 0000.0001) %MON advcfl_W_hf_max              =   9.9436370699068E-02
(PID.TID 0000.0001) %MON pe_b_mean                    =   2.4625970823904E+00
(PID.TID 0000.0001) %MON ke_max                       =   1.7658678130333E+05
(PID.TID 0000.0001) %MON ke_mean                      =   2.6190555429399E+01
(PID.TID 0000.0001) %MON ke_vol                       =   1.7486817826145E+22
(PID.TID 0000.0001) %MON vort_r_min                   =  -2.5431342586067E-06
(PID.TID 0000.0001) %MON vort_r_max                   =   2.5431342586067E-06
(PID.TID 0000.0001) %MON vort_a_mean                  =   2.0843402134326E-21
(PID.TID 0000.0001) %MON vort_a_sd                    =   8.4164030946066E-05
(PID.TID 0000.0001) %MON vort_p_mean                  =   2.0843402134326E-21
(PID.TID 0000.0001) %MON vort_p_sd                    =   8.4164030946066E-05
(PID.TID 0000.0001) %MON surfExpan_theta_mean         =  -3.9465802505614E+00
(PID.TID 0000.0001) %MON surfExpan_salt_mean          =   0.0000000000000E+00
(PID.TID 0000.0001) %MON surfExpan_Heat_mean          =  -3.9803472263557E+02
(PID.TID 0000.0001) %MON En_Budget_T2PE_mean          =   1.0858603749993E+02
(PID.TID 0000.0001) // =======================================================
(PID.TID 0000.0001) // End MONITOR dynamic field statistics
(PID.TID 0000.0001) // =======================================================
 cg2d: Sum(rhs),rhsMax =   1.99840144432528E-15  8.71578060598595E+02
(PID.TID 0000.0001)                    cg2d_init_res =    1.31214041120068E+00
(PID.TID 0000.0001)                       cg2d_iters =    17
(PID.TID 0000.0001)                         cg2d_res =    6.51593822649009E-14
(PID.TID 0000.0001) // =======================================================
(PID.TID 0000.0001) // Begin MONITOR dynamic field statistics
(PID.TID 0000.0001) // =======================================================
(PID.TID 0000.0001) %MON time_tsnumber                =                     5
(PID.TID 0000.0001) %MON time_secondsf                =   6.0000000000000E+03
(PID.TID 0000.0001) %MON dynstat_eta_max              =   1.8889461099978E+03
(PID.TID 0000.0001) %MON dynstat_eta_min              =  -1.2560243582805E+03
(PID.TID 0000.0001) %MON dynstat_eta_mean             =  -1.5815451544677E-13
(PID.TID 0000.0001) %MON dynstat_eta_sd               =   1.0127024745569E+03
(PID.TID 0000.0001) %MON dynstat_eta_del2             =   3.6962975076804E+00
(PID.TID 0000.0001) %MON dynstat_uvel_max             =   6.1544675364993E+00
(PID.TID 0000.0001) %MON dynstat_uvel_min             =  -1.8651685946414E-01
(PID.TID 0000.0001) %MON dynstat_uvel_mean            =   1.6817325468336E+00
(PID.TID 0000.0001) %MON dynstat_uvel_sd              =   1.7094970697736E+00
(PID.TID 0000.0001) %MON dynstat_uvel_del2            =   1.5548510427295E-02
(PID.TID 0000.0001) %MON dynstat_vvel_max             =   2.1567476136927E+01
(PID.TID 0000.0001) %MON dynstat_vvel_min             =  -2.1567476136927E+01
(PID.TID 0000.0001) %MON dynstat_vvel_mean            =   1.6963620556557E-16
(PID.TID 0000.0001) %MON dynstat_vvel_sd              =   8.3873313549975E+00
(PID.TID 0000.0001) %MON dynstat_vvel_del2            =   3.5366776890108E-02
(PID.TID 0000.0001) %MON dynstat_wvel_max             =   4.7510456041844E-01
(PID.TID 0000.0001) %MON dynstat_wvel_min             =  -3.2874760551612E-01
(PID.TID 0000.0001) %MON dynstat_wvel_mean            =  -8.4217260483495E-18
(PID.TID 0000.0001) %MON dynstat_wvel_sd              =   2.1261941436713E-01
(PID.TID 0000.0001) %MON dynstat_wvel_del2            =   1.6156822730234E-03
(PID.TID 0000.0001) %MON dynstat_theta_max            =   4.2224749969091E+02
(PID.TID 0000.0001) %MON dynstat_theta_min            =   2.5503701842097E+02
(PID.TID 0000.0001) %MON dynstat_theta_mean           =   3.1888226727957E+02
(PID.TID 0000.0001) %MON dynstat_theta_sd             =   4.5517529329662E+01
(PID.TID 0000.0001) %MON dynstat_theta_del2           =   4.7263987749552E-02
(PID.TID 0000.0001) %MON dynstat_salt_max             =   0.0000000000000E+00
(PID.TID 0000.0001) %MON dynstat_salt_min             =   0.0000000000000E+00
(PID.TID 0000.0001) %MON dynstat_salt_mean            =   0.0000000000000E+00
(PID.TID 0000.0001) %MON dynstat_salt_sd              =   0.0000000000000E+00
(PID.TID 0000.0001) %MON dynstat_salt_del2            =   0.0000000000000E+00
(PID.TID 0000.0001) %MON advcfl_uvel_max              =   2.3232540497295E-06
(PID.TID 0000.0001) %MON advcfl_vvel_max              =   8.2769673336769E-02
(PID.TID 0000.0001) %MON advcfl_wvel_max              =   1.1353004335359E-01
(PID.TID 0000.0001) %MON advcfl_W_hf_max              =   1.1402509450043E-01
(PID.TID 0000.0001) %MON pe_b_mean                    =   5.1278315098680E+00
(PID.TID 0000.0001) %MON ke_max                       =   4.1593071786180E+05
(PID.TID 0000.0001) %MON ke_mean                      =   3.8042191550353E+01
(PID.TID 0000.0001) %MON ke_vol                       =   1.7486817826145E+22
(PID.TID 0000.0001) %MON vort_r_min                   =  -3.9286636542907E-06
(PID.TID 0000.0001) %MON vort_r_max                   =   3.9286636542907E-06
(PID.TID 0000.0001) %MON vort_a_mean                  =  -7.1503952433366E-24
(PID.TID 0000.0001) %MON vort_a_sd                    =   8.4278063471349E-05
(PID.TID 0000.0001) %MON vort_p_mean                  =  -7.1503952433366E-24
(PID.TID 0000.0001) %MON vort_p_sd                    =   8.4278063471349E-05
(PID.TID 0000.0001) %MON surfExpan_theta_mean         =  -4.6074907275573E+00
(PID.TID 0000.0001) %MON surfExpan_salt_mean          =   0.0000000000000E+00
(PID.TID 0000.0001) %MON surfExpan_Heat_mean          =  -4.6469124592826E+02
(PID.TID 0000.0001) %MON En_Budget_T2PE_mean          =   1.2705883917168E+02
(PID.TID 0000.0001) // =======================================================
(PID.TID 0000.0001) // End MONITOR dynamic field statistics
(PID.TID 0000.0001) // =======================================================
 cg2d: Sum(rhs),rhsMax =   4.23272528138341E-16  1.17463757356038E+03
(PID.TID 0000.0001)                    cg2d_init_res =    1.07483847020261E+00
(PID.TID 0000.0001)                       cg2d_iters =    17
(PID.TID 0000.0001)                         cg2d_res =    4.83610501968969E-14
(PID.TID 0000.0001) // =======================================================
(PID.TID 0000.0001) // Begin MONITOR dynamic field statistics
(PID.TID 0000.0001) // =======================================================
(PID.TID 0000.0001) %MON time_tsnumber                =                     6
(PID.TID 0000.0001) %MON time_secondsf                =   7.2000000000000E+03
(PID.TID 0000.0001) %MON dynstat_eta_max              =   2.4997129949851E+03
(PID.TID 0000.0001) %MON dynstat_eta_min              =  -1.6915056490546E+03
(PID.TID 0000.0001) %MON dynstat_eta_mean             =  -5.3367779619954E-14
(PID.TID 0000.0001) %MON dynstat_eta_sd               =   1.3563938337781E+03
(PID.TID 0000.0001) %MON dynstat_eta_del2             =   4.2695689317081E+00
(PID.TID 0000.0001) %MON dynstat_uvel_max             =   8.6004656508273E+00
(PID.TID 0000.0001) %MON dynstat_uvel_min             =  -3.6890561832052E-01
(PID.TID 0000.0001) %MON dynstat_uvel_mean            =   2.3473616134855E+00
(PID.TID 0000.0001) %MON dynstat_uvel_sd              =   2.4231951355489E+00
(PID.TID 0000.0001) %MON dynstat_uvel_del2            =   2.0771176437385E-02
(PID.TID 0000.0001) %MON dynstat_vvel_max             =   2.4351166815467E+01
(PID.TID 0000.0001) %MON dynstat_vvel_min             =  -2.4351166815467E+01
(PID.TID 0000.0001) %MON dynstat_vvel_mean            =  -3.9603259179171E-16
(PID.TID 0000.0001) %MON dynstat_vvel_sd              =   9.4576609186131E+00
(PID.TID 0000.0001) %MON dynstat_vvel_del2            =   3.6061307552344E-02
(PID.TID 0000.0001) %MON dynstat_wvel_max             =   5.1339149726902E-01
(PID.TID 0000.0001) %MON dynstat_wvel_min             =  -3.6907331893205E-01
(PID.TID 0000.0001) %MON dynstat_wvel_mean            =  -7.4721304403608E-18
(PID.TID 0000.0001) %MON dynstat_wvel_sd              =   2.3810217514813E-01
(PID.TID 0000.0001) %MON dynstat_wvel_del2            =   1.4839443076133E-03
(PID.TID 0000.0001) %MON dynstat_theta_max            =   4.2283844408209E+02
(PID.TID 0000.0001) %MON dynstat_theta_min            =   2.5503763345904E+02
(PID.TID 0000.0001) %MON dynstat_theta_mean           =   3.1894682996892E+02
(PID.TID 0000.0001) %MON dynstat_theta_sd             =   4.5477571673036E+01
(PID.TID 0000.0001) %MON dynstat_theta_del2           =   4.7260283578050E-02
(PID.TID 0000.0001) %MON dynstat_salt_max             =   0.0000000000000E+00
(PID.TID 0000.0001) %MON dynstat_salt_min             =   0.0000000000000E+00
(PID.TID 0000.0001) %MON dynstat_salt_mean            =   0.0000000000000E+00
(PID.TID 0000.0001) %MON dynstat_salt_sd              =   0.0000000000000E+00
(PID.TID 0000.0001) %MON dynstat_salt_del2            =   0.0000000000000E+00
(PID.TID 0000.0001) %MON advcfl_uvel_max              =   3.2763633564948E-06
(PID.TID 0000.0001) %MON advcfl_vvel_max              =   9.3452665016952E-02
(PID.TID 0000.0001) %MON advcfl_wvel_max              =   1.2215337699723E-01
(PID.TID 0000.0001) %MON advcfl_W_hf_max              =   1.2321395934456E-01
(PID.TID 0000.0001) %MON pe_b_mean                    =   9.1990211615558E+00
(PID.TID 0000.0001) %MON ke_max                       =   8.1208791301613E+05
(PID.TID 0000.0001) %MON ke_mean                      =   5.0406256271293E+01
(PID.TID 0000.0001) %MON ke_vol                       =   1.7486817826145E+22
(PID.TID 0000.0001) %MON vort_r_min                   =  -5.4998047442429E-06
(PID.TID 0000.0001) %MON vort_r_max                   =   5.4998047442429E-06
(PID.TID 0000.0001) %MON vort_a_mean                  =  -9.7960414833712E-22
(PID.TID 0000.0001) %MON vort_a_sd                    =   8.4408568786663E-05
(PID.TID 0000.0001) %MON vort_p_mean                  =  -9.7960414833712E-22
(PID.TID 0000.0001) %MON vort_p_sd                    =   8.4408568786663E-05
(PID.TID 0000.0001) %MON surfExpan_theta_mean         =  -5.0893887359384E+00
(PID.TID 0000.0001) %MON surfExpan_salt_mean          =   0.0000000000000E+00
(PID.TID 0000.0001) %MON surfExpan_Heat_mean          =  -5.1329335913178E+02
(PID.TID 0000.0001) %MON En_Budget_T2PE_mean          =   1.4099762478540E+02
(PID.TID 0000.0001) // =======================================================
(PID.TID 0000.0001) // End MONITOR dynamic field statistics
(PID.TID 0000.0001) // =======================================================
 cg2d: Sum(rhs),rhsMax =   4.01761957036229E-15  1.49858166121229E+03
(PID.TID 0000.0001)                    cg2d_init_res =    8.91221138522251E-01
(PID.TID 0000.0001)                       cg2d_iters =    17
(PID.TID 0000.0001)                         cg2d_res =    3.35294514283187E-14
(PID.TID 0000.0001) // =======================================================
(PID.TID 0000.0001) // Begin MONITOR dynamic field statistics
(PID.TID 0000.0001) // =======================================================
(PID.TID 0000.0001) %MON time_tsnumber                =                     7
(PID.TID 0000.0001) %MON time_secondsf                =   8.4000000000000E+03
(PID.TID 0000.0001) %MON dynstat_eta_max              =   3.1262331261825E+03
(PID.TID 0000.0001) %MON dynstat_eta_min              =  -2.1561100329878E+03
(PID.TID 0000.0001) %MON dynstat_eta_mean             =  -1.9548197928208E-13
(PID.TID 0000.0001) %MON dynstat_eta_sd               =   1.7201580001783E+03
(PID.TID 0000.0001) %MON dynstat_eta_del2             =   5.1193899036756E+00
(PID.TID 0000.0001) %MON dynstat_uvel_max             =   1.1278497127401E+01
(PID.TID 0000.0001) %MON dynstat_uvel_min             =  -6.3493936785757E-01
(PID.TID 0000.0001) %MON dynstat_uvel_mean            =   3.0654510091164E+00
(PID.TID 0000.0001) %MON dynstat_uvel_sd              =   3.2201768876022E+00
(PID.TID 0000.0001) %MON dynstat_uvel_del2            =   2.6015449334423E-02
(PID.TID 0000.0001) %MON dynstat_vvel_max             =   2.6475554239387E+01
(PID.TID 0000.0001) %MON dynstat_vvel_min             =  -2.6475554239387E+01
(PID.TID 0000.0001) %MON dynstat_vvel_mean            =  -4.7593030739649E-17
(PID.TID 0000.0001) %MON dynstat_vvel_sd              =   1.0265791134928E+01
(PID.TID 0000.0001) %MON dynstat_vvel_del2            =   3.6542572871479E-02
(PID.TID 0000.0001) %MON dynstat_wvel_max             =   5.2921781495402E-01
(PID.TID 0000.0001) %MON dynstat_wvel_min             =  -3.9736250589744E-01
(PID.TID 0000.0001) %MON dynstat_wvel_mean            =   2.4095988552712E-18
(PID.TID 0000.0001) %MON dynstat_wvel_sd              =   2.5652801999830E-01
(PID.TID 0000.0001) %MON dynstat_wvel_del2            =   1.4149623501790E-03
(PID.TID 0000.0001) %MON dynstat_theta_max            =   4.2350902294240E+02
(PID.TID 0000.0001) %MON dynstat_theta_min            =   2.5503866893321E+02
(PID.TID 0000.0001) %MON dynstat_theta_mean           =   3.1901347444531E+02
(PID.TID 0000.0001) %MON dynstat_theta_sd             =   4.5436085323222E+01
(PID.TID 0000.0001) %MON dynstat_theta_del2           =   4.7000358245314E-02
(PID.TID 0000.0001) %MON dynstat_salt_max             =   0.0000000000000E+00
(PID.TID 0000.0001) %MON dynstat_salt_min             =   0.0000000000000E+00
(PID.TID 0000.0001) %MON dynstat_salt_mean            =   0.0000000000000E+00
(PID.TID 0000.0001) %MON dynstat_salt_sd              =   0.0000000000000E+00
(PID.TID 0000.0001) %MON dynstat_salt_del2            =   0.0000000000000E+00
(PID.TID 0000.0001) %MON advcfl_uvel_max              =   4.3179208613609E-06
(PID.TID 0000.0001) %MON advcfl_vvel_max              =   1.0160544339502E-01
(PID.TID 0000.0001) %MON advcfl_wvel_max              =   1.2530402623939E-01
(PID.TID 0000.0001) %MON advcfl_W_hf_max              =   1.2701227558897E-01
(PID.TID 0000.0001) %MON pe_b_mean                    =   1.4794717727887E+01
(PID.TID 0000.0001) %MON ke_max                       =   1.3964166245194E+06
(PID.TID 0000.0001) %MON ke_mean                      =   6.2566909588427E+01
(PID.TID 0000.0001) %MON ke_vol                       =   1.7486817826145E+22
(PID.TID 0000.0001) %MON vort_r_min                   =  -7.1963785320961E-06
(PID.TID 0000.0001) %MON vort_r_max                   =   7.1963785320961E-06
(PID.TID 0000.0001) %MON vort_a_mean                  =   1.6803428821841E-21
(PID.TID 0000.0001) %MON vort_a_sd                    =   8.4551287839998E-05
(PID.TID 0000.0001) %MON vort_p_mean                  =   1.6803428821841E-21
(PID.TID 0000.0001) %MON vort_p_sd                    =   8.4551287839998E-05
(PID.TID 0000.0001) %MON surfExpan_theta_mean         =  -5.3791284946584E+00
(PID.TID 0000.0001) %MON surfExpan_salt_mean          =   0.0000000000000E+00
(PID.TID 0000.0001) %MON surfExpan_Heat_mean          =  -5.4251523659955E+02
(PID.TID 0000.0001) %MON En_Budget_T2PE_mean          =   1.5020526688926E+02
(PID.TID 0000.0001) // =======================================================
(PID.TID 0000.0001) // End MONITOR dynamic field statistics
(PID.TID 0000.0001) // =======================================================
 cg2d: Sum(rhs),rhsMax =   1.40165656858926E-15  1.83164888966199E+03
(PID.TID 0000.0001)                    cg2d_init_res =    7.43136323370933E-01
(PID.TID 0000.0001)                       cg2d_iters =    17
(PID.TID 0000.0001)                         cg2d_res =    1.98926861999587E-14
(PID.TID 0000.0001) // =======================================================
(PID.TID 0000.0001) // Begin MONITOR dynamic field statistics
(PID.TID 0000.0001) // =======================================================
(PID.TID 0000.0001) %MON time_tsnumber                =                     8
(PID.TID 0000.0001) %MON time_secondsf                =   9.6000000000000E+03
(PID.TID 0000.0001) %MON dynstat_eta_max              =   3.7434381972056E+03
(PID.TID 0000.0001) %MON dynstat_eta_min              =  -2.6328837630490E+03
(PID.TID 0000.0001) %MON dynstat_eta_mean             =  -3.4509165360993E-13
(PID.TID 0000.0001) %MON dynstat_eta_sd               =   2.0907968027802E+03
(PID.TID 0000.0001) %MON dynstat_eta_del2             =   5.9697931946402E+00
(PID.TID 0000.0001) %MON dynstat_uvel_max             =   1.4117347579118E+01
(PID.TID 0000.0001) %MON dynstat_uvel_min             =  -1.0001353721130E+00
(PID.TID 0000.0001) %MON dynstat_uvel_mean            =   3.8097546085171E+00
(PID.TID 0000.0001) %MON dynstat_uvel_sd              =   4.0811548992209E+00
(PID.TID 0000.0001) %MON dynstat_uvel_del2            =   3.1303929633720E-02
(PID.TID 0000.0001) %MON dynstat_vvel_max             =   2.7915329833997E+01
(PID.TID 0000.0001) %MON dynstat_vvel_min             =  -2.7915329833997E+01
(PID.TID 0000.0001) %MON dynstat_vvel_mean            =   6.9673268200954E-16
(PID.TID 0000.0001) %MON dynstat_vvel_sd              =   1.0807280325602E+01
(PID.TID 0000.0001) %MON dynstat_vvel_del2            =   3.6944890759646E-02
(PID.TID 0000.0001) %MON dynstat_wvel_max             =   5.2416931457890E-01
(PID.TID 0000.0001) %MON dynstat_wvel_min             =  -4.1270451746093E-01
(PID.TID 0000.0001) %MON dynstat_wvel_mean            =   1.4224150877997E-18
(PID.TID 0000.0001) %MON dynstat_wvel_sd              =   2.6764378851328E-01
(PID.TID 0000.0001) %MON dynstat_wvel_del2            =   1.3819845844969E-03
(PID.TID 0000.0001) %MON dynstat_theta_max            =   4.2420420404298E+02
(PID.TID 0000.0001) %MON dynstat_theta_min            =   2.5504018235290E+02
(PID.TID 0000.0001) %MON dynstat_theta_mean           =   3.1907976987405E+02
(PID.TID 0000.0001) %MON dynstat_theta_sd             =   4.5394599882079E+01
(PID.TID 0000.0001) %MON dynstat_theta_del2           =   4.7163748598054E-02
(PID.TID 0000.0001) %MON dynstat_salt_max             =   0.0000000000000E+00
(PID.TID 0000.0001) %MON dynstat_salt_min             =   0.0000000000000E+00
(PID.TID 0000.0001) %MON dynstat_salt_mean            =   0.0000000000000E+00
(PID.TID 0000.0001) %MON dynstat_salt_sd              =   0.0000000000000E+00
(PID.TID 0000.0001) %MON dynstat_salt_del2            =   0.0000000000000E+00
(PID.TID 0000.0001) %MON advcfl_uvel_max              =   5.4104065720041E-06
(PID.TID 0000.0001) %MON advcfl_vvel_max              =   1.0713088155420E-01
(PID.TID 0000.0001) %MON advcfl_wvel_max              =   1.2344101420448E-01
(PID.TID 0000.0001) %MON advcfl_W_hf_max              =   1.2580063549894E-01
(PID.TID 0000.0001) %MON pe_b_mean                    =   2.1857156352579E+01
(PID.TID 0000.0001) %MON ke_max                       =   2.1877091618484E+06
(PID.TID 0000.0001) %MON ke_mean                      =   7.3973519809093E+01
(PID.TID 0000.0001) %MON ke_vol                       =   1.7486817826145E+22
(PID.TID 0000.0001) %MON vort_r_min                   =  -8.9550138090387E-06
(PID.TID 0000.0001) %MON vort_r_max                   =   8.9550138090387E-06
(PID.TID 0000.0001) %MON vort_a_mean                  =  -1.2191423889889E-21
(PID.TID 0000.0001) %MON vort_a_sd                    =   8.4701529090206E-05
(PID.TID 0000.0001) %MON vort_p_mean                  =  -1.2191423889889E-21
(PID.TID 0000.0001) %MON vort_p_sd                    =   8.4701529090206E-05
(PID.TID 0000.0001) %MON surfExpan_theta_mean         =  -5.4704816170604E+00
(PID.TID 0000.0001) %MON surfExpan_salt_mean          =   0.0000000000000E+00
(PID.TID 0000.0001) %MON surfExpan_Heat_mean          =  -5.5172871065269E+02
(PID.TID 0000.0001) %MON En_Budget_T2PE_mean          =   1.5467269624306E+02
(PID.TID 0000.0001) // =======================================================
(PID.TID 0000.0001) // End MONITOR dynamic field statistics
(PID.TID 0000.0001) // =======================================================
 cg2d: Sum(rhs),rhsMax =  -6.17561557447743E-16  2.16161545389008E+03
(PID.TID 0000.0001)                    cg2d_init_res =    6.19717358558224E-01
(PID.TID 0000.0001)                       cg2d_iters =    17
(PID.TID 0000.0001)                         cg2d_res =    1.77763683487231E-14
(PID.TID 0000.0001) // =======================================================
(PID.TID 0000.0001) // Begin MONITOR dynamic field statistics
(PID.TID 0000.0001) // =======================================================
(PID.TID 0000.0001) %MON time_tsnumber                =                     9
(PID.TID 0000.0001) %MON time_secondsf                =   1.0800000000000E+04
(PID.TID 0000.0001) %MON dynstat_eta_max              =   4.3297961162489E+03
(PID.TID 0000.0001) %MON dynstat_eta_min              =  -3.1044711488385E+03
(PID.TID 0000.0001) %MON dynstat_eta_mean             =  -4.8840512921857E-13
(PID.TID 0000.0001) %MON dynstat_eta_sd               =   2.4550950292401E+03
(PID.TID 0000.0001) %MON dynstat_eta_del2             =   6.8144290868115E+00
(PID.TID 0000.0001) %MON dynstat_uvel_max             =   1.7045336931581E+01
(PID.TID 0000.0001) %MON dynstat_uvel_min             =  -1.4793090106789E+00
(PID.TID 0000.0001) %MON dynstat_uvel_mean            =   4.5533553494340E+00
(PID.TID 0000.0001) %MON dynstat_uvel_sd              =   4.9855339164073E+00
(PID.TID 0000.0001) %MON dynstat_uvel_del2            =   3.6655399190346E-02
(PID.TID 0000.0001) %MON dynstat_vvel_max             =   2.8780894232189E+01
(PID.TID 0000.0001) %MON dynstat_vvel_min             =  -2.8780894232189E+01
(PID.TID 0000.0001) %MON dynstat_vvel_mean            =  -3.6399149909683E-16
(PID.TID 0000.0001) %MON dynstat_vvel_sd              =   1.1089991392291E+01
(PID.TID 0000.0001) %MON dynstat_vvel_del2            =   3.7449851579384E-02
(PID.TID 0000.0001) %MON dynstat_wvel_max             =   5.0136018095969E-01
(PID.TID 0000.0001) %MON dynstat_wvel_min             =  -4.2656620885839E-01
(PID.TID 0000.0001) %MON dynstat_wvel_mean            =   3.1803539570887E-17
(PID.TID 0000.0001) %MON dynstat_wvel_sd              =   2.7148172005687E-01
(PID.TID 0000.0001) %MON dynstat_wvel_del2            =   1.3678673249355E-03
(PID.TID 0000.0001) %MON dynstat_theta_max            =   4.2484926064054E+02
(PID.TID 0000.0001) %MON dynstat_theta_min            =   2.5504214739767E+02
(PID.TID 0000.0001) %MON dynstat_theta_mean           =   3.1914334697923E+02
(PID.TID 0000.0001) %MON dynstat_theta_sd             =   4.5354647131659E+01
(PID.TID 0000.0001) %MON dynstat_theta_del2           =   4.7210106506843E-02
(PID.TID 0000.0001) %MON dynstat_salt_max             =   0.0000000000000E+00
(PID.TID 0000.0001) %MON dynstat_salt_min             =   0.0000000000000E+00
(PID.TID 0000.0001) %MON dynstat_salt_mean            =   0.0000000000000E+00
(PID.TID 0000.0001) %MON dynstat_salt_sd              =   0.0000000000000E+00
(PID.TID 0000.0001) %MON dynstat_salt_del2            =   0.0000000000000E+00
(PID.TID 0000.0001) %MON advcfl_uvel_max              =   6.5150793786695E-06
(PID.TID 0000.0001) %MON advcfl_vvel_max              =   1.1045266487439E-01
(PID.TID 0000.0001) %MON advcfl_wvel_max              =   1.1781822382362E-01
(PID.TID 0000.0001) %MON advcfl_W_hf_max              =   1.2032644343033E-01
(PID.TID 0000.0001) %MON pe_b_mean                    =   3.0137458012998E+01
(PID.TID 0000.0001) %MON ke_max                       =   3.1891515209613E+06
(PID.TID 0000.0001) %MON ke_mean                      =   8.4278191571174E+01
(PID.TID 0000.0001) %MON ke_vol                       =   1.7486817826145E+22
(PID.TID 0000.0001) %MON vort_r_min                   =  -1.0712196126990E-05
(PID.TID 0000.0001) %MON vort_r_max                   =   1.0712196126990E-05
(PID.TID 0000.0001) %MON vort_a_mean                  =   7.1503952433366E-21
(PID.TID 0000.0001) %MON vort_a_sd                    =   8.4854285774402E-05
(PID.TID 0000.0001) %MON vort_p_mean                  =   7.1503952433366E-21
(PID.TID 0000.0001) %MON vort_p_sd                    =   8.4854285774402E-05
(PID.TID 0000.0001) %MON surfExpan_theta_mean         =  -5.3642563088014E+00
(PID.TID 0000.0001) %MON surfExpan_salt_mean          =   0.0000000000000E+00
(PID.TID 0000.0001) %MON surfExpan_Heat_mean          =  -5.4101529335838E+02
(PID.TID 0000.0001) %MON En_Budget_T2PE_mean          =   1.5456344199513E+02
(PID.TID 0000.0001) // =======================================================
(PID.TID 0000.0001) // End MONITOR dynamic field statistics
(PID.TID 0000.0001) // =======================================================
 cg2d: Sum(rhs),rhsMax =   8.90953977261688E-15  2.47650463597213E+03
(PID.TID 0000.0001)                    cg2d_init_res =    5.13984208912953E-01
(PID.TID 0000.0001)                       cg2d_iters =    17
(PID.TID 0000.0001)                         cg2d_res =    1.79148337869648E-14
(PID.TID 0000.0001) // =======================================================
(PID.TID 0000.0001) // Begin MONITOR dynamic field statistics
(PID.TID 0000.0001) // =======================================================
(PID.TID 0000.0001) %MON time_tsnumber                =                    10
(PID.TID 0000.0001) %MON time_secondsf                =   1.2000000000000E+04
(PID.TID 0000.0001) %MON dynstat_eta_max              =   4.8674442991409E+03
(PID.TID 0000.0001) %MON dynstat_eta_min              =  -3.5540859445525E+03
(PID.TID 0000.0001) %MON dynstat_eta_mean             =  -2.6623926012651E-13
(PID.TID 0000.0001) %MON dynstat_eta_sd               =   2.8002958997947E+03
(PID.TID 0000.0001) %MON dynstat_eta_del2             =   7.6443064480400E+00
(PID.TID 0000.0001) %MON dynstat_uvel_max             =   1.9991772058577E+01
(PID.TID 0000.0001) %MON dynstat_uvel_min             =  -2.0855474163516E+00
(PID.TID 0000.0001) %MON dynstat_uvel_mean            =   5.2695857643899E+00
(PID.TID 0000.0001) %MON dynstat_uvel_sd              =   5.9121508664288E+00
(PID.TID 0000.0001) %MON dynstat_uvel_del2            =   4.1813615515458E-02
(PID.TID 0000.0001) %MON dynstat_vvel_max             =   2.9178771848185E+01
(PID.TID 0000.0001) %MON dynstat_vvel_min             =  -2.9178771848185E+01
(PID.TID 0000.0001) %MON dynstat_vvel_mean            =   4.5964616887880E-16
(PID.TID 0000.0001) %MON dynstat_vvel_sd              =   1.1134788004155E+01
(PID.TID 0000.0001) %MON dynstat_vvel_del2            =   3.8286079246034E-02
(PID.TID 0000.0001) %MON dynstat_wvel_max             =   4.7178920814757E-01
(PID.TID 0000.0001) %MON dynstat_wvel_min             =  -4.3072886918357E-01
(PID.TID 0000.0001) %MON dynstat_wvel_mean            =   1.2049972600540E-17
(PID.TID 0000.0001) %MON dynstat_wvel_sd              =   2.6838407287869E-01
(PID.TID 0000.0001) %MON dynstat_wvel_del2            =   1.3995957712600E-03
(PID.TID 0000.0001) %MON dynstat_theta_max            =   4.2545066046778E+02
(PID.TID 0000.0001) %MON dynstat_theta_min            =   2.5504444692852E+02
(PID.TID 0000.0001) %MON dynstat_theta_mean           =   3.1920198089771E+02
(PID.TID 0000.0001) %MON dynstat_theta_sd             =   4.5317701971961E+01
(PID.TID 0000.0001) %MON dynstat_theta_del2           =   4.6966627134940E-02
(PID.TID 0000.0001) %MON dynstat_salt_max             =   0.0000000000000E+00
(PID.TID 0000.0001) %MON dynstat_salt_min             =   0.0000000000000E+00
(PID.TID 0000.0001) %MON dynstat_salt_mean            =   0.0000000000000E+00
(PID.TID 0000.0001) %MON dynstat_salt_sd              =   0.0000000000000E+00
(PID.TID 0000.0001) %MON dynstat_salt_del2            =   0.0000000000000E+00
(PID.TID 0000.0001) %MON advcfl_uvel_max              =   7.5937620807691E-06
(PID.TID 0000.0001) %MON advcfl_vvel_max              =   1.1197960294053E-01
(PID.TID 0000.0001) %MON advcfl_wvel_max              =   1.1035742024381E-01
(PID.TID 0000.0001) %MON advcfl_W_hf_max              =   1.1322940995542E-01
(PID.TID 0000.0001) %MON pe_b_mean                    =   3.9208285632036E+01
(PID.TID 0000.0001) %MON ke_max                       =   4.3868529981470E+06
(PID.TID 0000.0001) %MON ke_mean                      =   9.3343483482095E+01
(PID.TID 0000.0001) %MON ke_vol                       =   1.7486817826145E+22
(PID.TID 0000.0001) %MON vort_r_min                   =  -1.2406336086267E-05
(PID.TID 0000.0001) %MON vort_r_max                   =   1.2406336086267E-05
(PID.TID 0000.0001) %MON vort_a_mean                  =   2.0128362609993E-21
(PID.TID 0000.0001) %MON vort_a_sd                    =   8.5004384332830E-05
(PID.TID 0000.0001) %MON vort_p_mean                  =   2.0128362609993E-21
(PID.TID 0000.0001) %MON vort_p_sd                    =   8.5004384332830E-05
(PID.TID 0000.0001) %MON surfExpan_theta_mean         =  -5.0681756719014E+00
(PID.TID 0000.0001) %MON surfExpan_salt_mean          =   0.0000000000000E+00
(PID.TID 0000.0001) %MON surfExpan_Heat_mean          =  -5.1115390281159E+02
(PID.TID 0000.0001) %MON En_Budget_T2PE_mean          =   1.5018885573312E+02
(PID.TID 0000.0001) // =======================================================
(PID.TID 0000.0001) // End MONITOR dynamic field statistics
(PID.TID 0000.0001) // =======================================================
objf_test       314.8    1   31    1 TILE     1   31    1    1
objf_test       629.6    2   31    1 TILE     2   31    1    1
objf_test       944.7    1   32    1 TILE     1   32    1    1
objf_test      1259.8    2   32    1 TILE     2   32    1    1
objf_test      1574.9    1   33    1 TILE     1   33    1    1
objf_test      1890.0    2   33    1 TILE     2   33    1    1
objf_test      2204.8    1   34    1 TILE     1   34    1    1
objf_test      2519.6    2   34    1 TILE     2   34    1    1
objf_test      2833.8    1   35    1 TILE     1   35    1    1
objf_test      3148.0    2   35    1 TILE     2   35    1    1
objf_test      3461.4    1   36    1 TILE     1   36    1    1
objf_test      3774.8    2   36    1 TILE     2   36    1    1
objf_test      4087.0    1   37    1 TILE     1   37    1    1
objf_test      4399.2    2   37    1 TILE     2   37    1    1
objf_test      4710.1    1   38    1 TILE     1   38    1    1
objf_test      5020.9    2   38    1 TILE     2   38    1    1
objf_test      5330.1    1   39    1 TILE     1   39    1    1
objf_test      5639.3    2   39    1 TILE     2   39    1    1
 --> objf_test(bi,bj)   =  0.626587786180309E+03
 --> objf_tracer(bi,bj) =  0.000000000000000E+00
 --> objf_atl(bi,bj)    =  0.000000000000000E+00
  local fc =  0.626587786180309E+03
 global fc =  0.626587786180309E+03
 cg2d: Sum(rhs),rhsMax =   4.12864187282480E-16  8.97359314695303E+01
 cg2d: Sum(rhs),rhsMax =  -2.79637424327461E-15  1.89073450912125E+02
 cg2d: Sum(rhs),rhsMax =   1.17961196366423E-16  3.69983935898357E+02
 cg2d: Sum(rhs),rhsMax =   1.31838984174237E-16  6.00188020663829E+02
 cg2d: Sum(rhs),rhsMax =   1.99840144432528E-15  8.71578060598595E+02
 cg2d: Sum(rhs),rhsMax =   4.23272528138341E-16  1.17463757356038E+03
 cg2d: Sum(rhs),rhsMax =   4.01761957036229E-15  1.49858166121229E+03
 cg2d: Sum(rhs),rhsMax =   1.40165656858926E-15  1.83164888966199E+03
 cg2d: Sum(rhs),rhsMax =  -6.17561557447743E-16  2.16161545389008E+03
 cg2d: Sum(rhs),rhsMax =   8.90953977261688E-15  2.47650463597213E+03
 cg2d: Sum(rhs),rhsMax =   4.12864187282480E-16  8.97359314695303E+01
 cg2d: Sum(rhs),rhsMax =  -2.79637424327461E-15  1.89073450912125E+02
 cg2d: Sum(rhs),rhsMax =   1.17961196366423E-16  3.69983935898357E+02
 cg2d: Sum(rhs),rhsMax =   1.31838984174237E-16  6.00188020663829E+02
 cg2d: Sum(rhs),rhsMax =   1.99840144432528E-15  8.71578060598595E+02
 cg2d: Sum(rhs),rhsMax =   4.23272528138341E-16  1.17463757356038E+03
 cg2d: Sum(rhs),rhsMax =   4.01761957036229E-15  1.49858166121229E+03
 cg2d: Sum(rhs),rhsMax =   1.40165656858926E-15  1.83164888966199E+03
 cg2d: Sum(rhs),rhsMax =  -6.17561557447743E-16  2.16161545389008E+03
 cg2d: Sum(rhs),rhsMax =   8.90953977261688E-15  2.47650463597213E+03
 cg2d: Sum(rhs),rhsMax =   2.57606436182556E-16  2.98454311727313E-15
 cg2d: Sum(rhs),rhsMax =  -2.52813367414617E-14  2.72281737947999E-15
 cg2d: Sum(rhs),rhsMax =  -7.34419259043556E-14  2.59058831200128E-15
 cg2d: Sum(rhs),rhsMax =  -1.42951110610814E-13  2.46723856773772E-15
 cg2d: Sum(rhs),rhsMax =  -2.14093612528274E-13  2.47243282755484E-15
 cg2d: Sum(rhs),rhsMax =  -2.77618556026032E-13  2.58138581671293E-15
 cg2d: Sum(rhs),rhsMax =  -3.38273015826861E-13  2.71437055317397E-15
 cg2d: Sum(rhs),rhsMax =  -3.99702406589375E-13  2.81384210771036E-15
 cg2d: Sum(rhs),rhsMax =  -4.73496526817892E-13  2.85863501758639E-15
 cg2d: Sum(rhs),rhsMax =  -6.56963605695157E-13  2.41386160619448E-15
(PID.TID 0000.0001) // =======================================================
(PID.TID 0000.0001) // Field Model R_low (ini_masks_etc) at iteration          1
(PID.TID 0000.0001) // CMIN =          1.000000000000000E+32
(PID.TID 0000.0001) // CMAX =         -1.000000000000000E+32
(PID.TID 0000.0001) // CINT =          0.000000000000000E+00
(PID.TID 0000.0001) // SYMBOLS (CMIN->CMAX): -abcdefghijklmnopqrstuvwxyz+
(PID.TID 0000.0001) //                  0.0: .
(PID.TID 0000.0001) // RANGE I (Lo:Hi:Step):(  -3:   6:   1)
(PID.TID 0000.0001) // RANGE J (Lo:Hi:Step):(  68:  -3:  -1)
(PID.TID 0000.0001) // RANGE K (Lo:Hi:Step):(   1:   1:   1)
(PID.TID 0000.0001) // =======================================================
(PID.TID 0000.0001) // =======================================================
(PID.TID 0000.0001) // END OF FIELD                                          =
(PID.TID 0000.0001) // =======================================================
(PID.TID 0000.0001) 
(PID.TID 0000.0001) // =======================================================
(PID.TID 0000.0001) // Field Model Ro_surf (ini_masks_etc) at iteration          1
(PID.TID 0000.0001) // CMIN =          1.000000000000000E+05
(PID.TID 0000.0001) // CMAX =          1.000000000000000E+05
(PID.TID 0000.0001) // CINT =          0.000000000000000E+00
(PID.TID 0000.0001) // SYMBOLS (CMIN->CMAX): -abcdefghijklmnopqrstuvwxyz+
(PID.TID 0000.0001) //                  0.0: .
(PID.TID 0000.0001) // RANGE I (Lo:Hi:Step):(  -3:   6:   1)
(PID.TID 0000.0001) // RANGE J (Lo:Hi:Step):(  68:  -3:  -1)
(PID.TID 0000.0001) // RANGE K (Lo:Hi:Step):(   1:   1:   1)
(PID.TID 0000.0001) // =======================================================
(PID.TID 0000.0001) // =======================================================
(PID.TID 0000.0001) // END OF FIELD                                          =
(PID.TID 0000.0001) // =======================================================
(PID.TID 0000.0001) 
(PID.TID 0000.0001) // =======================================================
(PID.TID 0000.0001) // Field hFacC at iteration          1
(PID.TID 0000.0001) // CMIN =          1.000000000000000E+00
(PID.TID 0000.0001) // CMAX =          1.000000000000000E+00
(PID.TID 0000.0001) // CINT =          0.000000000000000E+00
(PID.TID 0000.0001) // SYMBOLS (CMIN->CMAX): -abcdefghijklmnopqrstuvwxyz+
(PID.TID 0000.0001) //                  0.0: .
(PID.TID 0000.0001) // RANGE I (Lo:Hi:Step):(  -3:   6:   1)
(PID.TID 0000.0001) // RANGE J (Lo:Hi:Step):(  68:  -3:  -1)
(PID.TID 0000.0001) // RANGE K (Lo:Hi:Step):(   1:   1:   1)
(PID.TID 0000.0001) // =======================================================
(PID.TID 0000.0001) // =======================================================
(PID.TID 0000.0001) // END OF FIELD                                          =
(PID.TID 0000.0001) // =======================================================
(PID.TID 0000.0001) 
(PID.TID 0000.0001) // =======================================================
(PID.TID 0000.0001) // Field hFacW at iteration          1
(PID.TID 0000.0001) // CMIN =          1.000000000000000E+00
(PID.TID 0000.0001) // CMAX =          1.000000000000000E+00
(PID.TID 0000.0001) // CINT =          0.000000000000000E+00
(PID.TID 0000.0001) // SYMBOLS (CMIN->CMAX): -abcdefghijklmnopqrstuvwxyz+
(PID.TID 0000.0001) //                  0.0: .
(PID.TID 0000.0001) // RANGE I (Lo:Hi:Step):(  -3:   6:   1)
(PID.TID 0000.0001) // RANGE J (Lo:Hi:Step):(  68:  -3:  -1)
(PID.TID 0000.0001) // RANGE K (Lo:Hi:Step):(   1:   1:   1)
(PID.TID 0000.0001) // =======================================================
(PID.TID 0000.0001) // =======================================================
(PID.TID 0000.0001) // END OF FIELD                                          =
(PID.TID 0000.0001) // =======================================================
(PID.TID 0000.0001) 
(PID.TID 0000.0001) // =======================================================
(PID.TID 0000.0001) // Field hFacS at iteration          1
(PID.TID 0000.0001) // CMIN =          1.000000000000000E+00
(PID.TID 0000.0001) // CMAX =          1.000000000000000E+00
(PID.TID 0000.0001) // CINT =          0.000000000000000E+00
(PID.TID 0000.0001) // SYMBOLS (CMIN->CMAX): -abcdefghijklmnopqrstuvwxyz+
(PID.TID 0000.0001) //                  0.0: .
(PID.TID 0000.0001) // RANGE I (Lo:Hi:Step):(  -3:   6:   1)
(PID.TID 0000.0001) // RANGE J (Lo:Hi:Step):(  68:  -3:  -1)
(PID.TID 0000.0001) // RANGE K (Lo:Hi:Step):(   1:   1:   1)
(PID.TID 0000.0001) // =======================================================
(PID.TID 0000.0001) // =======================================================
(PID.TID 0000.0001) // END OF FIELD                                          =
(PID.TID 0000.0001) // =======================================================
(PID.TID 0000.0001) 
(PID.TID 0000.0001) // =======================================================
(PID.TID 0000.0001) // Field Initial Temperature at iteration          1
(PID.TID 0000.0001) // CMIN =          2.550364452389422E+02
(PID.TID 0000.0001) // CMAX =          3.154764877049333E+02
(PID.TID 0000.0001) // CINT =          2.238520091333004E+00
(PID.TID 0000.0001) // SYMBOLS (CMIN->CMAX): -abcdefghijklmnopqrstuvwxyz+
(PID.TID 0000.0001) //                  0.0: .
(PID.TID 0000.0001) // RANGE I (Lo:Hi:Step):(   1:   2:   1)
(PID.TID 0000.0001) // RANGE J (Lo:Hi:Step):(  64:   1:  -1)
(PID.TID 0000.0001) // RANGE K (Lo:Hi:Step):(   1:   1:   1)
(PID.TID 0000.0001) // =======================================================
(PID.TID 0000.0001) K =   1
(PID.TID 0000.0001) 
(PID.TID 0000.0001) |--J--|12
(PID.TID 0000.0001)     64 --
(PID.TID 0000.0001)     63 --
(PID.TID 0000.0001)     62 --
(PID.TID 0000.0001)     61 aa
(PID.TID 0000.0001)     60 aa
(PID.TID 0000.0001)     59 bb
(PID.TID 0000.0001)     58 cc
(PID.TID 0000.0001)     57 cc
(PID.TID 0000.0001)     56 dd
(PID.TID 0000.0001)     55 ee
(PID.TID 0000.0001)     54 gg
(PID.TID 0000.0001)     53 hh
(PID.TID 0000.0001)     52 ii
(PID.TID 0000.0001)     51 jj
(PID.TID 0000.0001)     50 ll
(PID.TID 0000.0001)     49 mm
(PID.TID 0000.0001)     48 nn
(PID.TID 0000.0001)     47 oo
(PID.TID 0000.0001)     46 qq
(PID.TID 0000.0001)     45 rr
(PID.TID 0000.0001)     44 ss
(PID.TID 0000.0001)     43 tt
(PID.TID 0000.0001)     42 vv
(PID.TID 0000.0001)     41 ww
(PID.TID 0000.0001)     40 xx
(PID.TID 0000.0001)     39 xx
(PID.TID 0000.0001)     38 yy
(PID.TID 0000.0001)     37 zz
(PID.TID 0000.0001)     36 zz
(PID.TID 0000.0001)     35 ++
(PID.TID 0000.0001)     34 ++
(PID.TID 0000.0001)     33 ++
(PID.TID 0000.0001)     32 ++
(PID.TID 0000.0001)     31 ++
(PID.TID 0000.0001)     30 ++
(PID.TID 0000.0001)     29 zz
(PID.TID 0000.0001)     28 zz
(PID.TID 0000.0001)     27 yy
(PID.TID 0000.0001)     26 xx
(PID.TID 0000.0001)     25 xx
(PID.TID 0000.0001)     24 ww
(PID.TID 0000.0001)     23 vv
(PID.TID 0000.0001)     22 tt
(PID.TID 0000.0001)     21 ss
(PID.TID 0000.0001)     20 rr
(PID.TID 0000.0001)     19 qq
(PID.TID 0000.0001)     18 oo
(PID.TID 0000.0001)     17 nn
(PID.TID 0000.0001)     16 mm
(PID.TID 0000.0001)     15 ll
(PID.TID 0000.0001)     14 jj
(PID.TID 0000.0001)     13 ii
(PID.TID 0000.0001)     12 hh
(PID.TID 0000.0001)     11 gg
(PID.TID 0000.0001)     10 ee
(PID.TID 0000.0001)      9 dd
(PID.TID 0000.0001)      8 cc
(PID.TID 0000.0001)      7 cc
(PID.TID 0000.0001)      6 bb
(PID.TID 0000.0001)      5 aa
(PID.TID 0000.0001)      4 aa
(PID.TID 0000.0001)      3 --
(PID.TID 0000.0001)      2 --
(PID.TID 0000.0001)      1 --
(PID.TID 0000.0001) // =======================================================
(PID.TID 0000.0001) // END OF FIELD                                          =
(PID.TID 0000.0001) // =======================================================
(PID.TID 0000.0001) 
(PID.TID 0000.0001) // =======================================================
(PID.TID 0000.0001) // Field Initial Salinity at iteration          1
(PID.TID 0000.0001) // CMIN =          1.000000000000000E+32
(PID.TID 0000.0001) // CMAX =         -1.000000000000000E+32
(PID.TID 0000.0001) // CINT =          0.000000000000000E+00
(PID.TID 0000.0001) // SYMBOLS (CMIN->CMAX): -abcdefghijklmnopqrstuvwxyz+
(PID.TID 0000.0001) //                  0.0: .
(PID.TID 0000.0001) // RANGE I (Lo:Hi:Step):(   1:   2:   1)
(PID.TID 0000.0001) // RANGE J (Lo:Hi:Step):(  64:   1:  -1)
(PID.TID 0000.0001) // RANGE K (Lo:Hi:Step):(   1:   1:   1)
(PID.TID 0000.0001) // =======================================================
(PID.TID 0000.0001) // =======================================================
(PID.TID 0000.0001) // END OF FIELD                                          =
(PID.TID 0000.0001) // =======================================================
(PID.TID 0000.0001) 
(PID.TID 0000.0001) Start initial hydrostatic pressure computation
(PID.TID 0000.0001) Pressure is predetermined for buoyancyRelation ATMOSPHERIC
(PID.TID 0000.0001) 
(PID.TID 0000.0001)  MDS_READ_FIELD: opening file: xx_theta.0000000000.001.001.data
(PID.TID 0000.0001)  MDS_READ_FIELD: opening file: adxx_diffkr.0000000000.001.001.data
(PID.TID 0000.0001)  MDS_READ_FIELD: opening file: adxx_salt.0000000000.001.001.data
(PID.TID 0000.0001)  MDS_READ_FIELD: opening file: adxx_theta.0000000000.001.001.data
 ph-pack: packing ecco_cost
(PID.TID 0000.0001)  MDSREADFIELD_GL: opening file: maskCtrlC.001.001.data
(PID.TID 0000.0001)  MDSREADFIELD_GL: opening file: adxx_theta.0000000000.001.001.data
(PID.TID 0000.0001)  MDSREADFIELD_GL: opening file: maskCtrlC.001.001.data
(PID.TID 0000.0001)  MDSREADFIELD_GL: opening file: adxx_salt.0000000000.001.001.data
(PID.TID 0000.0001)  MDSREADFIELD_GL: opening file: maskCtrlC.001.001.data
(PID.TID 0000.0001)  MDSREADFIELD_GL: opening file: adxx_diffkr.0000000000.001.001.data
(PID.TID 0000.0001)  MDSREADFIELD_GL: opening file: maskCtrlC.001.001.data
(PID.TID 0000.0001)  MDSREADFIELD_GL: opening file: adxx_tr1.0000000000.001.001.data
 ph-pack: packing ecco_ctrl
(PID.TID 0000.0001)  MDSREADFIELD_GL: opening file: maskCtrlC.001.001.data
(PID.TID 0000.0001)  MDSREADFIELD_GL: opening file: xx_theta.0000000000.001.001.data
(PID.TID 0000.0001)  MDSREADFIELD_GL: opening file: maskCtrlC.001.001.data
(PID.TID 0000.0001)  MDSREADFIELD_GL: opening file: xx_salt.0000000000.001.001.data
(PID.TID 0000.0001)  MDSREADFIELD_GL: opening file: maskCtrlC.001.001.data
(PID.TID 0000.0001)  MDSREADFIELD_GL: opening file: xx_diffkr.0000000000.001.001.data
(PID.TID 0000.0001)  MDSREADFIELD_GL: opening file: maskCtrlC.001.001.data
(PID.TID 0000.0001)  MDSREADFIELD_GL: opening file: xx_tr1.0000000000.001.001.data
 ph-check entering grdchk_main 
 ph-check fcref =   626.587786
grad-res -------------------------------
 grad-res  proc    #    i    j    k   bi   bj iobc               fc ref           fc + eps           fc - eps
 grad-res  proc    #    i    j    k   bi   bj iobc             adj grad            fd grad         1 - fd/adj
 ph-grd -->hit<--  1 1 1 1
(PID.TID 0000.0001)  MDS_READ_FIELD: opening file: adxx_theta.0000000000.001.001.data
(PID.TID 0000.0001)  MDS_READ_FIELD: opening file: xx_theta.0000000000.001.001.data
(PID.TID 0000.0001) // =======================================================
(PID.TID 0000.0001) // Field Model R_low (ini_masks_etc) at iteration          1
(PID.TID 0000.0001) // CMIN =          1.000000000000000E+32
(PID.TID 0000.0001) // CMAX =         -1.000000000000000E+32
(PID.TID 0000.0001) // CINT =          0.000000000000000E+00
(PID.TID 0000.0001) // SYMBOLS (CMIN->CMAX): -abcdefghijklmnopqrstuvwxyz+
(PID.TID 0000.0001) //                  0.0: .
(PID.TID 0000.0001) // RANGE I (Lo:Hi:Step):(  -3:   6:   1)
(PID.TID 0000.0001) // RANGE J (Lo:Hi:Step):(  68:  -3:  -1)
(PID.TID 0000.0001) // RANGE K (Lo:Hi:Step):(   1:   1:   1)
(PID.TID 0000.0001) // =======================================================
(PID.TID 0000.0001) // =======================================================
(PID.TID 0000.0001) // END OF FIELD                                          =
(PID.TID 0000.0001) // =======================================================
(PID.TID 0000.0001) 
(PID.TID 0000.0001) // =======================================================
(PID.TID 0000.0001) // Field Model Ro_surf (ini_masks_etc) at iteration          1
(PID.TID 0000.0001) // CMIN =          1.000000000000000E+05
(PID.TID 0000.0001) // CMAX =          1.000000000000000E+05
(PID.TID 0000.0001) // CINT =          0.000000000000000E+00
(PID.TID 0000.0001) // SYMBOLS (CMIN->CMAX): -abcdefghijklmnopqrstuvwxyz+
(PID.TID 0000.0001) //                  0.0: .
(PID.TID 0000.0001) // RANGE I (Lo:Hi:Step):(  -3:   6:   1)
(PID.TID 0000.0001) // RANGE J (Lo:Hi:Step):(  68:  -3:  -1)
(PID.TID 0000.0001) // RANGE K (Lo:Hi:Step):(   1:   1:   1)
(PID.TID 0000.0001) // =======================================================
(PID.TID 0000.0001) // =======================================================
(PID.TID 0000.0001) // END OF FIELD                                          =
(PID.TID 0000.0001) // =======================================================
(PID.TID 0000.0001) 
(PID.TID 0000.0001) // =======================================================
(PID.TID 0000.0001) // Field hFacC at iteration          1
(PID.TID 0000.0001) // CMIN =          1.000000000000000E+00
(PID.TID 0000.0001) // CMAX =          1.000000000000000E+00
(PID.TID 0000.0001) // CINT =          0.000000000000000E+00
(PID.TID 0000.0001) // SYMBOLS (CMIN->CMAX): -abcdefghijklmnopqrstuvwxyz+
(PID.TID 0000.0001) //                  0.0: .
(PID.TID 0000.0001) // RANGE I (Lo:Hi:Step):(  -3:   6:   1)
(PID.TID 0000.0001) // RANGE J (Lo:Hi:Step):(  68:  -3:  -1)
(PID.TID 0000.0001) // RANGE K (Lo:Hi:Step):(   1:   1:   1)
(PID.TID 0000.0001) // =======================================================
(PID.TID 0000.0001) // =======================================================
(PID.TID 0000.0001) // END OF FIELD                                          =
(PID.TID 0000.0001) // =======================================================
(PID.TID 0000.0001) 
(PID.TID 0000.0001) // =======================================================
(PID.TID 0000.0001) // Field hFacW at iteration          1
(PID.TID 0000.0001) // CMIN =          1.000000000000000E+00
(PID.TID 0000.0001) // CMAX =          1.000000000000000E+00
(PID.TID 0000.0001) // CINT =          0.000000000000000E+00
(PID.TID 0000.0001) // SYMBOLS (CMIN->CMAX): -abcdefghijklmnopqrstuvwxyz+
(PID.TID 0000.0001) //                  0.0: .
(PID.TID 0000.0001) // RANGE I (Lo:Hi:Step):(  -3:   6:   1)
(PID.TID 0000.0001) // RANGE J (Lo:Hi:Step):(  68:  -3:  -1)
(PID.TID 0000.0001) // RANGE K (Lo:Hi:Step):(   1:   1:   1)
(PID.TID 0000.0001) // =======================================================
(PID.TID 0000.0001) // =======================================================
(PID.TID 0000.0001) // END OF FIELD                                          =
(PID.TID 0000.0001) // =======================================================
(PID.TID 0000.0001) 
(PID.TID 0000.0001) // =======================================================
(PID.TID 0000.0001) // Field hFacS at iteration          1
(PID.TID 0000.0001) // CMIN =          1.000000000000000E+00
(PID.TID 0000.0001) // CMAX =          1.000000000000000E+00
(PID.TID 0000.0001) // CINT =          0.000000000000000E+00
(PID.TID 0000.0001) // SYMBOLS (CMIN->CMAX): -abcdefghijklmnopqrstuvwxyz+
(PID.TID 0000.0001) //                  0.0: .
(PID.TID 0000.0001) // RANGE I (Lo:Hi:Step):(  -3:   6:   1)
(PID.TID 0000.0001) // RANGE J (Lo:Hi:Step):(  68:  -3:  -1)
(PID.TID 0000.0001) // RANGE K (Lo:Hi:Step):(   1:   1:   1)
(PID.TID 0000.0001) // =======================================================
(PID.TID 0000.0001) // =======================================================
(PID.TID 0000.0001) // END OF FIELD                                          =
(PID.TID 0000.0001) // =======================================================
(PID.TID 0000.0001) 
(PID.TID 0000.0001) %MON En_BudgetfCori_max           =   1.4540029928789E-04
(PID.TID 0000.0001) %MON En_BudgetfCori_min           =  -1.4540029928789E-04
(PID.TID 0000.0001) %MON En_BudgetfCori_mean          =  -2.1175823681358E-21
(PID.TID 0000.0001) %MON En_BudgetfCori_sd            =   1.0284451245737E-04
(PID.TID 0000.0001) %MON En_BudgetfCoriG_max          =   1.4526891053949E-04
(PID.TID 0000.0001) %MON En_BudgetfCoriG_min          =  -1.4544410433286E-04
(PID.TID 0000.0001) %MON En_BudgetfCoriG_mean         =  -2.3086365767121E-06
(PID.TID 0000.0001) %MON En_BudgetfCoriG_sd           =   1.0363181330709E-04
(PID.TID 0000.0001) %MON En_BudgetfCoriCos_max        =   1.4540029928789E-04
(PID.TID 0000.0001) %MON En_BudgetfCoriCos_min        =   3.5693770017430E-06
(PID.TID 0000.0001) %MON En_BudgetfCoriCos_mean       =   9.2601889431869E-05
(PID.TID 0000.0001) %MON En_BudgetfCoriCos_sd         =   4.4742416298653E-05
(PID.TID 0000.0001) INI_CG2D: CG2D normalisation factor =  2.2781266630324642E-10
(PID.TID 0000.0001) 
(PID.TID 0000.0001) // =======================================================
(PID.TID 0000.0001) // Field Initial Temperature at iteration          1
(PID.TID 0000.0001) // CMIN =          2.550364452389422E+02
(PID.TID 0000.0001) // CMAX =          3.154764877049333E+02
(PID.TID 0000.0001) // CINT =          2.238520091333004E+00
(PID.TID 0000.0001) // SYMBOLS (CMIN->CMAX): -abcdefghijklmnopqrstuvwxyz+
(PID.TID 0000.0001) //                  0.0: .
(PID.TID 0000.0001) // RANGE I (Lo:Hi:Step):(   1:   2:   1)
(PID.TID 0000.0001) // RANGE J (Lo:Hi:Step):(  64:   1:  -1)
(PID.TID 0000.0001) // RANGE K (Lo:Hi:Step):(   1:   1:   1)
(PID.TID 0000.0001) // =======================================================
(PID.TID 0000.0001) K =   1
(PID.TID 0000.0001) 
(PID.TID 0000.0001) |--J--|12
(PID.TID 0000.0001)     64 --
(PID.TID 0000.0001)     63 --
(PID.TID 0000.0001)     62 --
(PID.TID 0000.0001)     61 aa
(PID.TID 0000.0001)     60 aa
(PID.TID 0000.0001)     59 bb
(PID.TID 0000.0001)     58 cc
(PID.TID 0000.0001)     57 cc
(PID.TID 0000.0001)     56 dd
(PID.TID 0000.0001)     55 ee
(PID.TID 0000.0001)     54 gg
(PID.TID 0000.0001)     53 hh
(PID.TID 0000.0001)     52 ii
(PID.TID 0000.0001)     51 jj
(PID.TID 0000.0001)     50 ll
(PID.TID 0000.0001)     49 mm
(PID.TID 0000.0001)     48 nn
(PID.TID 0000.0001)     47 oo
(PID.TID 0000.0001)     46 qq
(PID.TID 0000.0001)     45 rr
(PID.TID 0000.0001)     44 ss
(PID.TID 0000.0001)     43 tt
(PID.TID 0000.0001)     42 vv
(PID.TID 0000.0001)     41 ww
(PID.TID 0000.0001)     40 xx
(PID.TID 0000.0001)     39 xx
(PID.TID 0000.0001)     38 yy
(PID.TID 0000.0001)     37 zz
(PID.TID 0000.0001)     36 zz
(PID.TID 0000.0001)     35 ++
(PID.TID 0000.0001)     34 ++
(PID.TID 0000.0001)     33 ++
(PID.TID 0000.0001)     32 ++
(PID.TID 0000.0001)     31 ++
(PID.TID 0000.0001)     30 ++
(PID.TID 0000.0001)     29 zz
(PID.TID 0000.0001)     28 zz
(PID.TID 0000.0001)     27 yy
(PID.TID 0000.0001)     26 xx
(PID.TID 0000.0001)     25 xx
(PID.TID 0000.0001)     24 ww
(PID.TID 0000.0001)     23 vv
(PID.TID 0000.0001)     22 tt
(PID.TID 0000.0001)     21 ss
(PID.TID 0000.0001)     20 rr
(PID.TID 0000.0001)     19 qq
(PID.TID 0000.0001)     18 oo
(PID.TID 0000.0001)     17 nn
(PID.TID 0000.0001)     16 mm
(PID.TID 0000.0001)     15 ll
(PID.TID 0000.0001)     14 jj
(PID.TID 0000.0001)     13 ii
(PID.TID 0000.0001)     12 hh
(PID.TID 0000.0001)     11 gg
(PID.TID 0000.0001)     10 ee
(PID.TID 0000.0001)      9 dd
(PID.TID 0000.0001)      8 cc
(PID.TID 0000.0001)      7 cc
(PID.TID 0000.0001)      6 bb
(PID.TID 0000.0001)      5 aa
(PID.TID 0000.0001)      4 aa
(PID.TID 0000.0001)      3 --
(PID.TID 0000.0001)      2 --
(PID.TID 0000.0001)      1 --
(PID.TID 0000.0001) // =======================================================
(PID.TID 0000.0001) // END OF FIELD                                          =
(PID.TID 0000.0001) // =======================================================
(PID.TID 0000.0001) 
(PID.TID 0000.0001) // =======================================================
(PID.TID 0000.0001) // Field Initial Salinity at iteration          1
(PID.TID 0000.0001) // CMIN =          1.000000000000000E+32
(PID.TID 0000.0001) // CMAX =         -1.000000000000000E+32
(PID.TID 0000.0001) // CINT =          0.000000000000000E+00
(PID.TID 0000.0001) // SYMBOLS (CMIN->CMAX): -abcdefghijklmnopqrstuvwxyz+
(PID.TID 0000.0001) //                  0.0: .
(PID.TID 0000.0001) // RANGE I (Lo:Hi:Step):(   1:   2:   1)
(PID.TID 0000.0001) // RANGE J (Lo:Hi:Step):(  64:   1:  -1)
(PID.TID 0000.0001) // RANGE K (Lo:Hi:Step):(   1:   1:   1)
(PID.TID 0000.0001) // =======================================================
(PID.TID 0000.0001) // =======================================================
(PID.TID 0000.0001) // END OF FIELD                                          =
(PID.TID 0000.0001) // =======================================================
(PID.TID 0000.0001) 
(PID.TID 0000.0001) Start initial hydrostatic pressure computation
(PID.TID 0000.0001) Pressure is predetermined for buoyancyRelation ATMOSPHERIC
(PID.TID 0000.0001) 
(PID.TID 0000.0001)  MDS_READ_FIELD: opening file: xx_theta.0000000000.001.001.data
(PID.TID 0000.0001)  MDS_READ_FIELD: opening file: xx_salt.0000000000.001.001.data
(PID.TID 0000.0001)  MDS_READ_FIELD: opening file: xx_diffkr.0000000000.001.001.data
(PID.TID 0000.0001) // =======================================================
(PID.TID 0000.0001) // Model current state
(PID.TID 0000.0001) // =======================================================
(PID.TID 0000.0001) 
 cg2d: Sum(rhs),rhsMax =   4.12864187282480E-16  8.97359314695303E+01
 cg2d: Sum(rhs),rhsMax =   1.46410661372443E-15  1.89073450912125E+02
 cg2d: Sum(rhs),rhsMax =   1.80411241501588E-15  3.69983935898353E+02
 cg2d: Sum(rhs),rhsMax =   3.07392999943090E-15  6.00188020663801E+02
 cg2d: Sum(rhs),rhsMax =   3.80945275324507E-15  8.71578060598286E+02
 cg2d: Sum(rhs),rhsMax =   2.02615701994091E-15  1.17463757355851E+03
 cg2d: Sum(rhs),rhsMax =   5.06539254985228E-15  1.49858166120337E+03
 cg2d: Sum(rhs),rhsMax =   4.05925293378573E-15  1.83164888962662E+03
 cg2d: Sum(rhs),rhsMax =   8.02136135291676E-15  2.16161545376969E+03
 cg2d: Sum(rhs),rhsMax =   2.84494650060196E-15  2.47650463561340E+03
objf_test       314.8    1   31    1 TILE     1   31    1    1
objf_test       629.6    2   31    1 TILE     2   31    1    1
objf_test       944.7    1   32    1 TILE     1   32    1    1
objf_test      1259.8    2   32    1 TILE     2   32    1    1
objf_test      1574.9    1   33    1 TILE     1   33    1    1
objf_test      1890.0    2   33    1 TILE     2   33    1    1
objf_test      2204.8    1   34    1 TILE     1   34    1    1
objf_test      2519.6    2   34    1 TILE     2   34    1    1
objf_test      2833.8    1   35    1 TILE     1   35    1    1
objf_test      3148.0    2   35    1 TILE     2   35    1    1
objf_test      3461.4    1   36    1 TILE     1   36    1    1
objf_test      3774.8    2   36    1 TILE     2   36    1    1
objf_test      4087.0    1   37    1 TILE     1   37    1    1
objf_test      4399.2    2   37    1 TILE     2   37    1    1
objf_test      4710.1    1   38    1 TILE     1   38    1    1
objf_test      5020.9    2   38    1 TILE     2   38    1    1
objf_test      5330.1    1   39    1 TILE     1   39    1    1
objf_test      5639.3    2   39    1 TILE     2   39    1    1
 --> objf_test(bi,bj)   =  0.626587786180463E+03
 --> objf_tracer(bi,bj) =  0.000000000000000E+00
 --> objf_atl(bi,bj)    =  0.000000000000000E+00
  local fc =  0.626587786180463E+03
 global fc =  0.626587786180463E+03
 ph-check fcpertplus =   626.587786
(PID.TID 0000.0001)  MDS_READ_FIELD: opening file: xx_theta.0000000000.001.001.data
 ph-check fcpertminus =   626.587786
(PID.TID 0000.0001)  MDS_READ_FIELD: opening file: xx_theta.0000000000.001.001.data
(PID.TID 0000.0001) // =======================================================
(PID.TID 0000.0001) // Field Model R_low (ini_masks_etc) at iteration          1
(PID.TID 0000.0001) // CMIN =          1.000000000000000E+32
(PID.TID 0000.0001) // CMAX =         -1.000000000000000E+32
(PID.TID 0000.0001) // CINT =          0.000000000000000E+00
(PID.TID 0000.0001) // SYMBOLS (CMIN->CMAX): -abcdefghijklmnopqrstuvwxyz+
(PID.TID 0000.0001) //                  0.0: .
(PID.TID 0000.0001) // RANGE I (Lo:Hi:Step):(  -3:   6:   1)
(PID.TID 0000.0001) // RANGE J (Lo:Hi:Step):(  68:  -3:  -1)
(PID.TID 0000.0001) // RANGE K (Lo:Hi:Step):(   1:   1:   1)
(PID.TID 0000.0001) // =======================================================
(PID.TID 0000.0001) // =======================================================
(PID.TID 0000.0001) // END OF FIELD                                          =
(PID.TID 0000.0001) // =======================================================
(PID.TID 0000.0001) 
(PID.TID 0000.0001) // =======================================================
(PID.TID 0000.0001) // Field Model Ro_surf (ini_masks_etc) at iteration          1
(PID.TID 0000.0001) // CMIN =          1.000000000000000E+05
(PID.TID 0000.0001) // CMAX =          1.000000000000000E+05
(PID.TID 0000.0001) // CINT =          0.000000000000000E+00
(PID.TID 0000.0001) // SYMBOLS (CMIN->CMAX): -abcdefghijklmnopqrstuvwxyz+
(PID.TID 0000.0001) //                  0.0: .
(PID.TID 0000.0001) // RANGE I (Lo:Hi:Step):(  -3:   6:   1)
(PID.TID 0000.0001) // RANGE J (Lo:Hi:Step):(  68:  -3:  -1)
(PID.TID 0000.0001) // RANGE K (Lo:Hi:Step):(   1:   1:   1)
(PID.TID 0000.0001) // =======================================================
(PID.TID 0000.0001) // =======================================================
(PID.TID 0000.0001) // END OF FIELD                                          =
(PID.TID 0000.0001) // =======================================================
(PID.TID 0000.0001) 
(PID.TID 0000.0001) // =======================================================
(PID.TID 0000.0001) // Field hFacC at iteration          1
(PID.TID 0000.0001) // CMIN =          1.000000000000000E+00
(PID.TID 0000.0001) // CMAX =          1.000000000000000E+00
(PID.TID 0000.0001) // CINT =          0.000000000000000E+00
(PID.TID 0000.0001) // SYMBOLS (CMIN->CMAX): -abcdefghijklmnopqrstuvwxyz+
(PID.TID 0000.0001) //                  0.0: .
(PID.TID 0000.0001) // RANGE I (Lo:Hi:Step):(  -3:   6:   1)
(PID.TID 0000.0001) // RANGE J (Lo:Hi:Step):(  68:  -3:  -1)
(PID.TID 0000.0001) // RANGE K (Lo:Hi:Step):(   1:   1:   1)
(PID.TID 0000.0001) // =======================================================
(PID.TID 0000.0001) // =======================================================
(PID.TID 0000.0001) // END OF FIELD                                          =
(PID.TID 0000.0001) // =======================================================
(PID.TID 0000.0001) 
(PID.TID 0000.0001) // =======================================================
(PID.TID 0000.0001) // Field hFacW at iteration          1
(PID.TID 0000.0001) // CMIN =          1.000000000000000E+00
(PID.TID 0000.0001) // CMAX =          1.000000000000000E+00
(PID.TID 0000.0001) // CINT =          0.000000000000000E+00
(PID.TID 0000.0001) // SYMBOLS (CMIN->CMAX): -abcdefghijklmnopqrstuvwxyz+
(PID.TID 0000.0001) //                  0.0: .
(PID.TID 0000.0001) // RANGE I (Lo:Hi:Step):(  -3:   6:   1)
(PID.TID 0000.0001) // RANGE J (Lo:Hi:Step):(  68:  -3:  -1)
(PID.TID 0000.0001) // RANGE K (Lo:Hi:Step):(   1:   1:   1)
(PID.TID 0000.0001) // =======================================================
(PID.TID 0000.0001) // =======================================================
(PID.TID 0000.0001) // END OF FIELD                                          =
(PID.TID 0000.0001) // =======================================================
(PID.TID 0000.0001) 
(PID.TID 0000.0001) // =======================================================
(PID.TID 0000.0001) // Field hFacS at iteration          1
(PID.TID 0000.0001) // CMIN =          1.000000000000000E+00
(PID.TID 0000.0001) // CMAX =          1.000000000000000E+00
(PID.TID 0000.0001) // CINT =          0.000000000000000E+00
(PID.TID 0000.0001) // SYMBOLS (CMIN->CMAX): -abcdefghijklmnopqrstuvwxyz+
(PID.TID 0000.0001) //                  0.0: .
(PID.TID 0000.0001) // RANGE I (Lo:Hi:Step):(  -3:   6:   1)
(PID.TID 0000.0001) // RANGE J (Lo:Hi:Step):(  68:  -3:  -1)
(PID.TID 0000.0001) // RANGE K (Lo:Hi:Step):(   1:   1:   1)
(PID.TID 0000.0001) // =======================================================
(PID.TID 0000.0001) // =======================================================
(PID.TID 0000.0001) // END OF FIELD                                          =
(PID.TID 0000.0001) // =======================================================
(PID.TID 0000.0001) 
(PID.TID 0000.0001) %MON En_BudgetfCori_max           =   1.4540029928789E-04
(PID.TID 0000.0001) %MON En_BudgetfCori_min           =  -1.4540029928789E-04
(PID.TID 0000.0001) %MON En_BudgetfCori_mean          =  -2.1175823681358E-21
(PID.TID 0000.0001) %MON En_BudgetfCori_sd            =   1.0284451245737E-04
(PID.TID 0000.0001) %MON En_BudgetfCoriG_max          =   1.4526891053949E-04
(PID.TID 0000.0001) %MON En_BudgetfCoriG_min          =  -1.4544410433286E-04
(PID.TID 0000.0001) %MON En_BudgetfCoriG_mean         =  -2.3086365767121E-06
(PID.TID 0000.0001) %MON En_BudgetfCoriG_sd           =   1.0363181330709E-04
(PID.TID 0000.0001) %MON En_BudgetfCoriCos_max        =   1.4540029928789E-04
(PID.TID 0000.0001) %MON En_BudgetfCoriCos_min        =   3.5693770017430E-06
(PID.TID 0000.0001) %MON En_BudgetfCoriCos_mean       =   9.2601889431869E-05
(PID.TID 0000.0001) %MON En_BudgetfCoriCos_sd         =   4.4742416298653E-05
(PID.TID 0000.0001) INI_CG2D: CG2D normalisation factor =  2.2781266630324642E-10
(PID.TID 0000.0001) 
(PID.TID 0000.0001) // =======================================================
(PID.TID 0000.0001) // Field Initial Temperature at iteration          1
(PID.TID 0000.0001) // CMIN =          2.550364452389422E+02
(PID.TID 0000.0001) // CMAX =          3.154764877049333E+02
(PID.TID 0000.0001) // CINT =          2.238520091333004E+00
(PID.TID 0000.0001) // SYMBOLS (CMIN->CMAX): -abcdefghijklmnopqrstuvwxyz+
(PID.TID 0000.0001) //                  0.0: .
(PID.TID 0000.0001) // RANGE I (Lo:Hi:Step):(   1:   2:   1)
(PID.TID 0000.0001) // RANGE J (Lo:Hi:Step):(  64:   1:  -1)
(PID.TID 0000.0001) // RANGE K (Lo:Hi:Step):(   1:   1:   1)
(PID.TID 0000.0001) // =======================================================
(PID.TID 0000.0001) K =   1
(PID.TID 0000.0001) 
(PID.TID 0000.0001) |--J--|12
(PID.TID 0000.0001)     64 --
(PID.TID 0000.0001)     63 --
(PID.TID 0000.0001)     62 --
(PID.TID 0000.0001)     61 aa
(PID.TID 0000.0001)     60 aa
(PID.TID 0000.0001)     59 bb
(PID.TID 0000.0001)     58 cc
(PID.TID 0000.0001)     57 cc
(PID.TID 0000.0001)     56 dd
(PID.TID 0000.0001)     55 ee
(PID.TID 0000.0001)     54 gg
(PID.TID 0000.0001)     53 hh
(PID.TID 0000.0001)     52 ii
(PID.TID 0000.0001)     51 jj
(PID.TID 0000.0001)     50 ll
(PID.TID 0000.0001)     49 mm
(PID.TID 0000.0001)     48 nn
(PID.TID 0000.0001)     47 oo
(PID.TID 0000.0001)     46 qq
(PID.TID 0000.0001)     45 rr
(PID.TID 0000.0001)     44 ss
(PID.TID 0000.0001)     43 tt
(PID.TID 0000.0001)     42 vv
(PID.TID 0000.0001)     41 ww
(PID.TID 0000.0001)     40 xx
(PID.TID 0000.0001)     39 xx
(PID.TID 0000.0001)     38 yy
(PID.TID 0000.0001)     37 zz
(PID.TID 0000.0001)     36 zz
(PID.TID 0000.0001)     35 ++
(PID.TID 0000.0001)     34 ++
(PID.TID 0000.0001)     33 ++
(PID.TID 0000.0001)     32 ++
(PID.TID 0000.0001)     31 ++
(PID.TID 0000.0001)     30 ++
(PID.TID 0000.0001)     29 zz
(PID.TID 0000.0001)     28 zz
(PID.TID 0000.0001)     27 yy
(PID.TID 0000.0001)     26 xx
(PID.TID 0000.0001)     25 xx
(PID.TID 0000.0001)     24 ww
(PID.TID 0000.0001)     23 vv
(PID.TID 0000.0001)     22 tt
(PID.TID 0000.0001)     21 ss
(PID.TID 0000.0001)     20 rr
(PID.TID 0000.0001)     19 qq
(PID.TID 0000.0001)     18 oo
(PID.TID 0000.0001)     17 nn
(PID.TID 0000.0001)     16 mm
(PID.TID 0000.0001)     15 ll
(PID.TID 0000.0001)     14 jj
(PID.TID 0000.0001)     13 ii
(PID.TID 0000.0001)     12 hh
(PID.TID 0000.0001)     11 gg
(PID.TID 0000.0001)     10 ee
(PID.TID 0000.0001)      9 dd
(PID.TID 0000.0001)      8 cc
(PID.TID 0000.0001)      7 cc
(PID.TID 0000.0001)      6 bb
(PID.TID 0000.0001)      5 aa
(PID.TID 0000.0001)      4 aa
(PID.TID 0000.0001)      3 --
(PID.TID 0000.0001)      2 --
(PID.TID 0000.0001)      1 --
(PID.TID 0000.0001) // =======================================================
(PID.TID 0000.0001) // END OF FIELD                                          =
(PID.TID 0000.0001) // =======================================================
(PID.TID 0000.0001) 
(PID.TID 0000.0001) // =======================================================
(PID.TID 0000.0001) // Field Initial Salinity at iteration          1
(PID.TID 0000.0001) // CMIN =          1.000000000000000E+32
(PID.TID 0000.0001) // CMAX =         -1.000000000000000E+32
(PID.TID 0000.0001) // CINT =          0.000000000000000E+00
(PID.TID 0000.0001) // SYMBOLS (CMIN->CMAX): -abcdefghijklmnopqrstuvwxyz+
(PID.TID 0000.0001) //                  0.0: .
(PID.TID 0000.0001) // RANGE I (Lo:Hi:Step):(   1:   2:   1)
(PID.TID 0000.0001) // RANGE J (Lo:Hi:Step):(  64:   1:  -1)
(PID.TID 0000.0001) // RANGE K (Lo:Hi:Step):(   1:   1:   1)
(PID.TID 0000.0001) // =======================================================
(PID.TID 0000.0001) // =======================================================
(PID.TID 0000.0001) // END OF FIELD                                          =
(PID.TID 0000.0001) // =======================================================
(PID.TID 0000.0001) 
(PID.TID 0000.0001) Start initial hydrostatic pressure computation
(PID.TID 0000.0001) Pressure is predetermined for buoyancyRelation ATMOSPHERIC
(PID.TID 0000.0001) 
(PID.TID 0000.0001)  MDS_READ_FIELD: opening file: xx_theta.0000000000.001.001.data
(PID.TID 0000.0001)  MDS_READ_FIELD: opening file: xx_salt.0000000000.001.001.data
(PID.TID 0000.0001)  MDS_READ_FIELD: opening file: xx_diffkr.0000000000.001.001.data
(PID.TID 0000.0001) // =======================================================
(PID.TID 0000.0001) // Model current state
(PID.TID 0000.0001) // =======================================================
(PID.TID 0000.0001) 
 cg2d: Sum(rhs),rhsMax =   4.12864187282480E-16  8.97359314695303E+01
 cg2d: Sum(rhs),rhsMax =  -1.13103970633688E-15  1.89073450912125E+02
 cg2d: Sum(rhs),rhsMax =  -6.93889390390723E-18  3.69983935898367E+02
 cg2d: Sum(rhs),rhsMax =   2.68535194081210E-15  6.00188020663905E+02
 cg2d: Sum(rhs),rhsMax =  -1.45716771982052E-16  8.71578060599239E+02
 cg2d: Sum(rhs),rhsMax =  -7.84095011141517E-16  1.17463757356401E+03
 cg2d: Sum(rhs),rhsMax =   1.30451205393456E-15  1.49858166122901E+03
 cg2d: Sum(rhs),rhsMax =   2.42167397246362E-15  1.83164888972627E+03
 cg2d: Sum(rhs),rhsMax =   5.75928194024300E-15  2.16161545410165E+03
 cg2d: Sum(rhs),rhsMax =   2.87964097012150E-15  2.47650463658183E+03
objf_test       314.8    1   31    1 TILE     1   31    1    1
objf_test       629.6    2   31    1 TILE     2   31    1    1
objf_test       944.7    1   32    1 TILE     1   32    1    1
objf_test      1259.8    2   32    1 TILE     2   32    1    1
objf_test      1574.9    1   33    1 TILE     1   33    1    1
objf_test      1890.0    2   33    1 TILE     2   33    1    1
objf_test      2204.8    1   34    1 TILE     1   34    1    1
objf_test      2519.6    2   34    1 TILE     2   34    1    1
objf_test      2833.8    1   35    1 TILE     1   35    1    1
objf_test      3148.0    2   35    1 TILE     2   35    1    1
objf_test      3461.4    1   36    1 TILE     1   36    1    1
objf_test      3774.8    2   36    1 TILE     2   36    1    1
objf_test      4087.0    1   37    1 TILE     1   37    1    1
objf_test      4399.2    2   37    1 TILE     2   37    1    1
objf_test      4710.1    1   38    1 TILE     1   38    1    1
objf_test      5020.9    2   38    1 TILE     2   38    1    1
objf_test      5330.1    1   39    1 TILE     1   39    1    1
objf_test      5639.3    2   39    1 TILE     2   39    1    1
 --> objf_test(bi,bj)   =  0.626587786180155E+03
 --> objf_tracer(bi,bj) =  0.000000000000000E+00
 --> objf_atl(bi,bj)    =  0.000000000000000E+00
  local fc =  0.626587786180155E+03
 global fc =  0.626587786180155E+03
(PID.TID 0000.0001)  MDS_READ_FIELD: opening file: xx_theta.0000000000.001.001.data
grad-res -------------------------------
 grad-res     0    1    1    1    1    1    1    1   0.626587786180E+03 0.626587786180E+03 0.626587786180E+03
 grad-res     0    1    1    1  128    1    1    1   0.153706239542E-07 0.153704604600E-07 0.106368019289E-04
(PID.TID 0000.0001)   ADM  precision_derivative_cost =    6.26587786180309E+02
(PID.TID 0000.0001)   ADM  precision_derivative_grad =    1.53706239542450E-08
 ph-grd  ierr ---------------------------
 ph-grd  ierr =  0, icomp =  1, ichknum =  1
 ph-grd -->hit<--  2 1 1 1
(PID.TID 0000.0001)  MDS_READ_FIELD: opening file: adxx_theta.0000000000.001.001.data
(PID.TID 0000.0001)  MDS_READ_FIELD: opening file: xx_theta.0000000000.001.001.data
(PID.TID 0000.0001) // =======================================================
(PID.TID 0000.0001) // Field Model R_low (ini_masks_etc) at iteration          1
(PID.TID 0000.0001) // CMIN =          1.000000000000000E+32
(PID.TID 0000.0001) // CMAX =         -1.000000000000000E+32
(PID.TID 0000.0001) // CINT =          0.000000000000000E+00
(PID.TID 0000.0001) // SYMBOLS (CMIN->CMAX): -abcdefghijklmnopqrstuvwxyz+
(PID.TID 0000.0001) //                  0.0: .
(PID.TID 0000.0001) // RANGE I (Lo:Hi:Step):(  -3:   6:   1)
(PID.TID 0000.0001) // RANGE J (Lo:Hi:Step):(  68:  -3:  -1)
(PID.TID 0000.0001) // RANGE K (Lo:Hi:Step):(   1:   1:   1)
(PID.TID 0000.0001) // =======================================================
(PID.TID 0000.0001) // =======================================================
(PID.TID 0000.0001) // END OF FIELD                                          =
(PID.TID 0000.0001) // =======================================================
(PID.TID 0000.0001) 
(PID.TID 0000.0001) // =======================================================
(PID.TID 0000.0001) // Field Model Ro_surf (ini_masks_etc) at iteration          1
(PID.TID 0000.0001) // CMIN =          1.000000000000000E+05
(PID.TID 0000.0001) // CMAX =          1.000000000000000E+05
(PID.TID 0000.0001) // CINT =          0.000000000000000E+00
(PID.TID 0000.0001) // SYMBOLS (CMIN->CMAX): -abcdefghijklmnopqrstuvwxyz+
(PID.TID 0000.0001) //                  0.0: .
(PID.TID 0000.0001) // RANGE I (Lo:Hi:Step):(  -3:   6:   1)
(PID.TID 0000.0001) // RANGE J (Lo:Hi:Step):(  68:  -3:  -1)
(PID.TID 0000.0001) // RANGE K (Lo:Hi:Step):(   1:   1:   1)
(PID.TID 0000.0001) // =======================================================
(PID.TID 0000.0001) // =======================================================
(PID.TID 0000.0001) // END OF FIELD                                          =
(PID.TID 0000.0001) // =======================================================
(PID.TID 0000.0001) 
(PID.TID 0000.0001) // =======================================================
(PID.TID 0000.0001) // Field hFacC at iteration          1
(PID.TID 0000.0001) // CMIN =          1.000000000000000E+00
(PID.TID 0000.0001) // CMAX =          1.000000000000000E+00
(PID.TID 0000.0001) // CINT =          0.000000000000000E+00
(PID.TID 0000.0001) // SYMBOLS (CMIN->CMAX): -abcdefghijklmnopqrstuvwxyz+
(PID.TID 0000.0001) //                  0.0: .
(PID.TID 0000.0001) // RANGE I (Lo:Hi:Step):(  -3:   6:   1)
(PID.TID 0000.0001) // RANGE J (Lo:Hi:Step):(  68:  -3:  -1)
(PID.TID 0000.0001) // RANGE K (Lo:Hi:Step):(   1:   1:   1)
(PID.TID 0000.0001) // =======================================================
(PID.TID 0000.0001) // =======================================================
(PID.TID 0000.0001) // END OF FIELD                                          =
(PID.TID 0000.0001) // =======================================================
(PID.TID 0000.0001) 
(PID.TID 0000.0001) // =======================================================
(PID.TID 0000.0001) // Field hFacW at iteration          1
(PID.TID 0000.0001) // CMIN =          1.000000000000000E+00
(PID.TID 0000.0001) // CMAX =          1.000000000000000E+00
(PID.TID 0000.0001) // CINT =          0.000000000000000E+00
(PID.TID 0000.0001) // SYMBOLS (CMIN->CMAX): -abcdefghijklmnopqrstuvwxyz+
(PID.TID 0000.0001) //                  0.0: .
(PID.TID 0000.0001) // RANGE I (Lo:Hi:Step):(  -3:   6:   1)
(PID.TID 0000.0001) // RANGE J (Lo:Hi:Step):(  68:  -3:  -1)
(PID.TID 0000.0001) // RANGE K (Lo:Hi:Step):(   1:   1:   1)
(PID.TID 0000.0001) // =======================================================
(PID.TID 0000.0001) // =======================================================
(PID.TID 0000.0001) // END OF FIELD                                          =
(PID.TID 0000.0001) // =======================================================
(PID.TID 0000.0001) 
(PID.TID 0000.0001) // =======================================================
(PID.TID 0000.0001) // Field hFacS at iteration          1
(PID.TID 0000.0001) // CMIN =          1.000000000000000E+00
(PID.TID 0000.0001) // CMAX =          1.000000000000000E+00
(PID.TID 0000.0001) // CINT =          0.000000000000000E+00
(PID.TID 0000.0001) // SYMBOLS (CMIN->CMAX): -abcdefghijklmnopqrstuvwxyz+
(PID.TID 0000.0001) //                  0.0: .
(PID.TID 0000.0001) // RANGE I (Lo:Hi:Step):(  -3:   6:   1)
(PID.TID 0000.0001) // RANGE J (Lo:Hi:Step):(  68:  -3:  -1)
(PID.TID 0000.0001) // RANGE K (Lo:Hi:Step):(   1:   1:   1)
(PID.TID 0000.0001) // =======================================================
(PID.TID 0000.0001) // =======================================================
(PID.TID 0000.0001) // END OF FIELD                                          =
(PID.TID 0000.0001) // =======================================================
(PID.TID 0000.0001) 
(PID.TID 0000.0001) %MON En_BudgetfCori_max           =   1.4540029928789E-04
(PID.TID 0000.0001) %MON En_BudgetfCori_min           =  -1.4540029928789E-04
(PID.TID 0000.0001) %MON En_BudgetfCori_mean          =  -2.1175823681358E-21
(PID.TID 0000.0001) %MON En_BudgetfCori_sd            =   1.0284451245737E-04
(PID.TID 0000.0001) %MON En_BudgetfCoriG_max          =   1.4526891053949E-04
(PID.TID 0000.0001) %MON En_BudgetfCoriG_min          =  -1.4544410433286E-04
(PID.TID 0000.0001) %MON En_BudgetfCoriG_mean         =  -2.3086365767121E-06
(PID.TID 0000.0001) %MON En_BudgetfCoriG_sd           =   1.0363181330709E-04
(PID.TID 0000.0001) %MON En_BudgetfCoriCos_max        =   1.4540029928789E-04
(PID.TID 0000.0001) %MON En_BudgetfCoriCos_min        =   3.5693770017430E-06
(PID.TID 0000.0001) %MON En_BudgetfCoriCos_mean       =   9.2601889431869E-05
(PID.TID 0000.0001) %MON En_BudgetfCoriCos_sd         =   4.4742416298653E-05
(PID.TID 0000.0001) INI_CG2D: CG2D normalisation factor =  2.2781266630324642E-10
(PID.TID 0000.0001) 
(PID.TID 0000.0001) // =======================================================
(PID.TID 0000.0001) // Field Initial Temperature at iteration          1
(PID.TID 0000.0001) // CMIN =          2.550364452389422E+02
(PID.TID 0000.0001) // CMAX =          3.154764877049333E+02
(PID.TID 0000.0001) // CINT =          2.238520091333004E+00
(PID.TID 0000.0001) // SYMBOLS (CMIN->CMAX): -abcdefghijklmnopqrstuvwxyz+
(PID.TID 0000.0001) //                  0.0: .
(PID.TID 0000.0001) // RANGE I (Lo:Hi:Step):(   1:   2:   1)
(PID.TID 0000.0001) // RANGE J (Lo:Hi:Step):(  64:   1:  -1)
(PID.TID 0000.0001) // RANGE K (Lo:Hi:Step):(   1:   1:   1)
(PID.TID 0000.0001) // =======================================================
(PID.TID 0000.0001) K =   1
(PID.TID 0000.0001) 
(PID.TID 0000.0001) |--J--|12
(PID.TID 0000.0001)     64 --
(PID.TID 0000.0001)     63 --
(PID.TID 0000.0001)     62 --
(PID.TID 0000.0001)     61 aa
(PID.TID 0000.0001)     60 aa
(PID.TID 0000.0001)     59 bb
(PID.TID 0000.0001)     58 cc
(PID.TID 0000.0001)     57 cc
(PID.TID 0000.0001)     56 dd
(PID.TID 0000.0001)     55 ee
(PID.TID 0000.0001)     54 gg
(PID.TID 0000.0001)     53 hh
(PID.TID 0000.0001)     52 ii
(PID.TID 0000.0001)     51 jj
(PID.TID 0000.0001)     50 ll
(PID.TID 0000.0001)     49 mm
(PID.TID 0000.0001)     48 nn
(PID.TID 0000.0001)     47 oo
(PID.TID 0000.0001)     46 qq
(PID.TID 0000.0001)     45 rr
(PID.TID 0000.0001)     44 ss
(PID.TID 0000.0001)     43 tt
(PID.TID 0000.0001)     42 vv
(PID.TID 0000.0001)     41 ww
(PID.TID 0000.0001)     40 xx
(PID.TID 0000.0001)     39 xx
(PID.TID 0000.0001)     38 yy
(PID.TID 0000.0001)     37 zz
(PID.TID 0000.0001)     36 zz
(PID.TID 0000.0001)     35 ++
(PID.TID 0000.0001)     34 ++
(PID.TID 0000.0001)     33 ++
(PID.TID 0000.0001)     32 ++
(PID.TID 0000.0001)     31 ++
(PID.TID 0000.0001)     30 ++
(PID.TID 0000.0001)     29 zz
(PID.TID 0000.0001)     28 zz
(PID.TID 0000.0001)     27 yy
(PID.TID 0000.0001)     26 xx
(PID.TID 0000.0001)     25 xx
(PID.TID 0000.0001)     24 ww
(PID.TID 0000.0001)     23 vv
(PID.TID 0000.0001)     22 tt
(PID.TID 0000.0001)     21 ss
(PID.TID 0000.0001)     20 rr
(PID.TID 0000.0001)     19 qq
(PID.TID 0000.0001)     18 oo
(PID.TID 0000.0001)     17 nn
(PID.TID 0000.0001)     16 mm
(PID.TID 0000.0001)     15 ll
(PID.TID 0000.0001)     14 jj
(PID.TID 0000.0001)     13 ii
(PID.TID 0000.0001)     12 hh
(PID.TID 0000.0001)     11 gg
(PID.TID 0000.0001)     10 ee
(PID.TID 0000.0001)      9 dd
(PID.TID 0000.0001)      8 cc
(PID.TID 0000.0001)      7 cc
(PID.TID 0000.0001)      6 bb
(PID.TID 0000.0001)      5 aa
(PID.TID 0000.0001)      4 aa
(PID.TID 0000.0001)      3 --
(PID.TID 0000.0001)      2 --
(PID.TID 0000.0001)      1 --
(PID.TID 0000.0001) // =======================================================
(PID.TID 0000.0001) // END OF FIELD                                          =
(PID.TID 0000.0001) // =======================================================
(PID.TID 0000.0001) 
(PID.TID 0000.0001) // =======================================================
(PID.TID 0000.0001) // Field Initial Salinity at iteration          1
(PID.TID 0000.0001) // CMIN =          1.000000000000000E+32
(PID.TID 0000.0001) // CMAX =         -1.000000000000000E+32
(PID.TID 0000.0001) // CINT =          0.000000000000000E+00
(PID.TID 0000.0001) // SYMBOLS (CMIN->CMAX): -abcdefghijklmnopqrstuvwxyz+
(PID.TID 0000.0001) //                  0.0: .
(PID.TID 0000.0001) // RANGE I (Lo:Hi:Step):(   1:   2:   1)
(PID.TID 0000.0001) // RANGE J (Lo:Hi:Step):(  64:   1:  -1)
(PID.TID 0000.0001) // RANGE K (Lo:Hi:Step):(   1:   1:   1)
(PID.TID 0000.0001) // =======================================================
(PID.TID 0000.0001) // =======================================================
(PID.TID 0000.0001) // END OF FIELD                                          =
(PID.TID 0000.0001) // =======================================================
(PID.TID 0000.0001) 
(PID.TID 0000.0001) Start initial hydrostatic pressure computation
(PID.TID 0000.0001) Pressure is predetermined for buoyancyRelation ATMOSPHERIC
(PID.TID 0000.0001) 
(PID.TID 0000.0001)  MDS_READ_FIELD: opening file: xx_theta.0000000000.001.001.data
(PID.TID 0000.0001)  MDS_READ_FIELD: opening file: xx_salt.0000000000.001.001.data
(PID.TID 0000.0001)  MDS_READ_FIELD: opening file: xx_diffkr.0000000000.001.001.data
(PID.TID 0000.0001) // =======================================================
(PID.TID 0000.0001) // Model current state
(PID.TID 0000.0001) // =======================================================
(PID.TID 0000.0001) 
 cg2d: Sum(rhs),rhsMax =   4.12864187282480E-16  8.97359314695303E+01
 cg2d: Sum(rhs),rhsMax =   1.46410661372443E-15  1.89073450912125E+02
 cg2d: Sum(rhs),rhsMax =   1.80411241501588E-15  3.69983935898353E+02
 cg2d: Sum(rhs),rhsMax =   4.79477568759989E-15  6.00188020663801E+02
 cg2d: Sum(rhs),rhsMax =   3.03229663600746E-15  8.71578060598286E+02
 cg2d: Sum(rhs),rhsMax =   2.56739074444567E-15  1.17463757355851E+03
 cg2d: Sum(rhs),rhsMax =   5.09314812546791E-15  1.49858166120337E+03
 cg2d: Sum(rhs),rhsMax =   4.00374178255447E-15  1.83164888962662E+03
 cg2d: Sum(rhs),rhsMax =   4.61436444609831E-15  2.16161545376969E+03
 cg2d: Sum(rhs),rhsMax =   5.14865927669916E-15  2.47650463561340E+03
objf_test       314.8    1   31    1 TILE     1   31    1    1
objf_test       629.6    2   31    1 TILE     2   31    1    1
objf_test       944.7    1   32    1 TILE     1   32    1    1
objf_test      1259.8    2   32    1 TILE     2   32    1    1
objf_test      1574.9    1   33    1 TILE     1   33    1    1
objf_test      1890.0    2   33    1 TILE     2   33    1    1
objf_test      2204.8    1   34    1 TILE     1   34    1    1
objf_test      2519.6    2   34    1 TILE     2   34    1    1
objf_test      2833.8    1   35    1 TILE     1   35    1    1
objf_test      3148.0    2   35    1 TILE     2   35    1    1
objf_test      3461.4    1   36    1 TILE     1   36    1    1
objf_test      3774.8    2   36    1 TILE     2   36    1    1
objf_test      4087.0    1   37    1 TILE     1   37    1    1
objf_test      4399.2    2   37    1 TILE     2   37    1    1
objf_test      4710.1    1   38    1 TILE     1   38    1    1
objf_test      5020.9    2   38    1 TILE     2   38    1    1
objf_test      5330.1    1   39    1 TILE     1   39    1    1
objf_test      5639.3    2   39    1 TILE     2   39    1    1
 --> objf_test(bi,bj)   =  0.626587786180463E+03
 --> objf_tracer(bi,bj) =  0.000000000000000E+00
 --> objf_atl(bi,bj)    =  0.000000000000000E+00
  local fc =  0.626587786180463E+03
 global fc =  0.626587786180463E+03
 ph-check fcpertplus =   626.587786
(PID.TID 0000.0001)  MDS_READ_FIELD: opening file: xx_theta.0000000000.001.001.data
 ph-check fcpertminus =   626.587786
(PID.TID 0000.0001)  MDS_READ_FIELD: opening file: xx_theta.0000000000.001.001.data
(PID.TID 0000.0001) // =======================================================
(PID.TID 0000.0001) // Field Model R_low (ini_masks_etc) at iteration          1
(PID.TID 0000.0001) // CMIN =          1.000000000000000E+32
(PID.TID 0000.0001) // CMAX =         -1.000000000000000E+32
(PID.TID 0000.0001) // CINT =          0.000000000000000E+00
(PID.TID 0000.0001) // SYMBOLS (CMIN->CMAX): -abcdefghijklmnopqrstuvwxyz+
(PID.TID 0000.0001) //                  0.0: .
(PID.TID 0000.0001) // RANGE I (Lo:Hi:Step):(  -3:   6:   1)
(PID.TID 0000.0001) // RANGE J (Lo:Hi:Step):(  68:  -3:  -1)
(PID.TID 0000.0001) // RANGE K (Lo:Hi:Step):(   1:   1:   1)
(PID.TID 0000.0001) // =======================================================
(PID.TID 0000.0001) // =======================================================
(PID.TID 0000.0001) // END OF FIELD                                          =
(PID.TID 0000.0001) // =======================================================
(PID.TID 0000.0001) 
(PID.TID 0000.0001) // =======================================================
(PID.TID 0000.0001) // Field Model Ro_surf (ini_masks_etc) at iteration          1
(PID.TID 0000.0001) // CMIN =          1.000000000000000E+05
(PID.TID 0000.0001) // CMAX =          1.000000000000000E+05
(PID.TID 0000.0001) // CINT =          0.000000000000000E+00
(PID.TID 0000.0001) // SYMBOLS (CMIN->CMAX): -abcdefghijklmnopqrstuvwxyz+
(PID.TID 0000.0001) //                  0.0: .
(PID.TID 0000.0001) // RANGE I (Lo:Hi:Step):(  -3:   6:   1)
(PID.TID 0000.0001) // RANGE J (Lo:Hi:Step):(  68:  -3:  -1)
(PID.TID 0000.0001) // RANGE K (Lo:Hi:Step):(   1:   1:   1)
(PID.TID 0000.0001) // =======================================================
(PID.TID 0000.0001) // =======================================================
(PID.TID 0000.0001) // END OF FIELD                                          =
(PID.TID 0000.0001) // =======================================================
(PID.TID 0000.0001) 
(PID.TID 0000.0001) // =======================================================
(PID.TID 0000.0001) // Field hFacC at iteration          1
(PID.TID 0000.0001) // CMIN =          1.000000000000000E+00
(PID.TID 0000.0001) // CMAX =          1.000000000000000E+00
(PID.TID 0000.0001) // CINT =          0.000000000000000E+00
(PID.TID 0000.0001) // SYMBOLS (CMIN->CMAX): -abcdefghijklmnopqrstuvwxyz+
(PID.TID 0000.0001) //                  0.0: .
(PID.TID 0000.0001) // RANGE I (Lo:Hi:Step):(  -3:   6:   1)
(PID.TID 0000.0001) // RANGE J (Lo:Hi:Step):(  68:  -3:  -1)
(PID.TID 0000.0001) // RANGE K (Lo:Hi:Step):(   1:   1:   1)
(PID.TID 0000.0001) // =======================================================
(PID.TID 0000.0001) // =======================================================
(PID.TID 0000.0001) // END OF FIELD                                          =
(PID.TID 0000.0001) // =======================================================
(PID.TID 0000.0001) 
(PID.TID 0000.0001) // =======================================================
(PID.TID 0000.0001) // Field hFacW at iteration          1
(PID.TID 0000.0001) // CMIN =          1.000000000000000E+00
(PID.TID 0000.0001) // CMAX =          1.000000000000000E+00
(PID.TID 0000.0001) // CINT =          0.000000000000000E+00
(PID.TID 0000.0001) // SYMBOLS (CMIN->CMAX): -abcdefghijklmnopqrstuvwxyz+
(PID.TID 0000.0001) //                  0.0: .
(PID.TID 0000.0001) // RANGE I (Lo:Hi:Step):(  -3:   6:   1)
(PID.TID 0000.0001) // RANGE J (Lo:Hi:Step):(  68:  -3:  -1)
(PID.TID 0000.0001) // RANGE K (Lo:Hi:Step):(   1:   1:   1)
(PID.TID 0000.0001) // =======================================================
(PID.TID 0000.0001) // =======================================================
(PID.TID 0000.0001) // END OF FIELD                                          =
(PID.TID 0000.0001) // =======================================================
(PID.TID 0000.0001) 
(PID.TID 0000.0001) // =======================================================
(PID.TID 0000.0001) // Field hFacS at iteration          1
(PID.TID 0000.0001) // CMIN =          1.000000000000000E+00
(PID.TID 0000.0001) // CMAX =          1.000000000000000E+00
(PID.TID 0000.0001) // CINT =          0.000000000000000E+00
(PID.TID 0000.0001) // SYMBOLS (CMIN->CMAX): -abcdefghijklmnopqrstuvwxyz+
(PID.TID 0000.0001) //                  0.0: .
(PID.TID 0000.0001) // RANGE I (Lo:Hi:Step):(  -3:   6:   1)
(PID.TID 0000.0001) // RANGE J (Lo:Hi:Step):(  68:  -3:  -1)
(PID.TID 0000.0001) // RANGE K (Lo:Hi:Step):(   1:   1:   1)
(PID.TID 0000.0001) // =======================================================
(PID.TID 0000.0001) // =======================================================
(PID.TID 0000.0001) // END OF FIELD                                          =
(PID.TID 0000.0001) // =======================================================
(PID.TID 0000.0001) 
(PID.TID 0000.0001) %MON En_BudgetfCori_max           =   1.4540029928789E-04
(PID.TID 0000.0001) %MON En_BudgetfCori_min           =  -1.4540029928789E-04
(PID.TID 0000.0001) %MON En_BudgetfCori_mean          =  -2.1175823681358E-21
(PID.TID 0000.0001) %MON En_BudgetfCori_sd            =   1.0284451245737E-04
(PID.TID 0000.0001) %MON En_BudgetfCoriG_max          =   1.4526891053949E-04
(PID.TID 0000.0001) %MON En_BudgetfCoriG_min          =  -1.4544410433286E-04
(PID.TID 0000.0001) %MON En_BudgetfCoriG_mean         =  -2.3086365767121E-06
(PID.TID 0000.0001) %MON En_BudgetfCoriG_sd           =   1.0363181330709E-04
(PID.TID 0000.0001) %MON En_BudgetfCoriCos_max        =   1.4540029928789E-04
(PID.TID 0000.0001) %MON En_BudgetfCoriCos_min        =   3.5693770017430E-06
(PID.TID 0000.0001) %MON En_BudgetfCoriCos_mean       =   9.2601889431869E-05
(PID.TID 0000.0001) %MON En_BudgetfCoriCos_sd         =   4.4742416298653E-05
(PID.TID 0000.0001) INI_CG2D: CG2D normalisation factor =  2.2781266630324642E-10
(PID.TID 0000.0001) 
(PID.TID 0000.0001) // =======================================================
(PID.TID 0000.0001) // Field Initial Temperature at iteration          1
(PID.TID 0000.0001) // CMIN =          2.550364452389422E+02
(PID.TID 0000.0001) // CMAX =          3.154764877049333E+02
(PID.TID 0000.0001) // CINT =          2.238520091333004E+00
(PID.TID 0000.0001) // SYMBOLS (CMIN->CMAX): -abcdefghijklmnopqrstuvwxyz+
(PID.TID 0000.0001) //                  0.0: .
(PID.TID 0000.0001) // RANGE I (Lo:Hi:Step):(   1:   2:   1)
(PID.TID 0000.0001) // RANGE J (Lo:Hi:Step):(  64:   1:  -1)
(PID.TID 0000.0001) // RANGE K (Lo:Hi:Step):(   1:   1:   1)
(PID.TID 0000.0001) // =======================================================
(PID.TID 0000.0001) K =   1
(PID.TID 0000.0001) 
(PID.TID 0000.0001) |--J--|12
(PID.TID 0000.0001)     64 --
(PID.TID 0000.0001)     63 --
(PID.TID 0000.0001)     62 --
(PID.TID 0000.0001)     61 aa
(PID.TID 0000.0001)     60 aa
(PID.TID 0000.0001)     59 bb
(PID.TID 0000.0001)     58 cc
(PID.TID 0000.0001)     57 cc
(PID.TID 0000.0001)     56 dd
(PID.TID 0000.0001)     55 ee
(PID.TID 0000.0001)     54 gg
(PID.TID 0000.0001)     53 hh
(PID.TID 0000.0001)     52 ii
(PID.TID 0000.0001)     51 jj
(PID.TID 0000.0001)     50 ll
(PID.TID 0000.0001)     49 mm
(PID.TID 0000.0001)     48 nn
(PID.TID 0000.0001)     47 oo
(PID.TID 0000.0001)     46 qq
(PID.TID 0000.0001)     45 rr
(PID.TID 0000.0001)     44 ss
(PID.TID 0000.0001)     43 tt
(PID.TID 0000.0001)     42 vv
(PID.TID 0000.0001)     41 ww
(PID.TID 0000.0001)     40 xx
(PID.TID 0000.0001)     39 xx
(PID.TID 0000.0001)     38 yy
(PID.TID 0000.0001)     37 zz
(PID.TID 0000.0001)     36 zz
(PID.TID 0000.0001)     35 ++
(PID.TID 0000.0001)     34 ++
(PID.TID 0000.0001)     33 ++
(PID.TID 0000.0001)     32 ++
(PID.TID 0000.0001)     31 ++
(PID.TID 0000.0001)     30 ++
(PID.TID 0000.0001)     29 zz
(PID.TID 0000.0001)     28 zz
(PID.TID 0000.0001)     27 yy
(PID.TID 0000.0001)     26 xx
(PID.TID 0000.0001)     25 xx
(PID.TID 0000.0001)     24 ww
(PID.TID 0000.0001)     23 vv
(PID.TID 0000.0001)     22 tt
(PID.TID 0000.0001)     21 ss
(PID.TID 0000.0001)     20 rr
(PID.TID 0000.0001)     19 qq
(PID.TID 0000.0001)     18 oo
(PID.TID 0000.0001)     17 nn
(PID.TID 0000.0001)     16 mm
(PID.TID 0000.0001)     15 ll
(PID.TID 0000.0001)     14 jj
(PID.TID 0000.0001)     13 ii
(PID.TID 0000.0001)     12 hh
(PID.TID 0000.0001)     11 gg
(PID.TID 0000.0001)     10 ee
(PID.TID 0000.0001)      9 dd
(PID.TID 0000.0001)      8 cc
(PID.TID 0000.0001)      7 cc
(PID.TID 0000.0001)      6 bb
(PID.TID 0000.0001)      5 aa
(PID.TID 0000.0001)      4 aa
(PID.TID 0000.0001)      3 --
(PID.TID 0000.0001)      2 --
(PID.TID 0000.0001)      1 --
(PID.TID 0000.0001) // =======================================================
(PID.TID 0000.0001) // END OF FIELD                                          =
(PID.TID 0000.0001) // =======================================================
(PID.TID 0000.0001) 
(PID.TID 0000.0001) // =======================================================
(PID.TID 0000.0001) // Field Initial Salinity at iteration          1
(PID.TID 0000.0001) // CMIN =          1.000000000000000E+32
(PID.TID 0000.0001) // CMAX =         -1.000000000000000E+32
(PID.TID 0000.0001) // CINT =          0.000000000000000E+00
(PID.TID 0000.0001) // SYMBOLS (CMIN->CMAX): -abcdefghijklmnopqrstuvwxyz+
(PID.TID 0000.0001) //                  0.0: .
(PID.TID 0000.0001) // RANGE I (Lo:Hi:Step):(   1:   2:   1)
(PID.TID 0000.0001) // RANGE J (Lo:Hi:Step):(  64:   1:  -1)
(PID.TID 0000.0001) // RANGE K (Lo:Hi:Step):(   1:   1:   1)
(PID.TID 0000.0001) // =======================================================
(PID.TID 0000.0001) // =======================================================
(PID.TID 0000.0001) // END OF FIELD                                          =
(PID.TID 0000.0001) // =======================================================
(PID.TID 0000.0001) 
(PID.TID 0000.0001) Start initial hydrostatic pressure computation
(PID.TID 0000.0001) Pressure is predetermined for buoyancyRelation ATMOSPHERIC
(PID.TID 0000.0001) 
(PID.TID 0000.0001)  MDS_READ_FIELD: opening file: xx_theta.0000000000.001.001.data
(PID.TID 0000.0001)  MDS_READ_FIELD: opening file: xx_salt.0000000000.001.001.data
(PID.TID 0000.0001)  MDS_READ_FIELD: opening file: xx_diffkr.0000000000.001.001.data
(PID.TID 0000.0001) // =======================================================
(PID.TID 0000.0001) // Model current state
(PID.TID 0000.0001) // =======================================================
(PID.TID 0000.0001) 
 cg2d: Sum(rhs),rhsMax =   4.12864187282480E-16  8.97359314695303E+01
 cg2d: Sum(rhs),rhsMax =  -1.13103970633688E-15  1.89073450912125E+02
 cg2d: Sum(rhs),rhsMax =  -6.93889390390723E-18  3.69983935898367E+02
 cg2d: Sum(rhs),rhsMax =   2.68535194081210E-15  6.00188020663905E+02
 cg2d: Sum(rhs),rhsMax =  -1.45716771982052E-16  8.71578060599239E+02
 cg2d: Sum(rhs),rhsMax =  -7.84095011141517E-16  1.17463757356401E+03
 cg2d: Sum(rhs),rhsMax =  -9.02056207507940E-16  1.49858166122901E+03
 cg2d: Sum(rhs),rhsMax =   8.39606162372775E-16  1.83164888972627E+03
 cg2d: Sum(rhs),rhsMax =   2.87964097012150E-15  2.16161545410165E+03
 cg2d: Sum(rhs),rhsMax =   5.16253706450698E-15  2.47650463658183E+03
objf_test       314.8    1   31    1 TILE     1   31    1    1
objf_test       629.6    2   31    1 TILE     2   31    1    1
objf_test       944.7    1   32    1 TILE     1   32    1    1
objf_test      1259.8    2   32    1 TILE     2   32    1    1
objf_test      1574.9    1   33    1 TILE     1   33    1    1
objf_test      1890.0    2   33    1 TILE     2   33    1    1
objf_test      2204.8    1   34    1 TILE     1   34    1    1
objf_test      2519.6    2   34    1 TILE     2   34    1    1
objf_test      2833.8    1   35    1 TILE     1   35    1    1
objf_test      3148.0    2   35    1 TILE     2   35    1    1
objf_test      3461.4    1   36    1 TILE     1   36    1    1
objf_test      3774.8    2   36    1 TILE     2   36    1    1
objf_test      4087.0    1   37    1 TILE     1   37    1    1
objf_test      4399.2    2   37    1 TILE     2   37    1    1
objf_test      4710.1    1   38    1 TILE     1   38    1    1
objf_test      5020.9    2   38    1 TILE     2   38    1    1
objf_test      5330.1    1   39    1 TILE     1   39    1    1
objf_test      5639.3    2   39    1 TILE     2   39    1    1
 --> objf_test(bi,bj)   =  0.626587786180155E+03
 --> objf_tracer(bi,bj) =  0.000000000000000E+00
 --> objf_atl(bi,bj)    =  0.000000000000000E+00
  local fc =  0.626587786180155E+03
 global fc =  0.626587786180155E+03
(PID.TID 0000.0001)  MDS_READ_FIELD: opening file: xx_theta.0000000000.001.001.data
grad-res -------------------------------
 grad-res     0    2    2    1    1    1    1    1   0.626587786180E+03 0.626587786180E+03 0.626587786180E+03
 grad-res     0    2    2    2  128    1    1    1   0.153706239542E-07 0.153647761181E-07 0.380455353401E-03
(PID.TID 0000.0001)   ADM  precision_derivative_cost =    6.26587786180309E+02
(PID.TID 0000.0001)   ADM  precision_derivative_grad =    1.53706239542449E-08
 ph-grd  ierr ---------------------------
 ph-grd  ierr =  0, icomp =  2, ichknum =  2
 ph-grd -->hit<--  1 2 1 1
(PID.TID 0000.0001)  MDS_READ_FIELD: opening file: adxx_theta.0000000000.001.001.data
(PID.TID 0000.0001)  MDS_READ_FIELD: opening file: xx_theta.0000000000.001.001.data
(PID.TID 0000.0001) // =======================================================
(PID.TID 0000.0001) // Field Model R_low (ini_masks_etc) at iteration          1
(PID.TID 0000.0001) // CMIN =          1.000000000000000E+32
(PID.TID 0000.0001) // CMAX =         -1.000000000000000E+32
(PID.TID 0000.0001) // CINT =          0.000000000000000E+00
(PID.TID 0000.0001) // SYMBOLS (CMIN->CMAX): -abcdefghijklmnopqrstuvwxyz+
(PID.TID 0000.0001) //                  0.0: .
(PID.TID 0000.0001) // RANGE I (Lo:Hi:Step):(  -3:   6:   1)
(PID.TID 0000.0001) // RANGE J (Lo:Hi:Step):(  68:  -3:  -1)
(PID.TID 0000.0001) // RANGE K (Lo:Hi:Step):(   1:   1:   1)
(PID.TID 0000.0001) // =======================================================
(PID.TID 0000.0001) // =======================================================
(PID.TID 0000.0001) // END OF FIELD                                          =
(PID.TID 0000.0001) // =======================================================
(PID.TID 0000.0001) 
(PID.TID 0000.0001) // =======================================================
(PID.TID 0000.0001) // Field Model Ro_surf (ini_masks_etc) at iteration          1
(PID.TID 0000.0001) // CMIN =          1.000000000000000E+05
(PID.TID 0000.0001) // CMAX =          1.000000000000000E+05
(PID.TID 0000.0001) // CINT =          0.000000000000000E+00
(PID.TID 0000.0001) // SYMBOLS (CMIN->CMAX): -abcdefghijklmnopqrstuvwxyz+
(PID.TID 0000.0001) //                  0.0: .
(PID.TID 0000.0001) // RANGE I (Lo:Hi:Step):(  -3:   6:   1)
(PID.TID 0000.0001) // RANGE J (Lo:Hi:Step):(  68:  -3:  -1)
(PID.TID 0000.0001) // RANGE K (Lo:Hi:Step):(   1:   1:   1)
(PID.TID 0000.0001) // =======================================================
(PID.TID 0000.0001) // =======================================================
(PID.TID 0000.0001) // END OF FIELD                                          =
(PID.TID 0000.0001) // =======================================================
(PID.TID 0000.0001) 
(PID.TID 0000.0001) // =======================================================
(PID.TID 0000.0001) // Field hFacC at iteration          1
(PID.TID 0000.0001) // CMIN =          1.000000000000000E+00
(PID.TID 0000.0001) // CMAX =          1.000000000000000E+00
(PID.TID 0000.0001) // CINT =          0.000000000000000E+00
(PID.TID 0000.0001) // SYMBOLS (CMIN->CMAX): -abcdefghijklmnopqrstuvwxyz+
(PID.TID 0000.0001) //                  0.0: .
(PID.TID 0000.0001) // RANGE I (Lo:Hi:Step):(  -3:   6:   1)
(PID.TID 0000.0001) // RANGE J (Lo:Hi:Step):(  68:  -3:  -1)
(PID.TID 0000.0001) // RANGE K (Lo:Hi:Step):(   1:   1:   1)
(PID.TID 0000.0001) // =======================================================
(PID.TID 0000.0001) // =======================================================
(PID.TID 0000.0001) // END OF FIELD                                          =
(PID.TID 0000.0001) // =======================================================
(PID.TID 0000.0001) 
(PID.TID 0000.0001) // =======================================================
(PID.TID 0000.0001) // Field hFacW at iteration          1
(PID.TID 0000.0001) // CMIN =          1.000000000000000E+00
(PID.TID 0000.0001) // CMAX =          1.000000000000000E+00
(PID.TID 0000.0001) // CINT =          0.000000000000000E+00
(PID.TID 0000.0001) // SYMBOLS (CMIN->CMAX): -abcdefghijklmnopqrstuvwxyz+
(PID.TID 0000.0001) //                  0.0: .
(PID.TID 0000.0001) // RANGE I (Lo:Hi:Step):(  -3:   6:   1)
(PID.TID 0000.0001) // RANGE J (Lo:Hi:Step):(  68:  -3:  -1)
(PID.TID 0000.0001) // RANGE K (Lo:Hi:Step):(   1:   1:   1)
(PID.TID 0000.0001) // =======================================================
(PID.TID 0000.0001) // =======================================================
(PID.TID 0000.0001) // END OF FIELD                                          =
(PID.TID 0000.0001) // =======================================================
(PID.TID 0000.0001) 
(PID.TID 0000.0001) // =======================================================
(PID.TID 0000.0001) // Field hFacS at iteration          1
(PID.TID 0000.0001) // CMIN =          1.000000000000000E+00
(PID.TID 0000.0001) // CMAX =          1.000000000000000E+00
(PID.TID 0000.0001) // CINT =          0.000000000000000E+00
(PID.TID 0000.0001) // SYMBOLS (CMIN->CMAX): -abcdefghijklmnopqrstuvwxyz+
(PID.TID 0000.0001) //                  0.0: .
(PID.TID 0000.0001) // RANGE I (Lo:Hi:Step):(  -3:   6:   1)
(PID.TID 0000.0001) // RANGE J (Lo:Hi:Step):(  68:  -3:  -1)
(PID.TID 0000.0001) // RANGE K (Lo:Hi:Step):(   1:   1:   1)
(PID.TID 0000.0001) // =======================================================
(PID.TID 0000.0001) // =======================================================
(PID.TID 0000.0001) // END OF FIELD                                          =
(PID.TID 0000.0001) // =======================================================
(PID.TID 0000.0001) 
(PID.TID 0000.0001) %MON En_BudgetfCori_max           =   1.4540029928789E-04
(PID.TID 0000.0001) %MON En_BudgetfCori_min           =  -1.4540029928789E-04
(PID.TID 0000.0001) %MON En_BudgetfCori_mean          =  -2.1175823681358E-21
(PID.TID 0000.0001) %MON En_BudgetfCori_sd            =   1.0284451245737E-04
(PID.TID 0000.0001) %MON En_BudgetfCoriG_max          =   1.4526891053949E-04
(PID.TID 0000.0001) %MON En_BudgetfCoriG_min          =  -1.4544410433286E-04
(PID.TID 0000.0001) %MON En_BudgetfCoriG_mean         =  -2.3086365767121E-06
(PID.TID 0000.0001) %MON En_BudgetfCoriG_sd           =   1.0363181330709E-04
(PID.TID 0000.0001) %MON En_BudgetfCoriCos_max        =   1.4540029928789E-04
(PID.TID 0000.0001) %MON En_BudgetfCoriCos_min        =   3.5693770017430E-06
(PID.TID 0000.0001) %MON En_BudgetfCoriCos_mean       =   9.2601889431869E-05
(PID.TID 0000.0001) %MON En_BudgetfCoriCos_sd         =   4.4742416298653E-05
(PID.TID 0000.0001) INI_CG2D: CG2D normalisation factor =  2.2781266630324642E-10
(PID.TID 0000.0001) 
(PID.TID 0000.0001) // =======================================================
(PID.TID 0000.0001) // Field Initial Temperature at iteration          1
(PID.TID 0000.0001) // CMIN =          2.550364452389422E+02
(PID.TID 0000.0001) // CMAX =          3.154764877049333E+02
(PID.TID 0000.0001) // CINT =          2.238520091333004E+00
(PID.TID 0000.0001) // SYMBOLS (CMIN->CMAX): -abcdefghijklmnopqrstuvwxyz+
(PID.TID 0000.0001) //                  0.0: .
(PID.TID 0000.0001) // RANGE I (Lo:Hi:Step):(   1:   2:   1)
(PID.TID 0000.0001) // RANGE J (Lo:Hi:Step):(  64:   1:  -1)
(PID.TID 0000.0001) // RANGE K (Lo:Hi:Step):(   1:   1:   1)
(PID.TID 0000.0001) // =======================================================
(PID.TID 0000.0001) K =   1
(PID.TID 0000.0001) 
(PID.TID 0000.0001) |--J--|12
(PID.TID 0000.0001)     64 --
(PID.TID 0000.0001)     63 --
(PID.TID 0000.0001)     62 --
(PID.TID 0000.0001)     61 aa
(PID.TID 0000.0001)     60 aa
(PID.TID 0000.0001)     59 bb
(PID.TID 0000.0001)     58 cc
(PID.TID 0000.0001)     57 cc
(PID.TID 0000.0001)     56 dd
(PID.TID 0000.0001)     55 ee
(PID.TID 0000.0001)     54 gg
(PID.TID 0000.0001)     53 hh
(PID.TID 0000.0001)     52 ii
(PID.TID 0000.0001)     51 jj
(PID.TID 0000.0001)     50 ll
(PID.TID 0000.0001)     49 mm
(PID.TID 0000.0001)     48 nn
(PID.TID 0000.0001)     47 oo
(PID.TID 0000.0001)     46 qq
(PID.TID 0000.0001)     45 rr
(PID.TID 0000.0001)     44 ss
(PID.TID 0000.0001)     43 tt
(PID.TID 0000.0001)     42 vv
(PID.TID 0000.0001)     41 ww
(PID.TID 0000.0001)     40 xx
(PID.TID 0000.0001)     39 xx
(PID.TID 0000.0001)     38 yy
(PID.TID 0000.0001)     37 zz
(PID.TID 0000.0001)     36 zz
(PID.TID 0000.0001)     35 ++
(PID.TID 0000.0001)     34 ++
(PID.TID 0000.0001)     33 ++
(PID.TID 0000.0001)     32 ++
(PID.TID 0000.0001)     31 ++
(PID.TID 0000.0001)     30 ++
(PID.TID 0000.0001)     29 zz
(PID.TID 0000.0001)     28 zz
(PID.TID 0000.0001)     27 yy
(PID.TID 0000.0001)     26 xx
(PID.TID 0000.0001)     25 xx
(PID.TID 0000.0001)     24 ww
(PID.TID 0000.0001)     23 vv
(PID.TID 0000.0001)     22 tt
(PID.TID 0000.0001)     21 ss
(PID.TID 0000.0001)     20 rr
(PID.TID 0000.0001)     19 qq
(PID.TID 0000.0001)     18 oo
(PID.TID 0000.0001)     17 nn
(PID.TID 0000.0001)     16 mm
(PID.TID 0000.0001)     15 ll
(PID.TID 0000.0001)     14 jj
(PID.TID 0000.0001)     13 ii
(PID.TID 0000.0001)     12 hh
(PID.TID 0000.0001)     11 gg
(PID.TID 0000.0001)     10 ee
(PID.TID 0000.0001)      9 dd
(PID.TID 0000.0001)      8 cc
(PID.TID 0000.0001)      7 cc
(PID.TID 0000.0001)      6 bb
(PID.TID 0000.0001)      5 aa
(PID.TID 0000.0001)      4 aa
(PID.TID 0000.0001)      3 --
(PID.TID 0000.0001)      2 --
(PID.TID 0000.0001)      1 --
(PID.TID 0000.0001) // =======================================================
(PID.TID 0000.0001) // END OF FIELD                                          =
(PID.TID 0000.0001) // =======================================================
(PID.TID 0000.0001) 
(PID.TID 0000.0001) // =======================================================
(PID.TID 0000.0001) // Field Initial Salinity at iteration          1
(PID.TID 0000.0001) // CMIN =          1.000000000000000E+32
(PID.TID 0000.0001) // CMAX =         -1.000000000000000E+32
(PID.TID 0000.0001) // CINT =          0.000000000000000E+00
(PID.TID 0000.0001) // SYMBOLS (CMIN->CMAX): -abcdefghijklmnopqrstuvwxyz+
(PID.TID 0000.0001) //                  0.0: .
(PID.TID 0000.0001) // RANGE I (Lo:Hi:Step):(   1:   2:   1)
(PID.TID 0000.0001) // RANGE J (Lo:Hi:Step):(  64:   1:  -1)
(PID.TID 0000.0001) // RANGE K (Lo:Hi:Step):(   1:   1:   1)
(PID.TID 0000.0001) // =======================================================
(PID.TID 0000.0001) // =======================================================
(PID.TID 0000.0001) // END OF FIELD                                          =
(PID.TID 0000.0001) // =======================================================
(PID.TID 0000.0001) 
(PID.TID 0000.0001) Start initial hydrostatic pressure computation
(PID.TID 0000.0001) Pressure is predetermined for buoyancyRelation ATMOSPHERIC
(PID.TID 0000.0001) 
(PID.TID 0000.0001)  MDS_READ_FIELD: opening file: xx_theta.0000000000.001.001.data
(PID.TID 0000.0001)  MDS_READ_FIELD: opening file: xx_salt.0000000000.001.001.data
(PID.TID 0000.0001)  MDS_READ_FIELD: opening file: xx_diffkr.0000000000.001.001.data
(PID.TID 0000.0001) // =======================================================
(PID.TID 0000.0001) // Model current state
(PID.TID 0000.0001) // =======================================================
(PID.TID 0000.0001) 
 cg2d: Sum(rhs),rhsMax =   4.12864187282480E-16  8.97359314695303E+01
 cg2d: Sum(rhs),rhsMax =  -7.28583859910259E-16  1.89073450912124E+02
 cg2d: Sum(rhs),rhsMax =  -1.20042864537595E-15  3.69983935898346E+02
 cg2d: Sum(rhs),rhsMax =   1.43635103810880E-15  6.00188020663691E+02
 cg2d: Sum(rhs),rhsMax =   5.62050406216485E-16  8.71578060597472E+02
 cg2d: Sum(rhs),rhsMax =   8.74300631892311E-16  1.17463757355380E+03
 cg2d: Sum(rhs),rhsMax =   2.17881268582687E-15  1.49858166118168E+03
 cg2d: Sum(rhs),rhsMax =   4.51028103753970E-16  1.83164888954285E+03
 cg2d: Sum(rhs),rhsMax =   3.83026943495679E-15  2.16161545349290E+03
 cg2d: Sum(rhs),rhsMax =   7.05685510027365E-15  2.47650463481223E+03
objf_test       314.8    1   31    1 TILE     1   31    1    1
objf_test       629.6    2   31    1 TILE     2   31    1    1
objf_test       944.7    1   32    1 TILE     1   32    1    1
objf_test      1259.8    2   32    1 TILE     2   32    1    1
objf_test      1574.9    1   33    1 TILE     1   33    1    1
objf_test      1890.0    2   33    1 TILE     2   33    1    1
objf_test      2204.8    1   34    1 TILE     1   34    1    1
objf_test      2519.6    2   34    1 TILE     2   34    1    1
objf_test      2833.8    1   35    1 TILE     1   35    1    1
objf_test      3148.0    2   35    1 TILE     2   35    1    1
objf_test      3461.4    1   36    1 TILE     1   36    1    1
objf_test      3774.8    2   36    1 TILE     2   36    1    1
objf_test      4087.0    1   37    1 TILE     1   37    1    1
objf_test      4399.2    2   37    1 TILE     2   37    1    1
objf_test      4710.1    1   38    1 TILE     1   38    1    1
objf_test      5020.9    2   38    1 TILE     2   38    1    1
objf_test      5330.1    1   39    1 TILE     1   39    1    1
objf_test      5639.3    2   39    1 TILE     2   39    1    1
 --> objf_test(bi,bj)   =  0.626587786180795E+03
 --> objf_tracer(bi,bj) =  0.000000000000000E+00
 --> objf_atl(bi,bj)    =  0.000000000000000E+00
  local fc =  0.626587786180795E+03
 global fc =  0.626587786180795E+03
 ph-check fcpertplus =   626.587786
(PID.TID 0000.0001)  MDS_READ_FIELD: opening file: xx_theta.0000000000.001.001.data
 ph-check fcpertminus =   626.587786
(PID.TID 0000.0001)  MDS_READ_FIELD: opening file: xx_theta.0000000000.001.001.data
(PID.TID 0000.0001) // =======================================================
(PID.TID 0000.0001) // Field Model R_low (ini_masks_etc) at iteration          1
(PID.TID 0000.0001) // CMIN =          1.000000000000000E+32
(PID.TID 0000.0001) // CMAX =         -1.000000000000000E+32
(PID.TID 0000.0001) // CINT =          0.000000000000000E+00
(PID.TID 0000.0001) // SYMBOLS (CMIN->CMAX): -abcdefghijklmnopqrstuvwxyz+
(PID.TID 0000.0001) //                  0.0: .
(PID.TID 0000.0001) // RANGE I (Lo:Hi:Step):(  -3:   6:   1)
(PID.TID 0000.0001) // RANGE J (Lo:Hi:Step):(  68:  -3:  -1)
(PID.TID 0000.0001) // RANGE K (Lo:Hi:Step):(   1:   1:   1)
(PID.TID 0000.0001) // =======================================================
(PID.TID 0000.0001) // =======================================================
(PID.TID 0000.0001) // END OF FIELD                                          =
(PID.TID 0000.0001) // =======================================================
(PID.TID 0000.0001) 
(PID.TID 0000.0001) // =======================================================
(PID.TID 0000.0001) // Field Model Ro_surf (ini_masks_etc) at iteration          1
(PID.TID 0000.0001) // CMIN =          1.000000000000000E+05
(PID.TID 0000.0001) // CMAX =          1.000000000000000E+05
(PID.TID 0000.0001) // CINT =          0.000000000000000E+00
(PID.TID 0000.0001) // SYMBOLS (CMIN->CMAX): -abcdefghijklmnopqrstuvwxyz+
(PID.TID 0000.0001) //                  0.0: .
(PID.TID 0000.0001) // RANGE I (Lo:Hi:Step):(  -3:   6:   1)
(PID.TID 0000.0001) // RANGE J (Lo:Hi:Step):(  68:  -3:  -1)
(PID.TID 0000.0001) // RANGE K (Lo:Hi:Step):(   1:   1:   1)
(PID.TID 0000.0001) // =======================================================
(PID.TID 0000.0001) // =======================================================
(PID.TID 0000.0001) // END OF FIELD                                          =
(PID.TID 0000.0001) // =======================================================
(PID.TID 0000.0001) 
(PID.TID 0000.0001) // =======================================================
(PID.TID 0000.0001) // Field hFacC at iteration          1
(PID.TID 0000.0001) // CMIN =          1.000000000000000E+00
(PID.TID 0000.0001) // CMAX =          1.000000000000000E+00
(PID.TID 0000.0001) // CINT =          0.000000000000000E+00
(PID.TID 0000.0001) // SYMBOLS (CMIN->CMAX): -abcdefghijklmnopqrstuvwxyz+
(PID.TID 0000.0001) //                  0.0: .
(PID.TID 0000.0001) // RANGE I (Lo:Hi:Step):(  -3:   6:   1)
(PID.TID 0000.0001) // RANGE J (Lo:Hi:Step):(  68:  -3:  -1)
(PID.TID 0000.0001) // RANGE K (Lo:Hi:Step):(   1:   1:   1)
(PID.TID 0000.0001) // =======================================================
(PID.TID 0000.0001) // =======================================================
(PID.TID 0000.0001) // END OF FIELD                                          =
(PID.TID 0000.0001) // =======================================================
(PID.TID 0000.0001) 
(PID.TID 0000.0001) // =======================================================
(PID.TID 0000.0001) // Field hFacW at iteration          1
(PID.TID 0000.0001) // CMIN =          1.000000000000000E+00
(PID.TID 0000.0001) // CMAX =          1.000000000000000E+00
(PID.TID 0000.0001) // CINT =          0.000000000000000E+00
(PID.TID 0000.0001) // SYMBOLS (CMIN->CMAX): -abcdefghijklmnopqrstuvwxyz+
(PID.TID 0000.0001) //                  0.0: .
(PID.TID 0000.0001) // RANGE I (Lo:Hi:Step):(  -3:   6:   1)
(PID.TID 0000.0001) // RANGE J (Lo:Hi:Step):(  68:  -3:  -1)
(PID.TID 0000.0001) // RANGE K (Lo:Hi:Step):(   1:   1:   1)
(PID.TID 0000.0001) // =======================================================
(PID.TID 0000.0001) // =======================================================
(PID.TID 0000.0001) // END OF FIELD                                          =
(PID.TID 0000.0001) // =======================================================
(PID.TID 0000.0001) 
(PID.TID 0000.0001) // =======================================================
(PID.TID 0000.0001) // Field hFacS at iteration          1
(PID.TID 0000.0001) // CMIN =          1.000000000000000E+00
(PID.TID 0000.0001) // CMAX =          1.000000000000000E+00
(PID.TID 0000.0001) // CINT =          0.000000000000000E+00
(PID.TID 0000.0001) // SYMBOLS (CMIN->CMAX): -abcdefghijklmnopqrstuvwxyz+
(PID.TID 0000.0001) //                  0.0: .
(PID.TID 0000.0001) // RANGE I (Lo:Hi:Step):(  -3:   6:   1)
(PID.TID 0000.0001) // RANGE J (Lo:Hi:Step):(  68:  -3:  -1)
(PID.TID 0000.0001) // RANGE K (Lo:Hi:Step):(   1:   1:   1)
(PID.TID 0000.0001) // =======================================================
(PID.TID 0000.0001) // =======================================================
(PID.TID 0000.0001) // END OF FIELD                                          =
(PID.TID 0000.0001) // =======================================================
(PID.TID 0000.0001) 
(PID.TID 0000.0001) %MON En_BudgetfCori_max           =   1.4540029928789E-04
(PID.TID 0000.0001) %MON En_BudgetfCori_min           =  -1.4540029928789E-04
(PID.TID 0000.0001) %MON En_BudgetfCori_mean          =  -2.1175823681358E-21
(PID.TID 0000.0001) %MON En_BudgetfCori_sd            =   1.0284451245737E-04
(PID.TID 0000.0001) %MON En_BudgetfCoriG_max          =   1.4526891053949E-04
(PID.TID 0000.0001) %MON En_BudgetfCoriG_min          =  -1.4544410433286E-04
(PID.TID 0000.0001) %MON En_BudgetfCoriG_mean         =  -2.3086365767121E-06
(PID.TID 0000.0001) %MON En_BudgetfCoriG_sd           =   1.0363181330709E-04
(PID.TID 0000.0001) %MON En_BudgetfCoriCos_max        =   1.4540029928789E-04
(PID.TID 0000.0001) %MON En_BudgetfCoriCos_min        =   3.5693770017430E-06
(PID.TID 0000.0001) %MON En_BudgetfCoriCos_mean       =   9.2601889431869E-05
(PID.TID 0000.0001) %MON En_BudgetfCoriCos_sd         =   4.4742416298653E-05
(PID.TID 0000.0001) INI_CG2D: CG2D normalisation factor =  2.2781266630324642E-10
(PID.TID 0000.0001) 
(PID.TID 0000.0001) // =======================================================
(PID.TID 0000.0001) // Field Initial Temperature at iteration          1
(PID.TID 0000.0001) // CMIN =          2.550364452389422E+02
(PID.TID 0000.0001) // CMAX =          3.154764877049333E+02
(PID.TID 0000.0001) // CINT =          2.238520091333004E+00
(PID.TID 0000.0001) // SYMBOLS (CMIN->CMAX): -abcdefghijklmnopqrstuvwxyz+
(PID.TID 0000.0001) //                  0.0: .
(PID.TID 0000.0001) // RANGE I (Lo:Hi:Step):(   1:   2:   1)
(PID.TID 0000.0001) // RANGE J (Lo:Hi:Step):(  64:   1:  -1)
(PID.TID 0000.0001) // RANGE K (Lo:Hi:Step):(   1:   1:   1)
(PID.TID 0000.0001) // =======================================================
(PID.TID 0000.0001) K =   1
(PID.TID 0000.0001) 
(PID.TID 0000.0001) |--J--|12
(PID.TID 0000.0001)     64 --
(PID.TID 0000.0001)     63 --
(PID.TID 0000.0001)     62 --
(PID.TID 0000.0001)     61 aa
(PID.TID 0000.0001)     60 aa
(PID.TID 0000.0001)     59 bb
(PID.TID 0000.0001)     58 cc
(PID.TID 0000.0001)     57 cc
(PID.TID 0000.0001)     56 dd
(PID.TID 0000.0001)     55 ee
(PID.TID 0000.0001)     54 gg
(PID.TID 0000.0001)     53 hh
(PID.TID 0000.0001)     52 ii
(PID.TID 0000.0001)     51 jj
(PID.TID 0000.0001)     50 ll
(PID.TID 0000.0001)     49 mm
(PID.TID 0000.0001)     48 nn
(PID.TID 0000.0001)     47 oo
(PID.TID 0000.0001)     46 qq
(PID.TID 0000.0001)     45 rr
(PID.TID 0000.0001)     44 ss
(PID.TID 0000.0001)     43 tt
(PID.TID 0000.0001)     42 vv
(PID.TID 0000.0001)     41 ww
(PID.TID 0000.0001)     40 xx
(PID.TID 0000.0001)     39 xx
(PID.TID 0000.0001)     38 yy
(PID.TID 0000.0001)     37 zz
(PID.TID 0000.0001)     36 zz
(PID.TID 0000.0001)     35 ++
(PID.TID 0000.0001)     34 ++
(PID.TID 0000.0001)     33 ++
(PID.TID 0000.0001)     32 ++
(PID.TID 0000.0001)     31 ++
(PID.TID 0000.0001)     30 ++
(PID.TID 0000.0001)     29 zz
(PID.TID 0000.0001)     28 zz
(PID.TID 0000.0001)     27 yy
(PID.TID 0000.0001)     26 xx
(PID.TID 0000.0001)     25 xx
(PID.TID 0000.0001)     24 ww
(PID.TID 0000.0001)     23 vv
(PID.TID 0000.0001)     22 tt
(PID.TID 0000.0001)     21 ss
(PID.TID 0000.0001)     20 rr
(PID.TID 0000.0001)     19 qq
(PID.TID 0000.0001)     18 oo
(PID.TID 0000.0001)     17 nn
(PID.TID 0000.0001)     16 mm
(PID.TID 0000.0001)     15 ll
(PID.TID 0000.0001)     14 jj
(PID.TID 0000.0001)     13 ii
(PID.TID 0000.0001)     12 hh
(PID.TID 0000.0001)     11 gg
(PID.TID 0000.0001)     10 ee
(PID.TID 0000.0001)      9 dd
(PID.TID 0000.0001)      8 cc
(PID.TID 0000.0001)      7 cc
(PID.TID 0000.0001)      6 bb
(PID.TID 0000.0001)      5 aa
(PID.TID 0000.0001)      4 aa
(PID.TID 0000.0001)      3 --
(PID.TID 0000.0001)      2 --
(PID.TID 0000.0001)      1 --
(PID.TID 0000.0001) // =======================================================
(PID.TID 0000.0001) // END OF FIELD                                          =
(PID.TID 0000.0001) // =======================================================
(PID.TID 0000.0001) 
(PID.TID 0000.0001) // =======================================================
(PID.TID 0000.0001) // Field Initial Salinity at iteration          1
(PID.TID 0000.0001) // CMIN =          1.000000000000000E+32
(PID.TID 0000.0001) // CMAX =         -1.000000000000000E+32
(PID.TID 0000.0001) // CINT =          0.000000000000000E+00
(PID.TID 0000.0001) // SYMBOLS (CMIN->CMAX): -abcdefghijklmnopqrstuvwxyz+
(PID.TID 0000.0001) //                  0.0: .
(PID.TID 0000.0001) // RANGE I (Lo:Hi:Step):(   1:   2:   1)
(PID.TID 0000.0001) // RANGE J (Lo:Hi:Step):(  64:   1:  -1)
(PID.TID 0000.0001) // RANGE K (Lo:Hi:Step):(   1:   1:   1)
(PID.TID 0000.0001) // =======================================================
(PID.TID 0000.0001) // =======================================================
(PID.TID 0000.0001) // END OF FIELD                                          =
(PID.TID 0000.0001) // =======================================================
(PID.TID 0000.0001) 
(PID.TID 0000.0001) Start initial hydrostatic pressure computation
(PID.TID 0000.0001) Pressure is predetermined for buoyancyRelation ATMOSPHERIC
(PID.TID 0000.0001) 
(PID.TID 0000.0001)  MDS_READ_FIELD: opening file: xx_theta.0000000000.001.001.data
(PID.TID 0000.0001)  MDS_READ_FIELD: opening file: xx_salt.0000000000.001.001.data
(PID.TID 0000.0001)  MDS_READ_FIELD: opening file: xx_diffkr.0000000000.001.001.data
(PID.TID 0000.0001) // =======================================================
(PID.TID 0000.0001) // Model current state
(PID.TID 0000.0001) // =======================================================
(PID.TID 0000.0001) 
 cg2d: Sum(rhs),rhsMax =   4.12864187282480E-16  8.97359314695303E+01
 cg2d: Sum(rhs),rhsMax =  -9.78384040450919E-16  1.89073450912126E+02
 cg2d: Sum(rhs),rhsMax =  -8.25728374564960E-16  3.69983935898386E+02
 cg2d: Sum(rhs),rhsMax =  -2.26207941267376E-15  6.00188020664139E+02
 cg2d: Sum(rhs),rhsMax =   4.55191440096314E-15  8.71578060600879E+02
 cg2d: Sum(rhs),rhsMax =   1.02001740387436E-15  1.17463757357311E+03
 cg2d: Sum(rhs),rhsMax =  -2.62290189567693E-15  1.49858166126972E+03
 cg2d: Sum(rhs),rhsMax =   2.65759636519647E-15  1.83164888987740E+03
 cg2d: Sum(rhs),rhsMax =   7.68829444552921E-15  2.16161545458412E+03
 cg2d: Sum(rhs),rhsMax =   8.51402282009417E-15  2.47650463793198E+03
objf_test       314.8    1   31    1 TILE     1   31    1    1
objf_test       629.6    2   31    1 TILE     2   31    1    1
objf_test       944.7    1   32    1 TILE     1   32    1    1
objf_test      1259.8    2   32    1 TILE     2   32    1    1
objf_test      1574.9    1   33    1 TILE     1   33    1    1
objf_test      1890.0    2   33    1 TILE     2   33    1    1
objf_test      2204.8    1   34    1 TILE     1   34    1    1
objf_test      2519.6    2   34    1 TILE     2   34    1    1
objf_test      2833.8    1   35    1 TILE     1   35    1    1
objf_test      3148.0    2   35    1 TILE     2   35    1    1
objf_test      3461.4    1   36    1 TILE     1   36    1    1
objf_test      3774.8    2   36    1 TILE     2   36    1    1
objf_test      4087.0    1   37    1 TILE     1   37    1    1
objf_test      4399.2    2   37    1 TILE     2   37    1    1
objf_test      4710.1    1   38    1 TILE     1   38    1    1
objf_test      5020.9    2   38    1 TILE     2   38    1    1
objf_test      5330.1    1   39    1 TILE     1   39    1    1
objf_test      5639.3    2   39    1 TILE     2   39    1    1
 --> objf_test(bi,bj)   =  0.626587786179823E+03
 --> objf_tracer(bi,bj) =  0.000000000000000E+00
 --> objf_atl(bi,bj)    =  0.000000000000000E+00
  local fc =  0.626587786179823E+03
 global fc =  0.626587786179823E+03
(PID.TID 0000.0001)  MDS_READ_FIELD: opening file: xx_theta.0000000000.001.001.data
grad-res -------------------------------
 grad-res     0    3    1    2    1    1    1    1   0.626587786180E+03 0.626587786181E+03 0.626587786180E+03
 grad-res     0    3    3    3  128    1    1    1   0.486580778889E-07 0.486465978611E-07 0.235932620295E-03
(PID.TID 0000.0001)   ADM  precision_derivative_cost =    6.26587786180309E+02
(PID.TID 0000.0001)   ADM  precision_derivative_grad =    4.86580778888943E-08
 ph-grd  ierr ---------------------------
 ph-grd  ierr =  0, icomp =  3, ichknum =  3
 ph-grd -->hit<--  2 2 1 1
(PID.TID 0000.0001)  MDS_READ_FIELD: opening file: adxx_theta.0000000000.001.001.data
(PID.TID 0000.0001)  MDS_READ_FIELD: opening file: xx_theta.0000000000.001.001.data
(PID.TID 0000.0001) // =======================================================
(PID.TID 0000.0001) // Field Model R_low (ini_masks_etc) at iteration          1
(PID.TID 0000.0001) // CMIN =          1.000000000000000E+32
(PID.TID 0000.0001) // CMAX =         -1.000000000000000E+32
(PID.TID 0000.0001) // CINT =          0.000000000000000E+00
(PID.TID 0000.0001) // SYMBOLS (CMIN->CMAX): -abcdefghijklmnopqrstuvwxyz+
(PID.TID 0000.0001) //                  0.0: .
(PID.TID 0000.0001) // RANGE I (Lo:Hi:Step):(  -3:   6:   1)
(PID.TID 0000.0001) // RANGE J (Lo:Hi:Step):(  68:  -3:  -1)
(PID.TID 0000.0001) // RANGE K (Lo:Hi:Step):(   1:   1:   1)
(PID.TID 0000.0001) // =======================================================
(PID.TID 0000.0001) // =======================================================
(PID.TID 0000.0001) // END OF FIELD                                          =
(PID.TID 0000.0001) // =======================================================
(PID.TID 0000.0001) 
(PID.TID 0000.0001) // =======================================================
(PID.TID 0000.0001) // Field Model Ro_surf (ini_masks_etc) at iteration          1
(PID.TID 0000.0001) // CMIN =          1.000000000000000E+05
(PID.TID 0000.0001) // CMAX =          1.000000000000000E+05
(PID.TID 0000.0001) // CINT =          0.000000000000000E+00
(PID.TID 0000.0001) // SYMBOLS (CMIN->CMAX): -abcdefghijklmnopqrstuvwxyz+
(PID.TID 0000.0001) //                  0.0: .
(PID.TID 0000.0001) // RANGE I (Lo:Hi:Step):(  -3:   6:   1)
(PID.TID 0000.0001) // RANGE J (Lo:Hi:Step):(  68:  -3:  -1)
(PID.TID 0000.0001) // RANGE K (Lo:Hi:Step):(   1:   1:   1)
(PID.TID 0000.0001) // =======================================================
(PID.TID 0000.0001) // =======================================================
(PID.TID 0000.0001) // END OF FIELD                                          =
(PID.TID 0000.0001) // =======================================================
(PID.TID 0000.0001) 
(PID.TID 0000.0001) // =======================================================
(PID.TID 0000.0001) // Field hFacC at iteration          1
(PID.TID 0000.0001) // CMIN =          1.000000000000000E+00
(PID.TID 0000.0001) // CMAX =          1.000000000000000E+00
(PID.TID 0000.0001) // CINT =          0.000000000000000E+00
(PID.TID 0000.0001) // SYMBOLS (CMIN->CMAX): -abcdefghijklmnopqrstuvwxyz+
(PID.TID 0000.0001) //                  0.0: .
(PID.TID 0000.0001) // RANGE I (Lo:Hi:Step):(  -3:   6:   1)
(PID.TID 0000.0001) // RANGE J (Lo:Hi:Step):(  68:  -3:  -1)
(PID.TID 0000.0001) // RANGE K (Lo:Hi:Step):(   1:   1:   1)
(PID.TID 0000.0001) // =======================================================
(PID.TID 0000.0001) // =======================================================
(PID.TID 0000.0001) // END OF FIELD                                          =
(PID.TID 0000.0001) // =======================================================
(PID.TID 0000.0001) 
(PID.TID 0000.0001) // =======================================================
(PID.TID 0000.0001) // Field hFacW at iteration          1
(PID.TID 0000.0001) // CMIN =          1.000000000000000E+00
(PID.TID 0000.0001) // CMAX =          1.000000000000000E+00
(PID.TID 0000.0001) // CINT =          0.000000000000000E+00
(PID.TID 0000.0001) // SYMBOLS (CMIN->CMAX): -abcdefghijklmnopqrstuvwxyz+
(PID.TID 0000.0001) //                  0.0: .
(PID.TID 0000.0001) // RANGE I (Lo:Hi:Step):(  -3:   6:   1)
(PID.TID 0000.0001) // RANGE J (Lo:Hi:Step):(  68:  -3:  -1)
(PID.TID 0000.0001) // RANGE K (Lo:Hi:Step):(   1:   1:   1)
(PID.TID 0000.0001) // =======================================================
(PID.TID 0000.0001) // =======================================================
(PID.TID 0000.0001) // END OF FIELD                                          =
(PID.TID 0000.0001) // =======================================================
(PID.TID 0000.0001) 
(PID.TID 0000.0001) // =======================================================
(PID.TID 0000.0001) // Field hFacS at iteration          1
(PID.TID 0000.0001) // CMIN =          1.000000000000000E+00
(PID.TID 0000.0001) // CMAX =          1.000000000000000E+00
(PID.TID 0000.0001) // CINT =          0.000000000000000E+00
(PID.TID 0000.0001) // SYMBOLS (CMIN->CMAX): -abcdefghijklmnopqrstuvwxyz+
(PID.TID 0000.0001) //                  0.0: .
(PID.TID 0000.0001) // RANGE I (Lo:Hi:Step):(  -3:   6:   1)
(PID.TID 0000.0001) // RANGE J (Lo:Hi:Step):(  68:  -3:  -1)
(PID.TID 0000.0001) // RANGE K (Lo:Hi:Step):(   1:   1:   1)
(PID.TID 0000.0001) // =======================================================
(PID.TID 0000.0001) // =======================================================
(PID.TID 0000.0001) // END OF FIELD                                          =
(PID.TID 0000.0001) // =======================================================
(PID.TID 0000.0001) 
(PID.TID 0000.0001) %MON En_BudgetfCori_max           =   1.4540029928789E-04
(PID.TID 0000.0001) %MON En_BudgetfCori_min           =  -1.4540029928789E-04
(PID.TID 0000.0001) %MON En_BudgetfCori_mean          =  -2.1175823681358E-21
(PID.TID 0000.0001) %MON En_BudgetfCori_sd            =   1.0284451245737E-04
(PID.TID 0000.0001) %MON En_BudgetfCoriG_max          =   1.4526891053949E-04
(PID.TID 0000.0001) %MON En_BudgetfCoriG_min          =  -1.4544410433286E-04
(PID.TID 0000.0001) %MON En_BudgetfCoriG_mean         =  -2.3086365767121E-06
(PID.TID 0000.0001) %MON En_BudgetfCoriG_sd           =   1.0363181330709E-04
(PID.TID 0000.0001) %MON En_BudgetfCoriCos_max        =   1.4540029928789E-04
(PID.TID 0000.0001) %MON En_BudgetfCoriCos_min        =   3.5693770017430E-06
(PID.TID 0000.0001) %MON En_BudgetfCoriCos_mean       =   9.2601889431869E-05
(PID.TID 0000.0001) %MON En_BudgetfCoriCos_sd         =   4.4742416298653E-05
(PID.TID 0000.0001) INI_CG2D: CG2D normalisation factor =  2.2781266630324642E-10
(PID.TID 0000.0001) 
(PID.TID 0000.0001) // =======================================================
(PID.TID 0000.0001) // Field Initial Temperature at iteration          1
(PID.TID 0000.0001) // CMIN =          2.550364452389422E+02
(PID.TID 0000.0001) // CMAX =          3.154764877049333E+02
(PID.TID 0000.0001) // CINT =          2.238520091333004E+00
(PID.TID 0000.0001) // SYMBOLS (CMIN->CMAX): -abcdefghijklmnopqrstuvwxyz+
(PID.TID 0000.0001) //                  0.0: .
(PID.TID 0000.0001) // RANGE I (Lo:Hi:Step):(   1:   2:   1)
(PID.TID 0000.0001) // RANGE J (Lo:Hi:Step):(  64:   1:  -1)
(PID.TID 0000.0001) // RANGE K (Lo:Hi:Step):(   1:   1:   1)
(PID.TID 0000.0001) // =======================================================
(PID.TID 0000.0001) K =   1
(PID.TID 0000.0001) 
(PID.TID 0000.0001) |--J--|12
(PID.TID 0000.0001)     64 --
(PID.TID 0000.0001)     63 --
(PID.TID 0000.0001)     62 --
(PID.TID 0000.0001)     61 aa
(PID.TID 0000.0001)     60 aa
(PID.TID 0000.0001)     59 bb
(PID.TID 0000.0001)     58 cc
(PID.TID 0000.0001)     57 cc
(PID.TID 0000.0001)     56 dd
(PID.TID 0000.0001)     55 ee
(PID.TID 0000.0001)     54 gg
(PID.TID 0000.0001)     53 hh
(PID.TID 0000.0001)     52 ii
(PID.TID 0000.0001)     51 jj
(PID.TID 0000.0001)     50 ll
(PID.TID 0000.0001)     49 mm
(PID.TID 0000.0001)     48 nn
(PID.TID 0000.0001)     47 oo
(PID.TID 0000.0001)     46 qq
(PID.TID 0000.0001)     45 rr
(PID.TID 0000.0001)     44 ss
(PID.TID 0000.0001)     43 tt
(PID.TID 0000.0001)     42 vv
(PID.TID 0000.0001)     41 ww
(PID.TID 0000.0001)     40 xx
(PID.TID 0000.0001)     39 xx
(PID.TID 0000.0001)     38 yy
(PID.TID 0000.0001)     37 zz
(PID.TID 0000.0001)     36 zz
(PID.TID 0000.0001)     35 ++
(PID.TID 0000.0001)     34 ++
(PID.TID 0000.0001)     33 ++
(PID.TID 0000.0001)     32 ++
(PID.TID 0000.0001)     31 ++
(PID.TID 0000.0001)     30 ++
(PID.TID 0000.0001)     29 zz
(PID.TID 0000.0001)     28 zz
(PID.TID 0000.0001)     27 yy
(PID.TID 0000.0001)     26 xx
(PID.TID 0000.0001)     25 xx
(PID.TID 0000.0001)     24 ww
(PID.TID 0000.0001)     23 vv
(PID.TID 0000.0001)     22 tt
(PID.TID 0000.0001)     21 ss
(PID.TID 0000.0001)     20 rr
(PID.TID 0000.0001)     19 qq
(PID.TID 0000.0001)     18 oo
(PID.TID 0000.0001)     17 nn
(PID.TID 0000.0001)     16 mm
(PID.TID 0000.0001)     15 ll
(PID.TID 0000.0001)     14 jj
(PID.TID 0000.0001)     13 ii
(PID.TID 0000.0001)     12 hh
(PID.TID 0000.0001)     11 gg
(PID.TID 0000.0001)     10 ee
(PID.TID 0000.0001)      9 dd
(PID.TID 0000.0001)      8 cc
(PID.TID 0000.0001)      7 cc
(PID.TID 0000.0001)      6 bb
(PID.TID 0000.0001)      5 aa
(PID.TID 0000.0001)      4 aa
(PID.TID 0000.0001)      3 --
(PID.TID 0000.0001)      2 --
(PID.TID 0000.0001)      1 --
(PID.TID 0000.0001) // =======================================================
(PID.TID 0000.0001) // END OF FIELD                                          =
(PID.TID 0000.0001) // =======================================================
(PID.TID 0000.0001) 
(PID.TID 0000.0001) // =======================================================
(PID.TID 0000.0001) // Field Initial Salinity at iteration          1
(PID.TID 0000.0001) // CMIN =          1.000000000000000E+32
(PID.TID 0000.0001) // CMAX =         -1.000000000000000E+32
(PID.TID 0000.0001) // CINT =          0.000000000000000E+00
(PID.TID 0000.0001) // SYMBOLS (CMIN->CMAX): -abcdefghijklmnopqrstuvwxyz+
(PID.TID 0000.0001) //                  0.0: .
(PID.TID 0000.0001) // RANGE I (Lo:Hi:Step):(   1:   2:   1)
(PID.TID 0000.0001) // RANGE J (Lo:Hi:Step):(  64:   1:  -1)
(PID.TID 0000.0001) // RANGE K (Lo:Hi:Step):(   1:   1:   1)
(PID.TID 0000.0001) // =======================================================
(PID.TID 0000.0001) // =======================================================
(PID.TID 0000.0001) // END OF FIELD                                          =
(PID.TID 0000.0001) // =======================================================
(PID.TID 0000.0001) 
(PID.TID 0000.0001) Start initial hydrostatic pressure computation
(PID.TID 0000.0001) Pressure is predetermined for buoyancyRelation ATMOSPHERIC
(PID.TID 0000.0001) 
(PID.TID 0000.0001)  MDS_READ_FIELD: opening file: xx_theta.0000000000.001.001.data
(PID.TID 0000.0001)  MDS_READ_FIELD: opening file: xx_salt.0000000000.001.001.data
(PID.TID 0000.0001)  MDS_READ_FIELD: opening file: xx_diffkr.0000000000.001.001.data
(PID.TID 0000.0001) // =======================================================
(PID.TID 0000.0001) // Model current state
(PID.TID 0000.0001) // =======================================================
(PID.TID 0000.0001) 
 cg2d: Sum(rhs),rhsMax =   4.12864187282480E-16  8.97359314695303E+01
 cg2d: Sum(rhs),rhsMax =  -7.28583859910259E-16  1.89073450912124E+02
 cg2d: Sum(rhs),rhsMax =  -1.20042864537595E-15  3.69983935898346E+02
 cg2d: Sum(rhs),rhsMax =   5.48172618408671E-16  6.00188020663691E+02
 cg2d: Sum(rhs),rhsMax =   8.60422844084496E-16  8.71578060597472E+02
 cg2d: Sum(rhs),rhsMax =  -2.15105711021124E-16  1.17463757355380E+03
 cg2d: Sum(rhs),rhsMax =   3.83720832886070E-15  1.49858166118168E+03
 cg2d: Sum(rhs),rhsMax =   9.02056207507940E-16  1.83164888954287E+03
 cg2d: Sum(rhs),rhsMax =   5.80091530366644E-15  2.16161545349291E+03
 cg2d: Sum(rhs),rhsMax =   5.57887069874141E-15  2.47650463481224E+03
objf_test       314.8    1   31    1 TILE     1   31    1    1
objf_test       629.6    2   31    1 TILE     2   31    1    1
objf_test       944.7    1   32    1 TILE     1   32    1    1
objf_test      1259.8    2   32    1 TILE     2   32    1    1
objf_test      1574.9    1   33    1 TILE     1   33    1    1
objf_test      1890.0    2   33    1 TILE     2   33    1    1
objf_test      2204.8    1   34    1 TILE     1   34    1    1
objf_test      2519.6    2   34    1 TILE     2   34    1    1
objf_test      2833.8    1   35    1 TILE     1   35    1    1
objf_test      3148.0    2   35    1 TILE     2   35    1    1
objf_test      3461.4    1   36    1 TILE     1   36    1    1
objf_test      3774.8    2   36    1 TILE     2   36    1    1
objf_test      4087.0    1   37    1 TILE     1   37    1    1
objf_test      4399.2    2   37    1 TILE     2   37    1    1
objf_test      4710.1    1   38    1 TILE     1   38    1    1
objf_test      5020.9    2   38    1 TILE     2   38    1    1
objf_test      5330.1    1   39    1 TILE     1   39    1    1
objf_test      5639.3    2   39    1 TILE     2   39    1    1
 --> objf_test(bi,bj)   =  0.626587786180795E+03
 --> objf_tracer(bi,bj) =  0.000000000000000E+00
 --> objf_atl(bi,bj)    =  0.000000000000000E+00
  local fc =  0.626587786180795E+03
 global fc =  0.626587786180795E+03
 ph-check fcpertplus =   626.587786
(PID.TID 0000.0001)  MDS_READ_FIELD: opening file: xx_theta.0000000000.001.001.data
 ph-check fcpertminus =   626.587786
(PID.TID 0000.0001)  MDS_READ_FIELD: opening file: xx_theta.0000000000.001.001.data
(PID.TID 0000.0001) // =======================================================
(PID.TID 0000.0001) // Field Model R_low (ini_masks_etc) at iteration          1
(PID.TID 0000.0001) // CMIN =          1.000000000000000E+32
(PID.TID 0000.0001) // CMAX =         -1.000000000000000E+32
(PID.TID 0000.0001) // CINT =          0.000000000000000E+00
(PID.TID 0000.0001) // SYMBOLS (CMIN->CMAX): -abcdefghijklmnopqrstuvwxyz+
(PID.TID 0000.0001) //                  0.0: .
(PID.TID 0000.0001) // RANGE I (Lo:Hi:Step):(  -3:   6:   1)
(PID.TID 0000.0001) // RANGE J (Lo:Hi:Step):(  68:  -3:  -1)
(PID.TID 0000.0001) // RANGE K (Lo:Hi:Step):(   1:   1:   1)
(PID.TID 0000.0001) // =======================================================
(PID.TID 0000.0001) // =======================================================
(PID.TID 0000.0001) // END OF FIELD                                          =
(PID.TID 0000.0001) // =======================================================
(PID.TID 0000.0001) 
(PID.TID 0000.0001) // =======================================================
(PID.TID 0000.0001) // Field Model Ro_surf (ini_masks_etc) at iteration          1
(PID.TID 0000.0001) // CMIN =          1.000000000000000E+05
(PID.TID 0000.0001) // CMAX =          1.000000000000000E+05
(PID.TID 0000.0001) // CINT =          0.000000000000000E+00
(PID.TID 0000.0001) // SYMBOLS (CMIN->CMAX): -abcdefghijklmnopqrstuvwxyz+
(PID.TID 0000.0001) //                  0.0: .
(PID.TID 0000.0001) // RANGE I (Lo:Hi:Step):(  -3:   6:   1)
(PID.TID 0000.0001) // RANGE J (Lo:Hi:Step):(  68:  -3:  -1)
(PID.TID 0000.0001) // RANGE K (Lo:Hi:Step):(   1:   1:   1)
(PID.TID 0000.0001) // =======================================================
(PID.TID 0000.0001) // =======================================================
(PID.TID 0000.0001) // END OF FIELD                                          =
(PID.TID 0000.0001) // =======================================================
(PID.TID 0000.0001) 
(PID.TID 0000.0001) // =======================================================
(PID.TID 0000.0001) // Field hFacC at iteration          1
(PID.TID 0000.0001) // CMIN =          1.000000000000000E+00
(PID.TID 0000.0001) // CMAX =          1.000000000000000E+00
(PID.TID 0000.0001) // CINT =          0.000000000000000E+00
(PID.TID 0000.0001) // SYMBOLS (CMIN->CMAX): -abcdefghijklmnopqrstuvwxyz+
(PID.TID 0000.0001) //                  0.0: .
(PID.TID 0000.0001) // RANGE I (Lo:Hi:Step):(  -3:   6:   1)
(PID.TID 0000.0001) // RANGE J (Lo:Hi:Step):(  68:  -3:  -1)
(PID.TID 0000.0001) // RANGE K (Lo:Hi:Step):(   1:   1:   1)
(PID.TID 0000.0001) // =======================================================
(PID.TID 0000.0001) // =======================================================
(PID.TID 0000.0001) // END OF FIELD                                          =
(PID.TID 0000.0001) // =======================================================
(PID.TID 0000.0001) 
(PID.TID 0000.0001) // =======================================================
(PID.TID 0000.0001) // Field hFacW at iteration          1
(PID.TID 0000.0001) // CMIN =          1.000000000000000E+00
(PID.TID 0000.0001) // CMAX =          1.000000000000000E+00
(PID.TID 0000.0001) // CINT =          0.000000000000000E+00
(PID.TID 0000.0001) // SYMBOLS (CMIN->CMAX): -abcdefghijklmnopqrstuvwxyz+
(PID.TID 0000.0001) //                  0.0: .
(PID.TID 0000.0001) // RANGE I (Lo:Hi:Step):(  -3:   6:   1)
(PID.TID 0000.0001) // RANGE J (Lo:Hi:Step):(  68:  -3:  -1)
(PID.TID 0000.0001) // RANGE K (Lo:Hi:Step):(   1:   1:   1)
(PID.TID 0000.0001) // =======================================================
(PID.TID 0000.0001) // =======================================================
(PID.TID 0000.0001) // END OF FIELD                                          =
(PID.TID 0000.0001) // =======================================================
(PID.TID 0000.0001) 
(PID.TID 0000.0001) // =======================================================
(PID.TID 0000.0001) // Field hFacS at iteration          1
(PID.TID 0000.0001) // CMIN =          1.000000000000000E+00
(PID.TID 0000.0001) // CMAX =          1.000000000000000E+00
(PID.TID 0000.0001) // CINT =          0.000000000000000E+00
(PID.TID 0000.0001) // SYMBOLS (CMIN->CMAX): -abcdefghijklmnopqrstuvwxyz+
(PID.TID 0000.0001) //                  0.0: .
(PID.TID 0000.0001) // RANGE I (Lo:Hi:Step):(  -3:   6:   1)
(PID.TID 0000.0001) // RANGE J (Lo:Hi:Step):(  68:  -3:  -1)
(PID.TID 0000.0001) // RANGE K (Lo:Hi:Step):(   1:   1:   1)
(PID.TID 0000.0001) // =======================================================
(PID.TID 0000.0001) // =======================================================
(PID.TID 0000.0001) // END OF FIELD                                          =
(PID.TID 0000.0001) // =======================================================
(PID.TID 0000.0001) 
(PID.TID 0000.0001) %MON En_BudgetfCori_max           =   1.4540029928789E-04
(PID.TID 0000.0001) %MON En_BudgetfCori_min           =  -1.4540029928789E-04
(PID.TID 0000.0001) %MON En_BudgetfCori_mean          =  -2.1175823681358E-21
(PID.TID 0000.0001) %MON En_BudgetfCori_sd            =   1.0284451245737E-04
(PID.TID 0000.0001) %MON En_BudgetfCoriG_max          =   1.4526891053949E-04
(PID.TID 0000.0001) %MON En_BudgetfCoriG_min          =  -1.4544410433286E-04
(PID.TID 0000.0001) %MON En_BudgetfCoriG_mean         =  -2.3086365767121E-06
(PID.TID 0000.0001) %MON En_BudgetfCoriG_sd           =   1.0363181330709E-04
(PID.TID 0000.0001) %MON En_BudgetfCoriCos_max        =   1.4540029928789E-04
(PID.TID 0000.0001) %MON En_BudgetfCoriCos_min        =   3.5693770017430E-06
(PID.TID 0000.0001) %MON En_BudgetfCoriCos_mean       =   9.2601889431869E-05
(PID.TID 0000.0001) %MON En_BudgetfCoriCos_sd         =   4.4742416298653E-05
(PID.TID 0000.0001) INI_CG2D: CG2D normalisation factor =  2.2781266630324642E-10
(PID.TID 0000.0001) 
(PID.TID 0000.0001) // =======================================================
(PID.TID 0000.0001) // Field Initial Temperature at iteration          1
(PID.TID 0000.0001) // CMIN =          2.550364452389422E+02
(PID.TID 0000.0001) // CMAX =          3.154764877049333E+02
(PID.TID 0000.0001) // CINT =          2.238520091333004E+00
(PID.TID 0000.0001) // SYMBOLS (CMIN->CMAX): -abcdefghijklmnopqrstuvwxyz+
(PID.TID 0000.0001) //                  0.0: .
(PID.TID 0000.0001) // RANGE I (Lo:Hi:Step):(   1:   2:   1)
(PID.TID 0000.0001) // RANGE J (Lo:Hi:Step):(  64:   1:  -1)
(PID.TID 0000.0001) // RANGE K (Lo:Hi:Step):(   1:   1:   1)
(PID.TID 0000.0001) // =======================================================
(PID.TID 0000.0001) K =   1
(PID.TID 0000.0001) 
(PID.TID 0000.0001) |--J--|12
(PID.TID 0000.0001)     64 --
(PID.TID 0000.0001)     63 --
(PID.TID 0000.0001)     62 --
(PID.TID 0000.0001)     61 aa
(PID.TID 0000.0001)     60 aa
(PID.TID 0000.0001)     59 bb
(PID.TID 0000.0001)     58 cc
(PID.TID 0000.0001)     57 cc
(PID.TID 0000.0001)     56 dd
(PID.TID 0000.0001)     55 ee
(PID.TID 0000.0001)     54 gg
(PID.TID 0000.0001)     53 hh
(PID.TID 0000.0001)     52 ii
(PID.TID 0000.0001)     51 jj
(PID.TID 0000.0001)     50 ll
(PID.TID 0000.0001)     49 mm
(PID.TID 0000.0001)     48 nn
(PID.TID 0000.0001)     47 oo
(PID.TID 0000.0001)     46 qq
(PID.TID 0000.0001)     45 rr
(PID.TID 0000.0001)     44 ss
(PID.TID 0000.0001)     43 tt
(PID.TID 0000.0001)     42 vv
(PID.TID 0000.0001)     41 ww
(PID.TID 0000.0001)     40 xx
(PID.TID 0000.0001)     39 xx
(PID.TID 0000.0001)     38 yy
(PID.TID 0000.0001)     37 zz
(PID.TID 0000.0001)     36 zz
(PID.TID 0000.0001)     35 ++
(PID.TID 0000.0001)     34 ++
(PID.TID 0000.0001)     33 ++
(PID.TID 0000.0001)     32 ++
(PID.TID 0000.0001)     31 ++
(PID.TID 0000.0001)     30 ++
(PID.TID 0000.0001)     29 zz
(PID.TID 0000.0001)     28 zz
(PID.TID 0000.0001)     27 yy
(PID.TID 0000.0001)     26 xx
(PID.TID 0000.0001)     25 xx
(PID.TID 0000.0001)     24 ww
(PID.TID 0000.0001)     23 vv
(PID.TID 0000.0001)     22 tt
(PID.TID 0000.0001)     21 ss
(PID.TID 0000.0001)     20 rr
(PID.TID 0000.0001)     19 qq
(PID.TID 0000.0001)     18 oo
(PID.TID 0000.0001)     17 nn
(PID.TID 0000.0001)     16 mm
(PID.TID 0000.0001)     15 ll
(PID.TID 0000.0001)     14 jj
(PID.TID 0000.0001)     13 ii
(PID.TID 0000.0001)     12 hh
(PID.TID 0000.0001)     11 gg
(PID.TID 0000.0001)     10 ee
(PID.TID 0000.0001)      9 dd
(PID.TID 0000.0001)      8 cc
(PID.TID 0000.0001)      7 cc
(PID.TID 0000.0001)      6 bb
(PID.TID 0000.0001)      5 aa
(PID.TID 0000.0001)      4 aa
(PID.TID 0000.0001)      3 --
(PID.TID 0000.0001)      2 --
(PID.TID 0000.0001)      1 --
(PID.TID 0000.0001) // =======================================================
(PID.TID 0000.0001) // END OF FIELD                                          =
(PID.TID 0000.0001) // =======================================================
(PID.TID 0000.0001) 
(PID.TID 0000.0001) // =======================================================
(PID.TID 0000.0001) // Field Initial Salinity at iteration          1
(PID.TID 0000.0001) // CMIN =          1.000000000000000E+32
(PID.TID 0000.0001) // CMAX =         -1.000000000000000E+32
(PID.TID 0000.0001) // CINT =          0.000000000000000E+00
(PID.TID 0000.0001) // SYMBOLS (CMIN->CMAX): -abcdefghijklmnopqrstuvwxyz+
(PID.TID 0000.0001) //                  0.0: .
(PID.TID 0000.0001) // RANGE I (Lo:Hi:Step):(   1:   2:   1)
(PID.TID 0000.0001) // RANGE J (Lo:Hi:Step):(  64:   1:  -1)
(PID.TID 0000.0001) // RANGE K (Lo:Hi:Step):(   1:   1:   1)
(PID.TID 0000.0001) // =======================================================
(PID.TID 0000.0001) // =======================================================
(PID.TID 0000.0001) // END OF FIELD                                          =
(PID.TID 0000.0001) // =======================================================
(PID.TID 0000.0001) 
(PID.TID 0000.0001) Start initial hydrostatic pressure computation
(PID.TID 0000.0001) Pressure is predetermined for buoyancyRelation ATMOSPHERIC
(PID.TID 0000.0001) 
(PID.TID 0000.0001)  MDS_READ_FIELD: opening file: xx_theta.0000000000.001.001.data
(PID.TID 0000.0001)  MDS_READ_FIELD: opening file: xx_salt.0000000000.001.001.data
(PID.TID 0000.0001)  MDS_READ_FIELD: opening file: xx_diffkr.0000000000.001.001.data
(PID.TID 0000.0001) // =======================================================
(PID.TID 0000.0001) // Model current state
(PID.TID 0000.0001) // =======================================================
(PID.TID 0000.0001) 
 cg2d: Sum(rhs),rhsMax =   4.12864187282480E-16  8.97359314695303E+01
 cg2d: Sum(rhs),rhsMax =  -9.78384040450919E-16  1.89073450912126E+02
 cg2d: Sum(rhs),rhsMax =  -8.25728374564960E-16  3.69983935898386E+02
 cg2d: Sum(rhs),rhsMax =  -4.71844785465692E-16  6.00188020664139E+02
 cg2d: Sum(rhs),rhsMax =   2.86576318231369E-15  8.71578060600879E+02
 cg2d: Sum(rhs),rhsMax =   3.74006381420600E-15  1.17463757357311E+03
 cg2d: Sum(rhs),rhsMax =  -5.78703751585863E-15  1.49858166126972E+03
 cg2d: Sum(rhs),rhsMax =  -2.83106871279415E-15  1.83164888987740E+03
 cg2d: Sum(rhs),rhsMax =   2.24126273096203E-15  2.16161545458411E+03
 cg2d: Sum(rhs),rhsMax =   2.75474087985117E-15  2.47650463793198E+03
objf_test       314.8    1   31    1 TILE     1   31    1    1
objf_test       629.6    2   31    1 TILE     2   31    1    1
objf_test       944.7    1   32    1 TILE     1   32    1    1
objf_test      1259.8    2   32    1 TILE     2   32    1    1
objf_test      1574.9    1   33    1 TILE     1   33    1    1
objf_test      1890.0    2   33    1 TILE     2   33    1    1
objf_test      2204.8    1   34    1 TILE     1   34    1    1
objf_test      2519.6    2   34    1 TILE     2   34    1    1
objf_test      2833.8    1   35    1 TILE     1   35    1    1
objf_test      3148.0    2   35    1 TILE     2   35    1    1
objf_test      3461.4    1   36    1 TILE     1   36    1    1
objf_test      3774.8    2   36    1 TILE     2   36    1    1
objf_test      4087.0    1   37    1 TILE     1   37    1    1
objf_test      4399.2    2   37    1 TILE     2   37    1    1
objf_test      4710.1    1   38    1 TILE     1   38    1    1
objf_test      5020.9    2   38    1 TILE     2   38    1    1
objf_test      5330.1    1   39    1 TILE     1   39    1    1
objf_test      5639.3    2   39    1 TILE     2   39    1    1
 --> objf_test(bi,bj)   =  0.626587786179823E+03
 --> objf_tracer(bi,bj) =  0.000000000000000E+00
 --> objf_atl(bi,bj)    =  0.000000000000000E+00
  local fc =  0.626587786179823E+03
 global fc =  0.626587786179823E+03
(PID.TID 0000.0001)  MDS_READ_FIELD: opening file: xx_theta.0000000000.001.001.data
grad-res -------------------------------
 grad-res     0    4    2    2    1    1    1    1   0.626587786180E+03 0.626587786181E+03 0.626587786180E+03
 grad-res     0    4    4    4  128    1    1    1   0.486580778889E-07 0.486465978611E-07 0.235932620297E-03
(PID.TID 0000.0001)   ADM  precision_derivative_cost =    6.26587786180309E+02
(PID.TID 0000.0001)   ADM  precision_derivative_grad =    4.86580778888944E-08
 ph-grd  ierr ---------------------------
 ph-grd  ierr =  0, icomp =  4, ichknum =  4
(PID.TID 0000.0001) 
(PID.TID 0000.0001) // =======================================================
(PID.TID 0000.0001) // Gradient check results  >>> START <<<
(PID.TID 0000.0001) // =======================================================
(PID.TID 0000.0001) 
(PID.TID 0000.0001) 
(PID.TID 0000.0001)  EPS =  0.100E-01
(PID.TID 0000.0001) grdchk output:            procId               I        ITILEPOS        JTILEPOS           LAYER            X(I)      X(I)+/-EPS
(PID.TID 0000.0001) grdchk output:                                FC             FC1             FC2 FC1-FC2/(2*EPS)    ADJ GRAD(FC)   1-FDGRD/ADGRD
(PID.TID 0000.0001) grdchk output:                 0               1               1               1               1 0.000000000E+00 -.100000000E-01
(PID.TID 0000.0001) grdchk output:                   0.626587786E+03 0.626587786E+03 0.626587786E+03 0.153704605E-07 0.153706240E-07 0.106368019E-04
(PID.TID 0000.0001) 
(PID.TID 0000.0001) grdchk output:                 0               2               2               1               1 0.000000000E+00 -.100000000E-01
(PID.TID 0000.0001) grdchk output:                   0.626587786E+03 0.626587786E+03 0.626587786E+03 0.153647761E-07 0.153706240E-07 0.380455353E-03
(PID.TID 0000.0001) 
(PID.TID 0000.0001) grdchk output:                 0               3               1               2               1 0.000000000E+00 -.100000000E-01
(PID.TID 0000.0001) grdchk output:                   0.626587786E+03 0.626587786E+03 0.626587786E+03 0.486465979E-07 0.486580779E-07 0.235932620E-03
(PID.TID 0000.0001) 
(PID.TID 0000.0001) grdchk output:                 0               4               2               2               1 0.000000000E+00 -.100000000E-01
(PID.TID 0000.0001) grdchk output:                   0.626587786E+03 0.626587786E+03 0.626587786E+03 0.486465979E-07 0.486580779E-07 0.235932620E-03
(PID.TID 0000.0001) 
(PID.TID 0000.0001) 
(PID.TID 0000.0001) // =======================================================
(PID.TID 0000.0001) // Gradient check results  >>> END <<<
(PID.TID 0000.0001) // =======================================================
(PID.TID 0000.0001) 
(PID.TID 0000.0001) %CHECKPOINT         0 ckptA
(PID.TID 0000.0001)   Seconds in section "ALL                    [THE_MODEL_MAIN]":
(PID.TID 0000.0001)           User time:  4.95424723
(PID.TID 0000.0001)         System time:  0.524920974
(PID.TID 0000.0001)     Wall clock time:  5.50285602
(PID.TID 0000.0001)          No. starts: 1
(PID.TID 0000.0001)           No. stops: 1
(PID.TID 0000.0001)   Seconds in section "INITIALISE_FIXED       [THE_MODEL_MAIN]":
(PID.TID 0000.0001)           User time:  0.0829869979
(PID.TID 0000.0001)         System time:  0.0569920017
(PID.TID 0000.0001)     Wall clock time:  0.160455942
(PID.TID 0000.0001)          No. starts: 1
(PID.TID 0000.0001)           No. stops: 1
(PID.TID 0000.0001)   Seconds in section "ADTHE_MAIN_LOOP          [ADJOINT RUN]":
(PID.TID 0000.0001)           User time:  1.76173205
(PID.TID 0000.0001)         System time:  0.0949850045
(PID.TID 0000.0001)     Wall clock time:  1.85648203
(PID.TID 0000.0001)          No. starts: 1
(PID.TID 0000.0001)           No. stops: 1
(PID.TID 0000.0001)   Seconds in section "LOAD_FIELDS_DRIVER  [FORWARD_STEP]":
(PID.TID 0000.0001)           User time:  0.00599989295
(PID.TID 0000.0001)         System time:  0.
(PID.TID 0000.0001)     Wall clock time:  0.0120034218
(PID.TID 0000.0001)          No. starts: 100
(PID.TID 0000.0001)           No. stops: 100
(PID.TID 0000.0001)   Seconds in section "EXTERNAL_FLDS_LOAD [LOAD_FLDS_DRIVER]":
(PID.TID 0000.0001)           User time:  0.00200018287
(PID.TID 0000.0001)         System time:  0.
(PID.TID 0000.0001)     Wall clock time:  0.00442862511
(PID.TID 0000.0001)          No. starts: 110
(PID.TID 0000.0001)           No. stops: 110
(PID.TID 0000.0001)   Seconds in section "DO_ATMOSPHERIC_PHYS [FORWARD_STEP]":
(PID.TID 0000.0001)           User time:  0.000999987125
(PID.TID 0000.0001)         System time:  0.
(PID.TID 0000.0001)     Wall clock time:  0.00406217575
(PID.TID 0000.0001)          No. starts: 100
(PID.TID 0000.0001)           No. stops: 100
(PID.TID 0000.0001)   Seconds in section "DO_OCEANIC_PHYS     [FORWARD_STEP]":
(PID.TID 0000.0001)           User time:  0.0629895627
(PID.TID 0000.0001)         System time:  0.
(PID.TID 0000.0001)     Wall clock time:  0.0520882607
(PID.TID 0000.0001)          No. starts: 100
(PID.TID 0000.0001)           No. stops: 100
(PID.TID 0000.0001)   Seconds in section "DYNAMICS            [FORWARD_STEP]":
(PID.TID 0000.0001)           User time:  1.08183838
(PID.TID 0000.0001)         System time:  0.
(PID.TID 0000.0001)     Wall clock time:  1.08930254
(PID.TID 0000.0001)          No. starts: 100
(PID.TID 0000.0001)           No. stops: 100
(PID.TID 0000.0001)   Seconds in section "SHAP_FILT_UV        [FORWARD_STEP]":
(PID.TID 0000.0001)           User time:  0.541913792
(PID.TID 0000.0001)         System time:  0.
(PID.TID 0000.0001)     Wall clock time:  0.544541597
(PID.TID 0000.0001)          No. starts: 100
(PID.TID 0000.0001)           No. stops: 100
(PID.TID 0000.0001)   Seconds in section "SOLVE_FOR_PRESSURE  [FORWARD_STEP]":
(PID.TID 0000.0001)           User time:  0.285956904
(PID.TID 0000.0001)         System time:  0.00200003386
(PID.TID 0000.0001)     Wall clock time:  0.279910564
(PID.TID 0000.0001)          No. starts: 100
(PID.TID 0000.0001)           No. stops: 100
(PID.TID 0000.0001)   Seconds in section "MOM_CORRECTION_STEP [FORWARD_STEP]":
(PID.TID 0000.0001)           User time:  0.0479964763
(PID.TID 0000.0001)         System time:  0.000999987125
(PID.TID 0000.0001)     Wall clock time:  0.0536627769
(PID.TID 0000.0001)          No. starts: 100
(PID.TID 0000.0001)           No. stops: 100
(PID.TID 0000.0001)   Seconds in section "BLOCKING_EXCHANGES  [FORWARD_STEP]":
(PID.TID 0000.0001)           User time:  0.098983556
(PID.TID 0000.0001)         System time:  0.000999987125
(PID.TID 0000.0001)     Wall clock time:  0.100632429
(PID.TID 0000.0001)          No. starts: 200
(PID.TID 0000.0001)           No. stops: 200
(PID.TID 0000.0001)   Seconds in section "THERMODYNAMICS      [FORWARD_STEP]":
(PID.TID 0000.0001)           User time:  0.630902961
(PID.TID 0000.0001)         System time:  0.00299997628
(PID.TID 0000.0001)     Wall clock time:  0.63718462
(PID.TID 0000.0001)          No. starts: 100
(PID.TID 0000.0001)           No. stops: 100
(PID.TID 0000.0001)   Seconds in section "TRC_CORRECTION_STEP [FORWARD_STEP]":
(PID.TID 0000.0001)           User time:  0.51492475
(PID.TID 0000.0001)         System time:  0.000999987125
(PID.TID 0000.0001)     Wall clock time:  0.520246506
(PID.TID 0000.0001)          No. starts: 100
(PID.TID 0000.0001)           No. stops: 100
(PID.TID 0000.0001)   Seconds in section "SHAP_FILT_TS       [TRC_CORR_STEP]":
(PID.TID 0000.0001)           User time:  0.48992537
(PID.TID 0000.0001)         System time:  0.000999987125
(PID.TID 0000.0001)     Wall clock time:  0.493355274
(PID.TID 0000.0001)          No. starts: 100
(PID.TID 0000.0001)           No. stops: 100
(PID.TID 0000.0001)   Seconds in section "DO_STATEVARS_TAVE   [FORWARD_STEP]":
(PID.TID 0000.0001)           User time:  0.0169973224
(PID.TID 0000.0001)         System time:  0.
(PID.TID 0000.0001)     Wall clock time:  0.0145664215
(PID.TID 0000.0001)          No. starts: 100
(PID.TID 0000.0001)           No. stops: 100
(PID.TID 0000.0001)   Seconds in section "MONITOR             [FORWARD_STEP]":
(PID.TID 0000.0001)           User time:  0.0399948657
(PID.TID 0000.0001)         System time:  0.0019999966
(PID.TID 0000.0001)     Wall clock time:  0.0430920124
(PID.TID 0000.0001)          No. starts: 100
(PID.TID 0000.0001)           No. stops: 100
(PID.TID 0000.0001)   Seconds in section "COST_TILE           [FORWARD_STEP]":
(PID.TID 0000.0001)           User time:  0.032991901
(PID.TID 0000.0001)         System time:  0.
(PID.TID 0000.0001)     Wall clock time:  0.028444767
(PID.TID 0000.0001)          No. starts: 100
(PID.TID 0000.0001)           No. stops: 100
(PID.TID 0000.0001)   Seconds in section "DO_THE_MODEL_IO     [FORWARD_STEP]":
(PID.TID 0000.0001)           User time:  0.103983358
(PID.TID 0000.0001)         System time:  0.163974993
(PID.TID 0000.0001)     Wall clock time:  0.265728951
(PID.TID 0000.0001)          No. starts: 100
(PID.TID 0000.0001)           No. stops: 100
(PID.TID 0000.0001)   Seconds in section "DO_WRITE_PICKUP     [FORWARD_STEP]":
(PID.TID 0000.0001)           User time:  0.00599789619
(PID.TID 0000.0001)         System time:  0.000999003649
(PID.TID 0000.0001)     Wall clock time:  0.00413131714
(PID.TID 0000.0001)          No. starts: 100
(PID.TID 0000.0001)           No. stops: 100
(PID.TID 0000.0001)   Seconds in section "CTRL_PACK           [THE_MODEL_MAIN]":
(PID.TID 0000.0001)           User time:  0.00899899006
(PID.TID 0000.0001)         System time:  0.00199998915
(PID.TID 0000.0001)     Wall clock time:  0.0106639862
(PID.TID 0000.0001)          No. starts: 1
(PID.TID 0000.0001)           No. stops: 1
(PID.TID 0000.0001)   Seconds in section "CTRL_PACK     [THE_MODEL_MAIN]":
(PID.TID 0000.0001)           User time:  0.00599896908
(PID.TID 0000.0001)         System time:  0.00399900973
(PID.TID 0000.0001)     Wall clock time:  0.010406971
(PID.TID 0000.0001)          No. starts: 1
(PID.TID 0000.0001)           No. stops: 1
(PID.TID 0000.0001)   Seconds in section "GRDCHK_MAIN         [THE_MODEL_MAIN]":
(PID.TID 0000.0001)           User time:  3.08353102
(PID.TID 0000.0001)         System time:  0.340948999
(PID.TID 0000.0001)     Wall clock time:  3.42762685
(PID.TID 0000.0001)          No. starts: 1
(PID.TID 0000.0001)           No. stops: 1
(PID.TID 0000.0001)   Seconds in section "INITIALISE_VARIA    [THE_MAIN_LOOP]":
(PID.TID 0000.0001)           User time:  0.190973043
(PID.TID 0000.0001)         System time:  0.134980008
(PID.TID 0000.0001)     Wall clock time:  0.326577425
(PID.TID 0000.0001)          No. starts: 8
(PID.TID 0000.0001)           No. stops: 8
(PID.TID 0000.0001)   Seconds in section "MAIN LOOP           [THE_MAIN_LOOP]":
(PID.TID 0000.0001)           User time:  2.85156512
(PID.TID 0000.0001)         System time:  0.14397797
(PID.TID 0000.0001)     Wall clock time:  2.99980545
(PID.TID 0000.0001)          No. starts: 8
(PID.TID 0000.0001)           No. stops: 8
(PID.TID 0000.0001)   Seconds in section "FORWARD_STEP        [THE_MAIN_LOOP]":
(PID.TID 0000.0001)           User time:  2.79357409
(PID.TID 0000.0001)         System time:  0.142977983
(PID.TID 0000.0001)     Wall clock time:  2.9378376
(PID.TID 0000.0001)          No. starts: 80
(PID.TID 0000.0001)           No. stops: 80
(PID.TID 0000.0001)   Seconds in section "COST_FINAL         [ADJOINT SPIN-DOWN]":
(PID.TID 0000.0001)           User time:  0.000999927521
(PID.TID 0000.0001)         System time:  0.000999987125
(PID.TID 0000.0001)     Wall clock time:  0.00226664543
(PID.TID 0000.0001)          No. starts: 8
(PID.TID 0000.0001)           No. stops: 8
(PID.TID 0000.0001)   Seconds in section "DO_WRITE_PICKUP        [THE_MODEL_MAIN]":
(PID.TID 0000.0001)           User time:  0.0109992027
(PID.TID 0000.0001)         System time:  0.0259959698
(PID.TID 0000.0001)     Wall clock time:  0.0369100571
(PID.TID 0000.0001)          No. starts: 1
(PID.TID 0000.0001)           No. stops: 1
(PID.TID 0000.0001) // ======================================================
(PID.TID 0000.0001) // Tile <-> Tile communication statistics
(PID.TID 0000.0001) // ======================================================
(PID.TID 0000.0001) // o Tile number: 000001
(PID.TID 0000.0001) //         No. X exchanges =              0
(PID.TID 0000.0001) //            Max. X spins =              0
(PID.TID 0000.0001) //            Min. X spins =     1000000000
(PID.TID 0000.0001) //          Total. X spins =              0
(PID.TID 0000.0001) //            Avg. X spins =       0.00E+00
(PID.TID 0000.0001) //         No. Y exchanges =              0
(PID.TID 0000.0001) //            Max. Y spins =              0
(PID.TID 0000.0001) //            Min. Y spins =     1000000000
(PID.TID 0000.0001) //          Total. Y spins =              0
(PID.TID 0000.0001) //            Avg. Y spins =       0.00E+00
(PID.TID 0000.0001) // o Thread number: 000001
(PID.TID 0000.0001) //            No. barriers =          31504
(PID.TID 0000.0001) //      Max. barrier spins =              1
(PID.TID 0000.0001) //      Min. barrier spins =              1
(PID.TID 0000.0001) //     Total barrier spins =          31504
(PID.TID 0000.0001) //      Avg. barrier spins =       1.00E+00
