(PID.TID 0000.0001) 
(PID.TID 0000.0001) // ======================================================
(PID.TID 0000.0001) //                      MITgcm UV
(PID.TID 0000.0001) //                      =========
(PID.TID 0000.0001) // ======================================================
(PID.TID 0000.0001) // execution environment starting up...
(PID.TID 0000.0001) // Run starting Wed Apr  1 14:19:48 1998
(PID.TID 0000.0001) // on melville.lcs.mit.edu
(PID.TID 0000.0001) // account cnh
(PID.TID 0000.0001) // MITgcm UV Release: $Name:  $
(PID.TID 0000.0001) 
(PID.TID 0000.0001) // =======================================================
(PID.TID 0000.0001) // Execution Environment parameter file "eedata"
(PID.TID 0000.0001) // =======================================================
(PID.TID 0000.0001) ># Example "eedata" file
(PID.TID 0000.0001) ># Lines beginning "#" are comments
(PID.TID 0000.0001) ># nTx - No. threads per process in X
(PID.TID 0000.0001) ># nTy - No. threads per process in Y
(PID.TID 0000.0001) > &EEPARMS
(PID.TID 0000.0001) > &
(PID.TID 0000.0001) ># Note: Some systems use & as the
(PID.TID 0000.0001) ># namelist terminator. Other systems
(PID.TID 0000.0001) ># use a / character (as shown here).
(PID.TID 0000.0001) 
(PID.TID 0000.0001) // =======================================================
(PID.TID 0000.0001) // Computational Grid Specification ( see files "SIZE.h" )
(PID.TID 0000.0001) //                                  ( and "eedata"       )
(PID.TID 0000.0001) // =======================================================
(PID.TID 0000.0001)      nPx =    1 ; /* No. processes in X */
(PID.TID 0000.0001)      nPy =    1 ; /* No. processes in Y */
(PID.TID 0000.0001)      nSx =    1 ; /* No. tiles in X per process */
(PID.TID 0000.0001)      nSy =    1 ; /* No. tiles in Y per process */
(PID.TID 0000.0001)      sNx =    1 ; /* Tile size in X */
(PID.TID 0000.0001)      sNy =   64 ; /* Tile size in Y */
(PID.TID 0000.0001)      OLx =    5 ; /* Tile overlap distance in X */
(PID.TID 0000.0001)      OLy =    5 ; /* Tile overlap distance in Y */
(PID.TID 0000.0001)      nTx =    1 ; /* No. threads in X per process */
(PID.TID 0000.0001)      nTy =    1 ; /* No. threads in Y per process */
(PID.TID 0000.0001)       Nr =    5 ; /* No. levels in the vertical   */
(PID.TID 0000.0001)       nX =    1 ; /* Total domain size in X ( = nPx*nSx*sNx ) */
(PID.TID 0000.0001)       nY =   64 ; /* Total domain size in Y ( = nPy*nSy*sNy ) */
(PID.TID 0000.0001)   nTiles =    1 ; /* Total no. tiles per process ( = nSx*nSy ) */
(PID.TID 0000.0001)   nProcs =    1 ; /* Total no. processes ( = nPx*nPy ) */
(PID.TID 0000.0001) nThreads =    1 ; /* Total no. threads per process ( = nTx*nTy ) */
(PID.TID 0000.0001) usingMPI =    F ; /* Flag used to control whether MPI is in use */
(PID.TID 0000.0001)                   /*  note: To execute a program with MPI calls */
(PID.TID 0000.0001)                   /*  it must be launched appropriately e.g     */
(PID.TID 0000.0001)                   /*  "mpirun -np 64 ......"                    */
(PID.TID 0000.0001) 
(PID.TID 0000.0001) // ======================================================
(PID.TID 0000.0001) // Mapping of tiles to threads
(PID.TID 0000.0001) // ======================================================
(PID.TID 0000.0001) // -o- Thread   1, tiles (   1:   1,   1:   1)
(PID.TID 0000.0001) 
(PID.TID 0000.0001) // ======================================================
(PID.TID 0000.0001) // Tile <-> Tile connectvity table
(PID.TID 0000.0001) // ======================================================
(PID.TID 0000.0001) // Tile number: 000001 (process no. = 000001)
(PID.TID 0000.0001) //        WEST: Tile = 000001, Process = 000001, Comm = put
(PID.TID 0000.0001) //                bi = 000001, bj = 000001
(PID.TID 0000.0001) //        EAST: Tile = 000001, Process = 000001, Comm = put
(PID.TID 0000.0001) //                bi = 000001, bj = 000001
(PID.TID 0000.0001) //       SOUTH: Tile = 000001, Process = 000001, Comm = put
(PID.TID 0000.0001) //                bi = 000001, bj = 000001
(PID.TID 0000.0001) //       NORTH: Tile = 000001, Process = 000001, Comm = put
(PID.TID 0000.0001) //                bi = 000001, bj = 000001
(PID.TID 0000.0001) 
(PID.TID 0000.0001) // =======================================================
(PID.TID 0000.0001) // Model parameter file "data"
(PID.TID 0000.0001) // =======================================================
(PID.TID 0000.0001) ># ====================
(PID.TID 0000.0001) ># | Model parameters |
(PID.TID 0000.0001) ># ====================
(PID.TID 0000.0001) >#
(PID.TID 0000.0001) ># Continuous equation parameters
(PID.TID 0000.0001) > &PARM01
(PID.TID 0000.0001) > tRef= 281.089, 289.321, 307.191, 331.377, 432.413,
(PID.TID 0000.0001) > tRef=5*0.,
(PID.TID 0000.0001) > sRef=5*0.,
(PID.TID 0000.0001) > viscAr=0.,
(PID.TID 0000.0001) > viscAh=0.,
(PID.TID 0000.0001) > viscA4=0.,
(PID.TID 0000.0001) > no_slip_sides=.FALSE.,
(PID.TID 0000.0001) > no_slip_bottom=.FALSE.,
(PID.TID 0000.0001) > diffKrT=0.,
(PID.TID 0000.0001) > diffKhT=0.,
(PID.TID 0000.0001) > diffK4T=0.,
(PID.TID 0000.0001) > diffKrS=0.,
(PID.TID 0000.0001) > diffKhS=0.,
(PID.TID 0000.0001) > diffK4S=0.,
(PID.TID 0000.0001) > buoyancyRelation='ATMOSPHERIC',
(PID.TID 0000.0001) > eosType='IDEALGAS',
(PID.TID 0000.0001) > gravity=9.81,
(PID.TID 0000.0001) > gBaro=9.81,
(PID.TID 0000.0001) > rhonil=1.0,
(PID.TID 0000.0001) > rhoConst=1.0,
(PID.TID 0000.0001) > rigidLid=.FALSE.,
(PID.TID 0000.0001) > implicitFreeSurface=.TRUE.,
(PID.TID 0000.0001) > nonHydrostatic=.FALSE.,
(PID.TID 0000.0001) > readBinaryPrec=64,
(PID.TID 0000.0001) > writeBinaryPrec=64,
(PID.TID 0000.0001) > globalFiles=.TRUE.,
(PID.TID 0000.0001) > staggerTimestep=.TRUE.,
(PID.TID 0000.0001) > &
(PID.TID 0000.0001) >
(PID.TID 0000.0001) ># Elliptic solver parameters
(PID.TID 0000.0001) > &PARM02
(PID.TID 0000.0001) > cg2dMaxIters=600,
(PID.TID 0000.0001) > cg2dTargetResidual=1.E-13,
(PID.TID 0000.0001) > &
(PID.TID 0000.0001) >
(PID.TID 0000.0001) ># Time stepping parameters
(PID.TID 0000.0001) > &PARM03
(PID.TID 0000.0001) > niter0=0,
(PID.TID 0000.0001) > nTimeSteps=10,
(PID.TID 0000.0001) > abEps=0.1,
(PID.TID 0000.0001) > deltaT=1200.0,
(PID.TID 0000.0001) > cAdjFreq=0.,
(PID.TID 0000.0001) > pChkptFreq=0.0,
(PID.TID 0000.0001) > chkptFreq=0.0,
(PID.TID 0000.0001) > dumpFreq=2592000.0,
(PID.TID 0000.0001) > taveFreq=2592000.,
(PID.TID 0000.0001) > monitorFreq=1.,
(PID.TID 0000.0001) > &
(PID.TID 0000.0001) >
(PID.TID 0000.0001) ># Gridding parameters
(PID.TID 0000.0001) > &PARM04
(PID.TID 0000.0001) > usingCartesianGrid=.FALSE.,
(PID.TID 0000.0001) > usingSphericalPolarGrid=.TRUE.,
(PID.TID 0000.0001) > delX=1*2.8125,
(PID.TID 0000.0001) > delY=64*2.8125,
(PID.TID 0000.0001) > delR=1.E4, 2.5E4, 3.E4, 2.E4, 1.5E4,
(PID.TID 0000.0001) > Ro_SeaLevel=1.E5,
(PID.TID 0000.0001) > groundAtK1=.TRUE.,
(PID.TID 0000.0001) > phiMin=-90.,
(PID.TID 0000.0001) > &
(PID.TID 0000.0001) >
(PID.TID 0000.0001) ># Input datasets
(PID.TID 0000.0001) > &PARM05
(PID.TID 0000.0001) > &
(PID.TID 0000.0001) 
(PID.TID 0000.0001) S/R INI_PARMS ; read PARM01 : OK
(PID.TID 0000.0001) S/R INI_PARMS ; read PARM02 : OK
(PID.TID 0000.0001) S/R INI_PARMS ; read PARM03 : OK
(PID.TID 0000.0001) S/R INI_PARMS ; read PARM04 : OK
(PID.TID 0000.0001) S/R INI_PARMS ; read PARM05 : OK
(PID.TID 0000.0001) %MON XC_max                       =   1.4062500000000E+00
(PID.TID 0000.0001) %MON XC_min                       =   1.4062500000000E+00
(PID.TID 0000.0001) %MON XC_mean                      =   1.4062500000000E+00
(PID.TID 0000.0001) %MON XC_sd                        =   0.0000000000000E+00
(PID.TID 0000.0001) %MON XG_max                       =   0.0000000000000E+00
(PID.TID 0000.0001) %MON XG_min                       =   0.0000000000000E+00
(PID.TID 0000.0001) %MON XG_mean                      =   0.0000000000000E+00
(PID.TID 0000.0001) %MON XG_sd                        =   0.0000000000000E+00
(PID.TID 0000.0001) %MON DXC_max                      =   3.1259246843155E+05
(PID.TID 0000.0001) %MON DXC_min                      =   7.6737143816223E+03
(PID.TID 0000.0001) %MON DXC_mean                     =   1.9908248704234E+05
(PID.TID 0000.0001) %MON DXC_sd                       =   9.6190602240067E+04
(PID.TID 0000.0001) %MON DXF_max                      =   3.1259246843155E+05
(PID.TID 0000.0001) %MON DXF_min                      =   7.6737143816223E+03
(PID.TID 0000.0001) %MON DXF_mean                     =   1.9908248704234E+05
(PID.TID 0000.0001) %MON DXF_sd                       =   9.6190602240067E+04
(PID.TID 0000.0001) %MON DXG_max                      =   3.1268664380261E+05
(PID.TID 0000.0001) %MON DXG_min                      =   1.5342806404640E+04
(PID.TID 0000.0001) %MON DXG_mean                     =   2.0218161485138E+05
(PID.TID 0000.0001) %MON DXG_sd                       =   9.3728538420913E+04
(PID.TID 0000.0001) %MON DXV_max                      =   3.1268664380261E+05
(PID.TID 0000.0001) %MON DXV_min                      =   1.5342806404640E+04
(PID.TID 0000.0001) %MON DXV_mean                     =   2.0218161485138E+05
(PID.TID 0000.0001) %MON DXV_sd                       =   9.3728538420913E+04
(PID.TID 0000.0001) %MON YC_max                       =   8.8593750000000E+01
(PID.TID 0000.0001) %MON YC_min                       =  -8.8593750000000E+01
(PID.TID 0000.0001) %MON YC_mean                      =   0.0000000000000E+00
(PID.TID 0000.0001) %MON YC_sd                        =   5.1955180880375E+01
(PID.TID 0000.0001) %MON YG_max                       =   8.7187500000000E+01
(PID.TID 0000.0001) %MON YG_min                       =  -9.0000000000000E+01
(PID.TID 0000.0001) %MON YG_mean                      =  -1.4285714285714E+00
(PID.TID 0000.0001) %MON YG_sd                        =   5.2365595692639E+01
(PID.TID 0000.0001) %MON DYC_max                      =   3.1268664380261E+05
(PID.TID 0000.0001) %MON DYC_min                      =   3.1268664380261E+05
(PID.TID 0000.0001) %MON DYC_mean                     =   3.1268664380261E+05
(PID.TID 0000.0001) %MON DYC_sd                       =   1.1641532182693E-10
(PID.TID 0000.0001) %MON DYF_max                      =   3.1268664380261E+05
(PID.TID 0000.0001) %MON DYF_min                      =   3.1268664380261E+05
(PID.TID 0000.0001) %MON DYF_mean                     =   3.1268664380261E+05
(PID.TID 0000.0001) %MON DYF_sd                       =   1.1641532182693E-10
(PID.TID 0000.0001) %MON DYG_max                      =   3.1268664380261E+05
(PID.TID 0000.0001) %MON DYG_min                      =   3.1268664380261E+05
(PID.TID 0000.0001) %MON DYG_mean                     =   3.1268664380261E+05
(PID.TID 0000.0001) %MON DYG_sd                       =   1.1641532182693E-10
(PID.TID 0000.0001) %MON DYU_max                      =   3.1268664380261E+05
(PID.TID 0000.0001) %MON DYU_min                      =   3.1268664380261E+05
(PID.TID 0000.0001) %MON DYU_mean                     =   3.1268664380261E+05
(PID.TID 0000.0001) %MON DYU_sd                       =   1.1641532182693E-10
(PID.TID 0000.0001) %MON RA_max                       =   9.7733676797555E+10
(PID.TID 0000.0001) %MON RA_min                       =   2.3992270990191E+09
(PID.TID 0000.0001) %MON RA_mean                      =   6.2244185031957E+10
(PID.TID 0000.0001) %MON RA_sd                        =   3.0074496923945E+10
(PID.TID 0000.0001) %MON RAW_max                      =   9.7733676797555E+10
(PID.TID 0000.0001) %MON RAW_min                      =   2.3992270990191E+09
(PID.TID 0000.0001) %MON RAW_mean                     =   6.2244185031957E+10
(PID.TID 0000.0001) %MON RAW_sd                       =   3.0074496923945E+10
(PID.TID 0000.0001) %MON RAS_max                      =   9.7763121221868E+10
(PID.TID 0000.0001) %MON RAS_min                      =   4.7970089933465E+09
(PID.TID 0000.0001) %MON RAS_mean                     =   6.3213143616158E+10
(PID.TID 0000.0001) %MON RAS_sd                       =   2.9304719741649E+10
(PID.TID 0000.0001) %MON RAZ_max                      =   9.7763121221868E+10
(PID.TID 0000.0001) %MON RAZ_min                      =   4.7970089933465E+09
(PID.TID 0000.0001) %MON RAZ_mean                     =   6.3213143616158E+10
(PID.TID 0000.0001) %MON RAZ_sd                       =   2.9304719741649E+10
(PID.TID 0000.0001) // =======================================================
(PID.TID 0000.0001) // Field Model R_low (ini_masks_etc) at iteration          1
(PID.TID 0000.0001) // CMIN =          1.000000000000000E+32
(PID.TID 0000.0001) // CMAX =         -1.000000000000000E+32
(PID.TID 0000.0001) // CINT =          0.000000000000000E+00
(PID.TID 0000.0001) // SYMBOLS (CMIN->CMAX): -abcdefghijklmnopqrstuvwxyz+
(PID.TID 0000.0001) //                  0.0: .
(PID.TID 0000.0001) // RANGE I (Lo:Hi:Step):(  -4:   6:   1)
(PID.TID 0000.0001) // RANGE J (Lo:Hi:Step):(  69:  -4:  -1)
(PID.TID 0000.0001) // RANGE K (Lo:Hi:Step):(   1:   1:   1)
(PID.TID 0000.0001) // =======================================================
(PID.TID 0000.0001) K =   1
(PID.TID 0000.0001) //                I=5
(PID.TID 0000.0001) // |--J--|****01234|6
(PID.TID 0000.0001) //     69 ...........
(PID.TID 0000.0001) //     68 ...........
(PID.TID 0000.0001) //     67 ...........
(PID.TID 0000.0001) //     66 ...........
(PID.TID 0000.0001) //     65 ...........
(PID.TID 0000.0001) //     64 ...........
(PID.TID 0000.0001) //     63 ...........
(PID.TID 0000.0001) //     62 ...........
(PID.TID 0000.0001) //     61 ...........
(PID.TID 0000.0001) //     60 ...........
(PID.TID 0000.0001) //     59 ...........
(PID.TID 0000.0001) //     58 ...........
(PID.TID 0000.0001) //     57 ...........
(PID.TID 0000.0001) //     56 ...........
(PID.TID 0000.0001) //     55 ...........
(PID.TID 0000.0001) //     54 ...........
(PID.TID 0000.0001) //     53 ...........
(PID.TID 0000.0001) //     52 ...........
(PID.TID 0000.0001) //     51 ...........
(PID.TID 0000.0001) //     50 ...........
(PID.TID 0000.0001) //     49 ...........
(PID.TID 0000.0001) //     48 ...........
(PID.TID 0000.0001) //     47 ...........
(PID.TID 0000.0001) //     46 ...........
(PID.TID 0000.0001) //     45 ...........
(PID.TID 0000.0001) //     44 ...........
(PID.TID 0000.0001) //     43 ...........
(PID.TID 0000.0001) //     42 ...........
(PID.TID 0000.0001) //     41 ...........
(PID.TID 0000.0001) //     40 ...........
(PID.TID 0000.0001) //     39 ...........
(PID.TID 0000.0001) //     38 ...........
(PID.TID 0000.0001) //     37 ...........
(PID.TID 0000.0001) //     36 ...........
(PID.TID 0000.0001) //     35 ...........
(PID.TID 0000.0001) //     34 ...........
(PID.TID 0000.0001) //     33 ...........
(PID.TID 0000.0001) //     32 ...........
(PID.TID 0000.0001) //     31 ...........
(PID.TID 0000.0001) //     30 ...........
(PID.TID 0000.0001) //     29 ...........
(PID.TID 0000.0001) //     28 ...........
(PID.TID 0000.0001) //     27 ...........
(PID.TID 0000.0001) //     26 ...........
(PID.TID 0000.0001) //     25 ...........
(PID.TID 0000.0001) //     24 ...........
(PID.TID 0000.0001) //     23 ...........
(PID.TID 0000.0001) //     22 ...........
(PID.TID 0000.0001) //     21 ...........
(PID.TID 0000.0001) //     20 ...........
(PID.TID 0000.0001) //     19 ...........
(PID.TID 0000.0001) //     18 ...........
(PID.TID 0000.0001) //     17 ...........
(PID.TID 0000.0001) //     16 ...........
(PID.TID 0000.0001) //     15 ...........
(PID.TID 0000.0001) //     14 ...........
(PID.TID 0000.0001) //     13 ...........
(PID.TID 0000.0001) //     12 ...........
(PID.TID 0000.0001) //     11 ...........
(PID.TID 0000.0001) //     10 ...........
(PID.TID 0000.0001) //      9 ...........
(PID.TID 0000.0001) //      8 ...........
(PID.TID 0000.0001) //      7 ...........
(PID.TID 0000.0001) //      6 ...........
(PID.TID 0000.0001) //      5 ...........
(PID.TID 0000.0001) //      4 ...........
(PID.TID 0000.0001) //      3 ...........
(PID.TID 0000.0001) //      2 ...........
(PID.TID 0000.0001) //      1 ...........
(PID.TID 0000.0001) //      0 ...........
(PID.TID 0000.0001) //     -1 ...........
(PID.TID 0000.0001) //     -2 ...........
(PID.TID 0000.0001) //     -3 ...........
(PID.TID 0000.0001) //     -4 ...........
(PID.TID 0000.0001) // =======================================================
(PID.TID 0000.0001) // END OF FIELD                                          =
(PID.TID 0000.0001) // =======================================================
(PID.TID 0000.0001) 
(PID.TID 0000.0001) // =======================================================
(PID.TID 0000.0001) // Field Model Ro_surf (ini_masks_etc) at iteration          1
(PID.TID 0000.0001) // CMIN =          1.000000000000000E+05
(PID.TID 0000.0001) // CMAX =          1.000000000000000E+05
(PID.TID 0000.0001) // CINT =          0.000000000000000E+00
(PID.TID 0000.0001) // SYMBOLS (CMIN->CMAX): -abcdefghijklmnopqrstuvwxyz+
(PID.TID 0000.0001) //                  0.0: .
(PID.TID 0000.0001) // RANGE I (Lo:Hi:Step):(  -4:   6:   1)
(PID.TID 0000.0001) // RANGE J (Lo:Hi:Step):(  69:  -4:  -1)
(PID.TID 0000.0001) // RANGE K (Lo:Hi:Step):(   1:   1:   1)
(PID.TID 0000.0001) // =======================================================
(PID.TID 0000.0001) K =   1
(PID.TID 0000.0001) //                I=5
(PID.TID 0000.0001) // |--J--|****01234|6
(PID.TID 0000.0001) //     69 ...........
(PID.TID 0000.0001) //     68 ...........
(PID.TID 0000.0001) //     67 ...........
(PID.TID 0000.0001) //     66 ...........
(PID.TID 0000.0001) //     65 ...........
(PID.TID 0000.0001) //     64 -----------
(PID.TID 0000.0001) //     63 -----------
(PID.TID 0000.0001) //     62 -----------
(PID.TID 0000.0001) //     61 -----------
(PID.TID 0000.0001) //     60 -----------
(PID.TID 0000.0001) //     59 -----------
(PID.TID 0000.0001) //     58 -----------
(PID.TID 0000.0001) //     57 -----------
(PID.TID 0000.0001) //     56 -----------
(PID.TID 0000.0001) //     55 -----------
(PID.TID 0000.0001) //     54 -----------
(PID.TID 0000.0001) //     53 -----------
(PID.TID 0000.0001) //     52 -----------
(PID.TID 0000.0001) //     51 -----------
(PID.TID 0000.0001) //     50 -----------
(PID.TID 0000.0001) //     49 -----------
(PID.TID 0000.0001) //     48 -----------
(PID.TID 0000.0001) //     47 -----------
(PID.TID 0000.0001) //     46 -----------
(PID.TID 0000.0001) //     45 -----------
(PID.TID 0000.0001) //     44 -----------
(PID.TID 0000.0001) //     43 -----------
(PID.TID 0000.0001) //     42 -----------
(PID.TID 0000.0001) //     41 -----------
(PID.TID 0000.0001) //     40 -----------
(PID.TID 0000.0001) //     39 -----------
(PID.TID 0000.0001) //     38 -----------
(PID.TID 0000.0001) //     37 -----------
(PID.TID 0000.0001) //     36 -----------
(PID.TID 0000.0001) //     35 -----------
(PID.TID 0000.0001) //     34 -----------
(PID.TID 0000.0001) //     33 -----------
(PID.TID 0000.0001) //     32 -----------
(PID.TID 0000.0001) //     31 -----------
(PID.TID 0000.0001) //     30 -----------
(PID.TID 0000.0001) //     29 -----------
(PID.TID 0000.0001) //     28 -----------
(PID.TID 0000.0001) //     27 -----------
(PID.TID 0000.0001) //     26 -----------
(PID.TID 0000.0001) //     25 -----------
(PID.TID 0000.0001) //     24 -----------
(PID.TID 0000.0001) //     23 -----------
(PID.TID 0000.0001) //     22 -----------
(PID.TID 0000.0001) //     21 -----------
(PID.TID 0000.0001) //     20 -----------
(PID.TID 0000.0001) //     19 -----------
(PID.TID 0000.0001) //     18 -----------
(PID.TID 0000.0001) //     17 -----------
(PID.TID 0000.0001) //     16 -----------
(PID.TID 0000.0001) //     15 -----------
(PID.TID 0000.0001) //     14 -----------
(PID.TID 0000.0001) //     13 -----------
(PID.TID 0000.0001) //     12 -----------
(PID.TID 0000.0001) //     11 -----------
(PID.TID 0000.0001) //     10 -----------
(PID.TID 0000.0001) //      9 -----------
(PID.TID 0000.0001) //      8 -----------
(PID.TID 0000.0001) //      7 -----------
(PID.TID 0000.0001) //      6 -----------
(PID.TID 0000.0001) //      5 -----------
(PID.TID 0000.0001) //      4 -----------
(PID.TID 0000.0001) //      3 -----------
(PID.TID 0000.0001) //      2 -----------
(PID.TID 0000.0001) //      1 -----------
(PID.TID 0000.0001) //      0 ...........
(PID.TID 0000.0001) //     -1 ...........
(PID.TID 0000.0001) //     -2 ...........
(PID.TID 0000.0001) //     -3 ...........
(PID.TID 0000.0001) //     -4 ...........
(PID.TID 0000.0001) // =======================================================
(PID.TID 0000.0001) // END OF FIELD                                          =
(PID.TID 0000.0001) // =======================================================
(PID.TID 0000.0001) 
(PID.TID 0000.0001) // =======================================================
(PID.TID 0000.0001) // Field hFacC at iteration          1
(PID.TID 0000.0001) // CMIN =          1.000000000000000E+00
(PID.TID 0000.0001) // CMAX =          1.000000000000000E+00
(PID.TID 0000.0001) // CINT =          0.000000000000000E+00
(PID.TID 0000.0001) // SYMBOLS (CMIN->CMAX): -abcdefghijklmnopqrstuvwxyz+
(PID.TID 0000.0001) //                  0.0: .
(PID.TID 0000.0001) // RANGE I (Lo:Hi:Step):(  -4:   6:   1)
(PID.TID 0000.0001) // RANGE J (Lo:Hi:Step):(  69:  -4:  -1)
(PID.TID 0000.0001) // RANGE K (Lo:Hi:Step):(   1:   1:   1)
(PID.TID 0000.0001) // =======================================================
(PID.TID 0000.0001) K =   1
(PID.TID 0000.0001) //                I=5
(PID.TID 0000.0001) // |--J--|****01234|6
(PID.TID 0000.0001) //     69 ...........
(PID.TID 0000.0001) //     68 ...........
(PID.TID 0000.0001) //     67 ...........
(PID.TID 0000.0001) //     66 ...........
(PID.TID 0000.0001) //     65 ...........
(PID.TID 0000.0001) //     64 -----------
(PID.TID 0000.0001) //     63 -----------
(PID.TID 0000.0001) //     62 -----------
(PID.TID 0000.0001) //     61 -----------
(PID.TID 0000.0001) //     60 -----------
(PID.TID 0000.0001) //     59 -----------
(PID.TID 0000.0001) //     58 -----------
(PID.TID 0000.0001) //     57 -----------
(PID.TID 0000.0001) //     56 -----------
(PID.TID 0000.0001) //     55 -----------
(PID.TID 0000.0001) //     54 -----------
(PID.TID 0000.0001) //     53 -----------
(PID.TID 0000.0001) //     52 -----------
(PID.TID 0000.0001) //     51 -----------
(PID.TID 0000.0001) //     50 -----------
(PID.TID 0000.0001) //     49 -----------
(PID.TID 0000.0001) //     48 -----------
(PID.TID 0000.0001) //     47 -----------
(PID.TID 0000.0001) //     46 -----------
(PID.TID 0000.0001) //     45 -----------
(PID.TID 0000.0001) //     44 -----------
(PID.TID 0000.0001) //     43 -----------
(PID.TID 0000.0001) //     42 -----------
(PID.TID 0000.0001) //     41 -----------
(PID.TID 0000.0001) //     40 -----------
(PID.TID 0000.0001) //     39 -----------
(PID.TID 0000.0001) //     38 -----------
(PID.TID 0000.0001) //     37 -----------
(PID.TID 0000.0001) //     36 -----------
(PID.TID 0000.0001) //     35 -----------
(PID.TID 0000.0001) //     34 -----------
(PID.TID 0000.0001) //     33 -----------
(PID.TID 0000.0001) //     32 -----------
(PID.TID 0000.0001) //     31 -----------
(PID.TID 0000.0001) //     30 -----------
(PID.TID 0000.0001) //     29 -----------
(PID.TID 0000.0001) //     28 -----------
(PID.TID 0000.0001) //     27 -----------
(PID.TID 0000.0001) //     26 -----------
(PID.TID 0000.0001) //     25 -----------
(PID.TID 0000.0001) //     24 -----------
(PID.TID 0000.0001) //     23 -----------
(PID.TID 0000.0001) //     22 -----------
(PID.TID 0000.0001) //     21 -----------
(PID.TID 0000.0001) //     20 -----------
(PID.TID 0000.0001) //     19 -----------
(PID.TID 0000.0001) //     18 -----------
(PID.TID 0000.0001) //     17 -----------
(PID.TID 0000.0001) //     16 -----------
(PID.TID 0000.0001) //     15 -----------
(PID.TID 0000.0001) //     14 -----------
(PID.TID 0000.0001) //     13 -----------
(PID.TID 0000.0001) //     12 -----------
(PID.TID 0000.0001) //     11 -----------
(PID.TID 0000.0001) //     10 -----------
(PID.TID 0000.0001) //      9 -----------
(PID.TID 0000.0001) //      8 -----------
(PID.TID 0000.0001) //      7 -----------
(PID.TID 0000.0001) //      6 -----------
(PID.TID 0000.0001) //      5 -----------
(PID.TID 0000.0001) //      4 -----------
(PID.TID 0000.0001) //      3 -----------
(PID.TID 0000.0001) //      2 -----------
(PID.TID 0000.0001) //      1 -----------
(PID.TID 0000.0001) //      0 ...........
(PID.TID 0000.0001) //     -1 ...........
(PID.TID 0000.0001) //     -2 ...........
(PID.TID 0000.0001) //     -3 ...........
(PID.TID 0000.0001) //     -4 ...........
(PID.TID 0000.0001) // =======================================================
(PID.TID 0000.0001) // END OF FIELD                                          =
(PID.TID 0000.0001) // =======================================================
(PID.TID 0000.0001) 
(PID.TID 0000.0001) // =======================================================
(PID.TID 0000.0001) // Field hFacW at iteration          1
(PID.TID 0000.0001) // CMIN =          1.000000000000000E+00
(PID.TID 0000.0001) // CMAX =          1.000000000000000E+00
(PID.TID 0000.0001) // CINT =          0.000000000000000E+00
(PID.TID 0000.0001) // SYMBOLS (CMIN->CMAX): -abcdefghijklmnopqrstuvwxyz+
(PID.TID 0000.0001) //                  0.0: .
(PID.TID 0000.0001) // RANGE I (Lo:Hi:Step):(  -4:   6:   1)
(PID.TID 0000.0001) // RANGE J (Lo:Hi:Step):(  69:  -4:  -1)
(PID.TID 0000.0001) // RANGE K (Lo:Hi:Step):(   1:   1:   1)
(PID.TID 0000.0001) // =======================================================
(PID.TID 0000.0001) K =   1
(PID.TID 0000.0001) //                I=5
(PID.TID 0000.0001) // |--J--|****01234|6
(PID.TID 0000.0001) //     69 -----------
(PID.TID 0000.0001) //     68 -----------
(PID.TID 0000.0001) //     67 -----------
(PID.TID 0000.0001) //     66 -----------
(PID.TID 0000.0001) //     65 -----------
(PID.TID 0000.0001) //     64 -----------
(PID.TID 0000.0001) //     63 -----------
(PID.TID 0000.0001) //     62 -----------
(PID.TID 0000.0001) //     61 -----------
(PID.TID 0000.0001) //     60 -----------
(PID.TID 0000.0001) //     59 -----------
(PID.TID 0000.0001) //     58 -----------
(PID.TID 0000.0001) //     57 -----------
(PID.TID 0000.0001) //     56 -----------
(PID.TID 0000.0001) //     55 -----------
(PID.TID 0000.0001) //     54 -----------
(PID.TID 0000.0001) //     53 -----------
(PID.TID 0000.0001) //     52 -----------
(PID.TID 0000.0001) //     51 -----------
(PID.TID 0000.0001) //     50 -----------
(PID.TID 0000.0001) //     49 -----------
(PID.TID 0000.0001) //     48 -----------
(PID.TID 0000.0001) //     47 -----------
(PID.TID 0000.0001) //     46 -----------
(PID.TID 0000.0001) //     45 -----------
(PID.TID 0000.0001) //     44 -----------
(PID.TID 0000.0001) //     43 -----------
(PID.TID 0000.0001) //     42 -----------
(PID.TID 0000.0001) //     41 -----------
(PID.TID 0000.0001) //     40 -----------
(PID.TID 0000.0001) //     39 -----------
(PID.TID 0000.0001) //     38 -----------
(PID.TID 0000.0001) //     37 -----------
(PID.TID 0000.0001) //     36 -----------
(PID.TID 0000.0001) //     35 -----------
(PID.TID 0000.0001) //     34 -----------
(PID.TID 0000.0001) //     33 -----------
(PID.TID 0000.0001) //     32 -----------
(PID.TID 0000.0001) //     31 -----------
(PID.TID 0000.0001) //     30 -----------
(PID.TID 0000.0001) //     29 -----------
(PID.TID 0000.0001) //     28 -----------
(PID.TID 0000.0001) //     27 -----------
(PID.TID 0000.0001) //     26 -----------
(PID.TID 0000.0001) //     25 -----------
(PID.TID 0000.0001) //     24 -----------
(PID.TID 0000.0001) //     23 -----------
(PID.TID 0000.0001) //     22 -----------
(PID.TID 0000.0001) //     21 -----------
(PID.TID 0000.0001) //     20 -----------
(PID.TID 0000.0001) //     19 -----------
(PID.TID 0000.0001) //     18 -----------
(PID.TID 0000.0001) //     17 -----------
(PID.TID 0000.0001) //     16 -----------
(PID.TID 0000.0001) //     15 -----------
(PID.TID 0000.0001) //     14 -----------
(PID.TID 0000.0001) //     13 -----------
(PID.TID 0000.0001) //     12 -----------
(PID.TID 0000.0001) //     11 -----------
(PID.TID 0000.0001) //     10 -----------
(PID.TID 0000.0001) //      9 -----------
(PID.TID 0000.0001) //      8 -----------
(PID.TID 0000.0001) //      7 -----------
(PID.TID 0000.0001) //      6 -----------
(PID.TID 0000.0001) //      5 -----------
(PID.TID 0000.0001) //      4 -----------
(PID.TID 0000.0001) //      3 -----------
(PID.TID 0000.0001) //      2 -----------
(PID.TID 0000.0001) //      1 -----------
(PID.TID 0000.0001) //      0 -----------
(PID.TID 0000.0001) //     -1 -----------
(PID.TID 0000.0001) //     -2 -----------
(PID.TID 0000.0001) //     -3 -----------
(PID.TID 0000.0001) //     -4 -----------
(PID.TID 0000.0001) // =======================================================
(PID.TID 0000.0001) // END OF FIELD                                          =
(PID.TID 0000.0001) // =======================================================
(PID.TID 0000.0001) 
(PID.TID 0000.0001) // =======================================================
(PID.TID 0000.0001) // Field hFacS at iteration          1
(PID.TID 0000.0001) // CMIN =          1.000000000000000E+00
(PID.TID 0000.0001) // CMAX =          1.000000000000000E+00
(PID.TID 0000.0001) // CINT =          0.000000000000000E+00
(PID.TID 0000.0001) // SYMBOLS (CMIN->CMAX): -abcdefghijklmnopqrstuvwxyz+
(PID.TID 0000.0001) //                  0.0: .
(PID.TID 0000.0001) // RANGE I (Lo:Hi:Step):(  -4:   6:   1)
(PID.TID 0000.0001) // RANGE J (Lo:Hi:Step):(  69:  -4:  -1)
(PID.TID 0000.0001) // RANGE K (Lo:Hi:Step):(   1:   1:   1)
(PID.TID 0000.0001) // =======================================================
(PID.TID 0000.0001) K =   1
(PID.TID 0000.0001) //                I=5
(PID.TID 0000.0001) // |--J--|****01234|6
(PID.TID 0000.0001) //     69 ...........
(PID.TID 0000.0001) //     68 ...........
(PID.TID 0000.0001) //     67 ...........
(PID.TID 0000.0001) //     66 ...........
(PID.TID 0000.0001) //     65 ...........
(PID.TID 0000.0001) //     64 -----------
(PID.TID 0000.0001) //     63 -----------
(PID.TID 0000.0001) //     62 -----------
(PID.TID 0000.0001) //     61 -----------
(PID.TID 0000.0001) //     60 -----------
(PID.TID 0000.0001) //     59 -----------
(PID.TID 0000.0001) //     58 -----------
(PID.TID 0000.0001) //     57 -----------
(PID.TID 0000.0001) //     56 -----------
(PID.TID 0000.0001) //     55 -----------
(PID.TID 0000.0001) //     54 -----------
(PID.TID 0000.0001) //     53 -----------
(PID.TID 0000.0001) //     52 -----------
(PID.TID 0000.0001) //     51 -----------
(PID.TID 0000.0001) //     50 -----------
(PID.TID 0000.0001) //     49 -----------
(PID.TID 0000.0001) //     48 -----------
(PID.TID 0000.0001) //     47 -----------
(PID.TID 0000.0001) //     46 -----------
(PID.TID 0000.0001) //     45 -----------
(PID.TID 0000.0001) //     44 -----------
(PID.TID 0000.0001) //     43 -----------
(PID.TID 0000.0001) //     42 -----------
(PID.TID 0000.0001) //     41 -----------
(PID.TID 0000.0001) //     40 -----------
(PID.TID 0000.0001) //     39 -----------
(PID.TID 0000.0001) //     38 -----------
(PID.TID 0000.0001) //     37 -----------
(PID.TID 0000.0001) //     36 -----------
(PID.TID 0000.0001) //     35 -----------
(PID.TID 0000.0001) //     34 -----------
(PID.TID 0000.0001) //     33 -----------
(PID.TID 0000.0001) //     32 -----------
(PID.TID 0000.0001) //     31 -----------
(PID.TID 0000.0001) //     30 -----------
(PID.TID 0000.0001) //     29 -----------
(PID.TID 0000.0001) //     28 -----------
(PID.TID 0000.0001) //     27 -----------
(PID.TID 0000.0001) //     26 -----------
(PID.TID 0000.0001) //     25 -----------
(PID.TID 0000.0001) //     24 -----------
(PID.TID 0000.0001) //     23 -----------
(PID.TID 0000.0001) //     22 -----------
(PID.TID 0000.0001) //     21 -----------
(PID.TID 0000.0001) //     20 -----------
(PID.TID 0000.0001) //     19 -----------
(PID.TID 0000.0001) //     18 -----------
(PID.TID 0000.0001) //     17 -----------
(PID.TID 0000.0001) //     16 -----------
(PID.TID 0000.0001) //     15 -----------
(PID.TID 0000.0001) //     14 -----------
(PID.TID 0000.0001) //     13 -----------
(PID.TID 0000.0001) //     12 -----------
(PID.TID 0000.0001) //     11 -----------
(PID.TID 0000.0001) //     10 -----------
(PID.TID 0000.0001) //      9 -----------
(PID.TID 0000.0001) //      8 -----------
(PID.TID 0000.0001) //      7 -----------
(PID.TID 0000.0001) //      6 -----------
(PID.TID 0000.0001) //      5 -----------
(PID.TID 0000.0001) //      4 -----------
(PID.TID 0000.0001) //      3 -----------
(PID.TID 0000.0001) //      2 -----------
(PID.TID 0000.0001) //      1 ...........
(PID.TID 0000.0001) //      0 ...........
(PID.TID 0000.0001) //     -1 ...........
(PID.TID 0000.0001) //     -2 ...........
(PID.TID 0000.0001) //     -3 ...........
(PID.TID 0000.0001) //     -4 ...........
(PID.TID 0000.0001) // =======================================================
(PID.TID 0000.0001) // END OF FIELD                                          =
(PID.TID 0000.0001) // =======================================================
(PID.TID 0000.0001) 
(PID.TID 0000.0001) %MON fCori_max                    =   1.4540029928789E-04
(PID.TID 0000.0001) %MON fCori_min                    =  -1.4540029928789E-04
(PID.TID 0000.0001) %MON fCori_mean                   =  -4.2351647362715E-22
(PID.TID 0000.0001) %MON fCori_sd                     =   1.0284451245737E-04
(PID.TID 0000.0001) %MON fCoriG_max                   =   1.4526891053949E-04
(PID.TID 0000.0001) %MON fCoriG_min                   =  -1.4544410433286E-04
(PID.TID 0000.0001) %MON fCoriG_mean                  =  -2.3086365767121E-06
(PID.TID 0000.0001) %MON fCoriG_sd                    =   1.0363181330709E-04
(PID.TID 0000.0001)  PACKAGES_BOOT: opening data.pkg
(PID.TID 0000.0001)  OPEN_COPY_DATA_FILE: opening file data.pkg
(PID.TID 0000.0001) // =======================================================
(PID.TID 0000.0001) // Parameter file "data.pkg"
(PID.TID 0000.0001) // =======================================================
(PID.TID 0000.0001) ># Packages
(PID.TID 0000.0001) > &PACKAGES
(PID.TID 0000.0001) > useSHAP_FILT=.TRUE.,
(PID.TID 0000.0001) > &
(PID.TID 0000.0001) 
(PID.TID 0000.0001)  PACKAGES_BOOT: finished reading data.pkg
(PID.TID 0000.0001)  SHAP_FILT_READPARMS: opening data.shap
(PID.TID 0000.0001)  OPEN_COPY_DATA_FILE: opening file data.shap
(PID.TID 0000.0001) // =======================================================
(PID.TID 0000.0001) // Parameter file "data.shap"
(PID.TID 0000.0001) // =======================================================
(PID.TID 0000.0001) ># Packages
(PID.TID 0000.0001) > &SHAP_PARM01
(PID.TID 0000.0001) > nShapT=4,
(PID.TID 0000.0001) > nShapUV=4,
(PID.TID 0000.0001) > Shap_funct=4,
(PID.TID 0000.0001) > &
(PID.TID 0000.0001) 
(PID.TID 0000.0001)  SHAP_FILT_READPARMS: finished reading data.shap
 Shap_funct, nShap_Tr,UV _Phys= 4 4 4 0 0
 Shap_Trtau,Shap_uvtau=  1200.  1200.
(PID.TID 0000.0001) // CG2D normalisation factor =          0.2454122852291226263129944E-06
(PID.TID 0000.0001) 
(PID.TID 0000.0001) // =======================================================
(PID.TID 0000.0001) // Model configuration
(PID.TID 0000.0001) // =======================================================
(PID.TID 0000.0001) //
(PID.TID 0000.0001) // "Physical" paramters ( PARM01 in namelist )
(PID.TID 0000.0001) //
(PID.TID 0000.0001) tRef =   /* Reference temperature profile ( oC or oK ) */
(PID.TID 0000.0001)     5 @  0.000000000000000E+00              /* K =  1:  5 */
(PID.TID 0000.0001)     ;
(PID.TID 0000.0001) sRef =   /* Reference salinity profile ( ppt ) */
(PID.TID 0000.0001)     5 @  0.000000000000000E+00              /* K =  1:  5 */
(PID.TID 0000.0001)     ;
(PID.TID 0000.0001) viscAh =   /* Lateral eddy viscosity ( m^2/s ) */
(PID.TID 0000.0001)                 0.000000000000000E+00
(PID.TID 0000.0001)     ;
(PID.TID 0000.0001) viscAh =   /* Lateral biharmonic viscosity ( m^4/s ) */
(PID.TID 0000.0001)                 0.000000000000000E+00
(PID.TID 0000.0001)     ;
(PID.TID 0000.0001) no_slip_sides =  /* Viscous BCs: No-slip sides */
(PID.TID 0000.0001)                   F
(PID.TID 0000.0001)     ;
(PID.TID 0000.0001) viscAr =   /* Vertical eddy viscosity ( units of r^2/s ) */
(PID.TID 0000.0001)                 0.000000000000000E+00
(PID.TID 0000.0001)     ;
(PID.TID 0000.0001) diffKhT =   /* Laplacian diffusion of heat laterally ( m^2/s ) */
(PID.TID 0000.0001)                 0.000000000000000E+00
(PID.TID 0000.0001)     ;
(PID.TID 0000.0001) diffK4T =   /* Bihaarmonic diffusion of heat laterally ( m^4/s ) */
(PID.TID 0000.0001)                 0.000000000000000E+00
(PID.TID 0000.0001)     ;
(PID.TID 0000.0001) diffKzT =   /* Laplacian diffusion of heat vertically ( m^2/s ) */
(PID.TID 0000.0001)                 1.234567000000000E+05
(PID.TID 0000.0001)     ;
(PID.TID 0000.0001) diffKrT =   /* Laplacian diffusion of heat vertically ( m^2/s ) */
(PID.TID 0000.0001)                 0.000000000000000E+00
(PID.TID 0000.0001)     ;
(PID.TID 0000.0001) diffKhS =   /* Laplacian diffusion of salt laterally ( m^2/s ) */
(PID.TID 0000.0001)                 0.000000000000000E+00
(PID.TID 0000.0001)     ;
(PID.TID 0000.0001) diffK4S =   /* Bihaarmonic diffusion of salt laterally ( m^4/s ) */
(PID.TID 0000.0001)                 0.000000000000000E+00
(PID.TID 0000.0001)     ;
(PID.TID 0000.0001) diffKzS =   /* Laplacian diffusion of salt vertically ( m^2/s ) */
(PID.TID 0000.0001)                 1.234567000000000E+05
(PID.TID 0000.0001)     ;
(PID.TID 0000.0001) diffKrS =   /* Laplacian diffusion of salt vertically ( m^2/s ) */
(PID.TID 0000.0001)                 0.000000000000000E+00
(PID.TID 0000.0001)     ;
(PID.TID 0000.0001) tAlpha =   /* Linear EOS thermal expansion coefficient ( 1/degree ) */
(PID.TID 0000.0001)                 2.000000000000000E-04
(PID.TID 0000.0001)     ;
(PID.TID 0000.0001) sBeta =   /* Linear EOS haline contraction coefficient ( 1/ppt ) */
(PID.TID 0000.0001)                 7.400000000000000E-04
(PID.TID 0000.0001)     ;
(PID.TID 0000.0001) rhonil =   /* Reference density ( kg/m^3 ) */
(PID.TID 0000.0001)                 1.000000000000000E+00
(PID.TID 0000.0001)     ;
(PID.TID 0000.0001) rhoConst =   /* Reference density ( kg/m^3 ) */
(PID.TID 0000.0001)                 1.000000000000000E+00
(PID.TID 0000.0001)     ;
(PID.TID 0000.0001) gravity =   /* Gravitational acceleration ( m/s^2 ) */
(PID.TID 0000.0001)                 9.810000000000000E+00
(PID.TID 0000.0001)     ;
(PID.TID 0000.0001) gBaro =   /* Barotropic gravity ( m/s^2 ) */
(PID.TID 0000.0001)                 9.810000000000000E+00
(PID.TID 0000.0001)     ;
(PID.TID 0000.0001) f0 =   /* Reference coriolis parameter ( 1/s ) */
(PID.TID 0000.0001)                 1.000000000000000E-04
(PID.TID 0000.0001)     ;
(PID.TID 0000.0001) beta =   /* Beta ( 1/(m.s) ) */
(PID.TID 0000.0001)                 9.999999999999999E-12
(PID.TID 0000.0001)     ;
(PID.TID 0000.0001) freeSurfFac =   /* Implicit free surface factor */
(PID.TID 0000.0001)                 1.000000000000000E+00
(PID.TID 0000.0001)     ;
(PID.TID 0000.0001) implicitFreeSurface =   /* Implicit free surface on/off flag */
(PID.TID 0000.0001)                   T
(PID.TID 0000.0001)     ;
(PID.TID 0000.0001) rigidLid =   /* Rigid lid on/off flag */
(PID.TID 0000.0001)                   F
(PID.TID 0000.0001)     ;
(PID.TID 0000.0001) implicSurfPress =   /* Surface Pressure implicit factor (0-1)*/
(PID.TID 0000.0001)                 1.000000000000000E+00
(PID.TID 0000.0001)     ;
(PID.TID 0000.0001) implicDiv2Dflow =   /* Barot. Flow Div. implicit factor (0-1)*/
(PID.TID 0000.0001)                 1.000000000000000E+00
(PID.TID 0000.0001)     ;
(PID.TID 0000.0001) staggerTimeStep =   /* Stagger time stepping on/off flag */
(PID.TID 0000.0001)                   T
(PID.TID 0000.0001)     ;
(PID.TID 0000.0001) momStepping =  /* Momentum equation on/off flag */
(PID.TID 0000.0001)                   T
(PID.TID 0000.0001)     ;
(PID.TID 0000.0001) momAdvection =  /* Momentum advection on/off flag */
(PID.TID 0000.0001)                   T
(PID.TID 0000.0001)     ;
(PID.TID 0000.0001) momViscosity =  /* Momentum viscosity on/off flag */
(PID.TID 0000.0001)                   T
(PID.TID 0000.0001)     ;
(PID.TID 0000.0001) useCoriolis =  /* Coriolis on/off flag */
(PID.TID 0000.0001)                   T
(PID.TID 0000.0001)     ;
(PID.TID 0000.0001) momForcing =  /* Momentum forcing on/off flag */
(PID.TID 0000.0001)                   T
(PID.TID 0000.0001)     ;
(PID.TID 0000.0001) momPressureForcing =  /* Momentum pressure term on/off flag */
(PID.TID 0000.0001)                   T
(PID.TID 0000.0001)     ;
(PID.TID 0000.0001) tempStepping =  /* Temperature equation on/off flag */
(PID.TID 0000.0001)                   T
(PID.TID 0000.0001)     ;
(PID.TID 0000.0001) nonHydrostatic =  /* Non-Hydrostatic on/off flag */
(PID.TID 0000.0001)                   F
(PID.TID 0000.0001)     ;
(PID.TID 0000.0001) //
(PID.TID 0000.0001) // Elliptic solver(s) paramters ( PARM02 in namelist )
(PID.TID 0000.0001) //
(PID.TID 0000.0001) cg2dMaxIters =   /* Upper limit on 2d con. grad iterations  */
(PID.TID 0000.0001)                     600
(PID.TID 0000.0001)     ;
(PID.TID 0000.0001) cg2dChkResFreq =   /* 2d con. grad convergence test frequency */
(PID.TID 0000.0001)                       1
(PID.TID 0000.0001)     ;
(PID.TID 0000.0001) cg2dTargetResidual =   /* 2d con. grad target residual  */
(PID.TID 0000.0001)                 1.000000000000000E-13
(PID.TID 0000.0001)     ;
(PID.TID 0000.0001) //
(PID.TID 0000.0001) // Time stepping paramters ( PARM03 in namelist )
(PID.TID 0000.0001) //
(PID.TID 0000.0001) nIter0 =   /* Base timestep number  */
(PID.TID 0000.0001)                       0
(PID.TID 0000.0001)     ;
(PID.TID 0000.0001) nTimeSteps =   /* Number of timesteps */
(PID.TID 0000.0001)                      10
(PID.TID 0000.0001)     ;
(PID.TID 0000.0001) deltatTmom =   /* Momentum equation timestep ( s ) */
(PID.TID 0000.0001)                 1.200000000000000E+03
(PID.TID 0000.0001)     ;
(PID.TID 0000.0001) deltatTtracer =   /* Tracer equation timestep ( s ) */
(PID.TID 0000.0001)                 1.200000000000000E+03
(PID.TID 0000.0001)     ;
(PID.TID 0000.0001) deltatTClock  =   /* Model clock timestep ( s ) */
(PID.TID 0000.0001)                 1.200000000000000E+03
(PID.TID 0000.0001)     ;
(PID.TID 0000.0001) cAdjFreq =   /* Convective adjustment interval ( s ) */
(PID.TID 0000.0001)                 0.000000000000000E+00
(PID.TID 0000.0001)     ;
(PID.TID 0000.0001) abeps =   /* Adams-Bashforth stabilizing weight */
(PID.TID 0000.0001)                 1.000000000000000E-01
(PID.TID 0000.0001)     ;
(PID.TID 0000.0001) tauCD =   /* CD coupling time-scale ( s ) */
(PID.TID 0000.0001)                 1.200000000000000E+03
(PID.TID 0000.0001)     ;
(PID.TID 0000.0001) rCD =   /* Normalised CD coupling parameter */
(PID.TID 0000.0001)                 0.000000000000000E+00
(PID.TID 0000.0001)     ;
(PID.TID 0000.0001) startTime =   /* Run start time ( s ). */
(PID.TID 0000.0001)                 0.000000000000000E+00
(PID.TID 0000.0001)     ;
(PID.TID 0000.0001) endTime =   /* Integration ending time ( s ). */
(PID.TID 0000.0001)                 1.200000000000000E+04
(PID.TID 0000.0001)     ;
(PID.TID 0000.0001) pChkPtFreq =   /* Permanent restart/checkpoint file interval ( s ). */
(PID.TID 0000.0001)                 0.000000000000000E+00
(PID.TID 0000.0001)     ;
(PID.TID 0000.0001) chkPtFreq =   /* Rolling restart/checkpoint file interval ( s ). */
(PID.TID 0000.0001)                 0.000000000000000E+00
(PID.TID 0000.0001)     ;
(PID.TID 0000.0001) dumpFreq =   /* Model state write out interval ( s ). */
(PID.TID 0000.0001)                 2.592000000000000E+06
(PID.TID 0000.0001)     ;
(PID.TID 0000.0001) //
(PID.TID 0000.0001) // Gridding paramters ( PARM04 in namelist )
(PID.TID 0000.0001) //
(PID.TID 0000.0001) usingCartesianGrid =   /* Cartesian coordinates flag ( True / False ) */
(PID.TID 0000.0001)                   F
(PID.TID 0000.0001)     ;
(PID.TID 0000.0001) usingSphericalPolarGrid =   /* Spherical coordinates flag ( True / False ) */
(PID.TID 0000.0001)                   T
(PID.TID 0000.0001)     ;
(PID.TID 0000.0001) groundAtK1 =   /* Lower Boundary (ground) at the surface(k=1) ( T / F ) */
(PID.TID 0000.0001)                   T
(PID.TID 0000.0001)     ;
(PID.TID 0000.0001) Ro_SeaLevel =   /* r(1) ( units of r ) */
(PID.TID 0000.0001)                 1.000000000000000E+05
(PID.TID 0000.0001)     ;
(PID.TID 0000.0001) rkFac =   /* minus Vertical index orientation  */
(PID.TID 0000.0001)                 1.000000000000000E+00
(PID.TID 0000.0001)     ;
(PID.TID 0000.0001) horiVertRatio =   /* Ratio on units : Horiz - Vertical */
(PID.TID 0000.0001)                 9.810000000000000E+00
(PID.TID 0000.0001)     ;
(PID.TID 0000.0001) delZ =   /* W spacing ( m ) */
(PID.TID 0000.0001)     5 @  1.234567000000000E+05              /* K =  1:  5 */
(PID.TID 0000.0001)     ;
(PID.TID 0000.0001) delP =   /* W spacing ( Pa ) */
(PID.TID 0000.0001)     5 @  1.234567000000000E+05              /* K =  1:  5 */
(PID.TID 0000.0001)     ;
(PID.TID 0000.0001) delR =   /* W spacing ( units of r ) */
(PID.TID 0000.0001)                 1.000000000000000E+04,      /* K =  1 */
(PID.TID 0000.0001)                 2.500000000000000E+04,      /* K =  2 */
(PID.TID 0000.0001)                 3.000000000000000E+04,      /* K =  3 */
(PID.TID 0000.0001)                 2.000000000000000E+04,      /* K =  4 */
(PID.TID 0000.0001)                 1.500000000000000E+04       /* K =  5 */
(PID.TID 0000.0001)     ;
(PID.TID 0000.0001) delX =   /* U spacing ( m - cartesian, degrees - spherical ) */
(PID.TID 0000.0001)                 2.812500000000000E+00       /* I =  1 */
(PID.TID 0000.0001)     ;
(PID.TID 0000.0001) delY =   /* V spacing ( m - cartesian, degrees - spherical ) */
(PID.TID 0000.0001)    64 @  2.812500000000000E+00              /* J =  1: 64 */
(PID.TID 0000.0001)     ;
(PID.TID 0000.0001) phiMin =    /* South edge (ignored - cartesian, degrees - spherical ) */
(PID.TID 0000.0001)                -9.000000000000000E+01
(PID.TID 0000.0001)     ;
(PID.TID 0000.0001) thetaMin =    /* West edge ( ignored - cartesian, degrees - spherical ) */
(PID.TID 0000.0001)                 0.000000000000000E+00
(PID.TID 0000.0001)     ;
(PID.TID 0000.0001) rSphere =    /* Radius ( ignored - cartesian, m - spherical ) */
(PID.TID 0000.0001)                 6.370000000000000E+06
(PID.TID 0000.0001)     ;
(PID.TID 0000.0001) xcoord =   /* P-point X coord ( m - cartesian, degrees - spherical ) */
(PID.TID 0000.0001)                 1.406250000000000E+00       /* I =  1 */
(PID.TID 0000.0001)     ;
(PID.TID 0000.0001) ycoord =   /* P-point Y coord ( m - cartesian, degrees - spherical ) */
(PID.TID 0000.0001)                -8.859375000000000E+01,      /* J =  1 */
(PID.TID 0000.0001)                -8.578125000000000E+01,      /* J =  2 */
(PID.TID 0000.0001)                -8.296875000000000E+01,      /* J =  3 */
(PID.TID 0000.0001)                -8.015625000000000E+01,      /* J =  4 */
(PID.TID 0000.0001)                -7.734375000000000E+01,      /* J =  5 */
(PID.TID 0000.0001)                -7.453125000000000E+01,      /* J =  6 */
(PID.TID 0000.0001)                -7.171875000000000E+01,      /* J =  7 */
(PID.TID 0000.0001)                -6.890625000000000E+01,      /* J =  8 */
(PID.TID 0000.0001)                -6.609375000000000E+01,      /* J =  9 */
(PID.TID 0000.0001)                -6.328125000000000E+01,      /* J = 10 */
(PID.TID 0000.0001)                -6.046875000000000E+01,      /* J = 11 */
(PID.TID 0000.0001)                -5.765625000000000E+01,      /* J = 12 */
(PID.TID 0000.0001)                -5.484375000000000E+01,      /* J = 13 */
(PID.TID 0000.0001)                -5.203125000000000E+01,      /* J = 14 */
(PID.TID 0000.0001)                -4.921875000000000E+01,      /* J = 15 */
(PID.TID 0000.0001)                -4.640625000000000E+01,      /* J = 16 */
(PID.TID 0000.0001)                -4.359375000000000E+01,      /* J = 17 */
(PID.TID 0000.0001)                -4.078125000000000E+01,      /* J = 18 */
(PID.TID 0000.0001)                -3.796875000000000E+01,      /* J = 19 */
(PID.TID 0000.0001)                -3.515625000000000E+01,      /* J = 20 */
(PID.TID 0000.0001)                -3.234375000000000E+01,      /* J = 21 */
(PID.TID 0000.0001)                -2.953125000000000E+01,      /* J = 22 */
(PID.TID 0000.0001)                -2.671875000000000E+01,      /* J = 23 */
(PID.TID 0000.0001)                -2.390625000000000E+01,      /* J = 24 */
(PID.TID 0000.0001)                -2.109375000000000E+01,      /* J = 25 */
(PID.TID 0000.0001)                -1.828125000000000E+01,      /* J = 26 */
(PID.TID 0000.0001)                -1.546875000000000E+01,      /* J = 27 */
(PID.TID 0000.0001)                -1.265625000000000E+01,      /* J = 28 */
(PID.TID 0000.0001)                -9.843750000000000E+00,      /* J = 29 */
(PID.TID 0000.0001)                -7.031250000000000E+00,      /* J = 30 */
(PID.TID 0000.0001)                -4.218750000000000E+00,      /* J = 31 */
(PID.TID 0000.0001)                -1.406250000000000E+00,      /* J = 32 */
(PID.TID 0000.0001)                 1.406250000000000E+00,      /* J = 33 */
(PID.TID 0000.0001)                 4.218750000000000E+00,      /* J = 34 */
(PID.TID 0000.0001)                 7.031250000000000E+00,      /* J = 35 */
(PID.TID 0000.0001)                 9.843750000000000E+00,      /* J = 36 */
(PID.TID 0000.0001)                 1.265625000000000E+01,      /* J = 37 */
(PID.TID 0000.0001)                 1.546875000000000E+01,      /* J = 38 */
(PID.TID 0000.0001)                 1.828125000000000E+01,      /* J = 39 */
(PID.TID 0000.0001)                 2.109375000000000E+01,      /* J = 40 */
(PID.TID 0000.0001)                 2.390625000000000E+01,      /* J = 41 */
(PID.TID 0000.0001)                 2.671875000000000E+01,      /* J = 42 */
(PID.TID 0000.0001)                 2.953125000000000E+01,      /* J = 43 */
(PID.TID 0000.0001)                 3.234375000000000E+01,      /* J = 44 */
(PID.TID 0000.0001)                 3.515625000000000E+01,      /* J = 45 */
(PID.TID 0000.0001)                 3.796875000000000E+01,      /* J = 46 */
(PID.TID 0000.0001)                 4.078125000000000E+01,      /* J = 47 */
(PID.TID 0000.0001)                 4.359375000000000E+01,      /* J = 48 */
(PID.TID 0000.0001)                 4.640625000000000E+01,      /* J = 49 */
(PID.TID 0000.0001)                 4.921875000000000E+01,      /* J = 50 */
(PID.TID 0000.0001)                 5.203125000000000E+01,      /* J = 51 */
(PID.TID 0000.0001)                 5.484375000000000E+01,      /* J = 52 */
(PID.TID 0000.0001)                 5.765625000000000E+01,      /* J = 53 */
(PID.TID 0000.0001)                 6.046875000000000E+01,      /* J = 54 */
(PID.TID 0000.0001)                 6.328125000000000E+01,      /* J = 55 */
(PID.TID 0000.0001)                 6.609375000000000E+01,      /* J = 56 */
(PID.TID 0000.0001)                 6.890625000000000E+01,      /* J = 57 */
(PID.TID 0000.0001)                 7.171875000000000E+01,      /* J = 58 */
(PID.TID 0000.0001)                 7.453125000000000E+01,      /* J = 59 */
(PID.TID 0000.0001)                 7.734375000000000E+01,      /* J = 60 */
(PID.TID 0000.0001)                 8.015625000000000E+01,      /* J = 61 */
(PID.TID 0000.0001)                 8.296875000000000E+01,      /* J = 62 */
(PID.TID 0000.0001)                 8.578125000000000E+01,      /* J = 63 */
(PID.TID 0000.0001)                 8.859375000000000E+01       /* J = 64 */
(PID.TID 0000.0001)     ;
(PID.TID 0000.0001) rcoord =   /* P-point R coordinate (  units of r ) */
(PID.TID 0000.0001)                 9.500000000000000E+04,      /* K =  1 */
(PID.TID 0000.0001)                 7.750000000000000E+04,      /* K =  2 */
(PID.TID 0000.0001)                 5.000000000000000E+04,      /* K =  3 */
(PID.TID 0000.0001)                 2.500000000000000E+04,      /* K =  4 */
(PID.TID 0000.0001)                 7.500000000000000E+03       /* K =  5 */
(PID.TID 0000.0001)     ;
(PID.TID 0000.0001) dxF =  /* dxF(:,1,:,1) ( m - cartesian, degrees - spherical ) */
(PID.TID 0000.0001)                 7.673714381622298E+03       /* I =  1 */
(PID.TID 0000.0001)     ;
(PID.TID 0000.0001) dxF =  /* dxF(1,:,1,:) ( m - cartesian, degrees - spherical ) */
(PID.TID 0000.0001)                 7.673714381622298E+03,      /* J =  1 */
(PID.TID 0000.0001)                 2.300265649478360E+04,      /* J =  2 */
(PID.TID 0000.0001)                 3.827618319365421E+04,      /* J =  3 */
(PID.TID 0000.0001)                 5.345749921461356E+04,      /* J =  4 */
(PID.TID 0000.0001)                 6.851003143764105E+04,      /* J =  5 */
(PID.TID 0000.0001)                 8.339751699416523E+04,      /* J =  6 */
(PID.TID 0000.0001)                 9.808409062749070E+04,      /* J =  7 */
(PID.TID 0000.0001)                 1.125343710953429E+05,      /* J =  8 */
(PID.TID 0000.0001)                 1.267135464063795E+05,      /* J =  9 */
(PID.TID 0000.0001)                 1.405874576853274E+05,      /* J = 10 */
(PID.TID 0000.0001)                 1.541226814647045E+05,      /* J = 11 */
(PID.TID 0000.0001)                 1.672866102048804E+05,      /* J = 12 */
(PID.TID 0000.0001)                 1.800475308484964E+05,      /* J = 13 */
(PID.TID 0000.0001)                 1.923747012199971E+05,      /* J = 14 */
(PID.TID 0000.0001)                 2.042384240862251E+05,      /* J = 15 */
(PID.TID 0000.0001)                 2.156101186996563E+05,      /* J = 16 */
(PID.TID 0000.0001)                 2.264623896519241E+05,      /* J = 17 */
(PID.TID 0000.0001)                 2.367690928717576E+05,      /* J = 18 */
(PID.TID 0000.0001)                 2.465053986083400E+05,      /* J = 19 */
(PID.TID 0000.0001)                 2.556478512483520E+05,      /* J = 20 */
(PID.TID 0000.0001)                 2.641744258225996E+05,      /* J = 21 */
(PID.TID 0000.0001)                 2.720645810660936E+05,      /* J = 22 */
(PID.TID 0000.0001)                 2.792993089037566E+05,      /* J = 23 */
(PID.TID 0000.0001)                 2.858611802425402E+05,      /* J = 24 */
(PID.TID 0000.0001)                 2.917343869596373E+05,      /* J = 25 */
(PID.TID 0000.0001)                 2.969047799856343E+05,      /* J = 26 */
(PID.TID 0000.0001)                 3.013599033908587E+05,      /* J = 27 */
(PID.TID 0000.0001)                 3.050890243928044E+05,      /* J = 28 */
(PID.TID 0000.0001)                 3.080831592123453E+05,      /* J = 29 */
(PID.TID 0000.0001)                 3.103350947164461E+05,      /* J = 30 */
(PID.TID 0000.0001)                 3.118394057952310E+05,      /* J = 31 */
(PID.TID 0000.0001)     2 @  3.125924684315491E+05,             /* J = 32: 33 */
(PID.TID 0000.0001)                 3.118394057952310E+05,      /* J = 34 */
(PID.TID 0000.0001)                 3.103350947164461E+05,      /* J = 35 */
(PID.TID 0000.0001)                 3.080831592123453E+05,      /* J = 36 */
(PID.TID 0000.0001)                 3.050890243928044E+05,      /* J = 37 */
(PID.TID 0000.0001)                 3.013599033908587E+05,      /* J = 38 */
(PID.TID 0000.0001)                 2.969047799856343E+05,      /* J = 39 */
(PID.TID 0000.0001)                 2.917343869596373E+05,      /* J = 40 */
(PID.TID 0000.0001)                 2.858611802425402E+05,      /* J = 41 */
(PID.TID 0000.0001)                 2.792993089037566E+05,      /* J = 42 */
(PID.TID 0000.0001)                 2.720645810660936E+05,      /* J = 43 */
(PID.TID 0000.0001)                 2.641744258225996E+05,      /* J = 44 */
(PID.TID 0000.0001)                 2.556478512483520E+05,      /* J = 45 */
(PID.TID 0000.0001)                 2.465053986083400E+05,      /* J = 46 */
(PID.TID 0000.0001)                 2.367690928717576E+05,      /* J = 47 */
(PID.TID 0000.0001)                 2.264623896519241E+05,      /* J = 48 */
(PID.TID 0000.0001)                 2.156101186996563E+05,      /* J = 49 */
(PID.TID 0000.0001)                 2.042384240862251E+05,      /* J = 50 */
(PID.TID 0000.0001)                 1.923747012199971E+05,      /* J = 51 */
(PID.TID 0000.0001)                 1.800475308484964E+05,      /* J = 52 */
(PID.TID 0000.0001)                 1.672866102048804E+05,      /* J = 53 */
(PID.TID 0000.0001)                 1.541226814647045E+05,      /* J = 54 */
(PID.TID 0000.0001)                 1.405874576853274E+05,      /* J = 55 */
(PID.TID 0000.0001)                 1.267135464063795E+05,      /* J = 56 */
(PID.TID 0000.0001)                 1.125343710953429E+05,      /* J = 57 */
(PID.TID 0000.0001)                 9.808409062749070E+04,      /* J = 58 */
(PID.TID 0000.0001)                 8.339751699416523E+04,      /* J = 59 */
(PID.TID 0000.0001)                 6.851003143764105E+04,      /* J = 60 */
(PID.TID 0000.0001)                 5.345749921461356E+04,      /* J = 61 */
(PID.TID 0000.0001)                 3.827618319365421E+04,      /* J = 62 */
(PID.TID 0000.0001)                 2.300265649478360E+04,      /* J = 63 */
(PID.TID 0000.0001)                 7.673714381622298E+03       /* J = 64 */
(PID.TID 0000.0001)     ;
(PID.TID 0000.0001) dyF =  /* dyF(:,1,:,1) ( m - cartesian, degrees - spherical ) */
(PID.TID 0000.0001)                 3.126866438026091E+05       /* I =  1 */
(PID.TID 0000.0001)     ;
(PID.TID 0000.0001) dyF =  /* dyF(1,:,1,:) ( m - cartesian, degrees - spherical ) */
(PID.TID 0000.0001)    64 @  3.126866438026091E+05              /* J =  1: 64 */
(PID.TID 0000.0001)     ;
(PID.TID 0000.0001) dxG =  /* dxG(:,1,:,1) ( m - cartesian, degrees - spherical ) */
(PID.TID 0000.0001)                 0.000000000000000E+00       /* I =  1 */
(PID.TID 0000.0001)     ;
(PID.TID 0000.0001) dxG =  /* dxG(1,:,1,:) ( m - cartesian, degrees - spherical ) */
(PID.TID 0000.0001)                 0.000000000000000E+00,      /* J =  1 */
(PID.TID 0000.0001)                 1.534280640463982E+04,      /* J =  2 */
(PID.TID 0000.0001)                 3.064865064477965E+04,      /* J =  3 */
(PID.TID 0000.0001)                 4.588065960101153E+04,      /* J =  4 */
(PID.TID 0000.0001)                 6.100213802959342E+04,      /* J =  5 */
(PID.TID 0000.0001)                 7.597665696450579E+04,      /* J =  6 */
(PID.TID 0000.0001)                 9.076814147802140E+04,      /* J =  7 */
(PID.TID 0000.0001)                 1.053409575883663E+05,      /* J =  8 */
(PID.TID 0000.0001)                 1.196599981051027E+05,      /* J =  9 */
(PID.TID 0000.0001)                 1.336907672054259E+05,      /* J = 10 */
(PID.TID 0000.0001)                 1.473994635376230E+05,      /* J = 11 */
(PID.TID 0000.0001)                 1.607530616514898E+05,      /* J = 12 */
(PID.TID 0000.0001)                 1.737193915595329E+05,      /* J = 13 */
(PID.TID 0000.0001)                 1.862672162372875E+05,      /* J = 14 */
(PID.TID 0000.0001)                 1.983663068760452E+05,      /* J = 15 */
(PID.TID 0000.0001)                 2.099875157067021E+05,      /* J = 16 */
(PID.TID 0000.0001)                 2.211028462192875E+05,      /* J = 17 */
(PID.TID 0000.0001)                 2.316855206090085E+05,      /* J = 18 */
(PID.TID 0000.0001)                 2.417100442863275E+05,      /* J = 19 */
(PID.TID 0000.0001)                 2.511522672956614E+05,      /* J = 20 */
(PID.TID 0000.0001)                 2.599894424947395E+05,      /* J = 21 */
(PID.TID 0000.0001)                 2.682002803544621E+05,      /* J = 22 */
(PID.TID 0000.0001)                 2.757650002472408E+05,      /* J = 23 */
(PID.TID 0000.0001)                 2.826653781002625E+05,      /* J = 24 */
(PID.TID 0000.0001)                 2.888847902988777E+05,      /* J = 25 */
(PID.TID 0000.0001)                 2.944082537343438E+05,      /* J = 26 */
(PID.TID 0000.0001)                 2.992224618994464E+05,      /* J = 27 */
(PID.TID 0000.0001)                 3.033158169450409E+05,      /* J = 28 */
(PID.TID 0000.0001)                 3.066784576202870E+05,      /* J = 29 */
(PID.TID 0000.0001)                 3.093022830292655E+05,      /* J = 30 */
(PID.TID 0000.0001)                 3.111809721467461E+05,      /* J = 31 */
(PID.TID 0000.0001)                 3.123099990460912E+05,      /* J = 32 */
(PID.TID 0000.0001)                 3.126866438026091E+05,      /* J = 33 */
(PID.TID 0000.0001)                 3.123099990460912E+05,      /* J = 34 */
(PID.TID 0000.0001)                 3.111809721467461E+05,      /* J = 35 */
(PID.TID 0000.0001)                 3.093022830292655E+05,      /* J = 36 */
(PID.TID 0000.0001)                 3.066784576202870E+05,      /* J = 37 */
(PID.TID 0000.0001)                 3.033158169450409E+05,      /* J = 38 */
(PID.TID 0000.0001)                 2.992224618994464E+05,      /* J = 39 */
(PID.TID 0000.0001)                 2.944082537343438E+05,      /* J = 40 */
(PID.TID 0000.0001)                 2.888847902988777E+05,      /* J = 41 */
(PID.TID 0000.0001)                 2.826653781002625E+05,      /* J = 42 */
(PID.TID 0000.0001)                 2.757650002472408E+05,      /* J = 43 */
(PID.TID 0000.0001)                 2.682002803544621E+05,      /* J = 44 */
(PID.TID 0000.0001)                 2.599894424947395E+05,      /* J = 45 */
(PID.TID 0000.0001)                 2.511522672956614E+05,      /* J = 46 */
(PID.TID 0000.0001)                 2.417100442863275E+05,      /* J = 47 */
(PID.TID 0000.0001)                 2.316855206090085E+05,      /* J = 48 */
(PID.TID 0000.0001)                 2.211028462192875E+05,      /* J = 49 */
(PID.TID 0000.0001)                 2.099875157067021E+05,      /* J = 50 */
(PID.TID 0000.0001)                 1.983663068760452E+05,      /* J = 51 */
(PID.TID 0000.0001)                 1.862672162372875E+05,      /* J = 52 */
(PID.TID 0000.0001)                 1.737193915595329E+05,      /* J = 53 */
(PID.TID 0000.0001)                 1.607530616514898E+05,      /* J = 54 */
(PID.TID 0000.0001)                 1.473994635376230E+05,      /* J = 55 */
(PID.TID 0000.0001)                 1.336907672054259E+05,      /* J = 56 */
(PID.TID 0000.0001)                 1.196599981051027E+05,      /* J = 57 */
(PID.TID 0000.0001)                 1.053409575883663E+05,      /* J = 58 */
(PID.TID 0000.0001)                 9.076814147802140E+04,      /* J = 59 */
(PID.TID 0000.0001)                 7.597665696450579E+04,      /* J = 60 */
(PID.TID 0000.0001)                 6.100213802959342E+04,      /* J = 61 */
(PID.TID 0000.0001)                 4.588065960101153E+04,      /* J = 62 */
(PID.TID 0000.0001)                 3.064865064477965E+04,      /* J = 63 */
(PID.TID 0000.0001)                 1.534280640463982E+04       /* J = 64 */
(PID.TID 0000.0001)     ;
(PID.TID 0000.0001) dyG =  /* dyG(:,1,:,1) ( m - cartesian, degrees - spherical ) */
(PID.TID 0000.0001)                 3.126866438026091E+05       /* I =  1 */
(PID.TID 0000.0001)     ;
(PID.TID 0000.0001) dyG =  /* dyG(1,:,1,:) ( m - cartesian, degrees - spherical ) */
(PID.TID 0000.0001)    64 @  3.126866438026091E+05              /* J =  1: 64 */
(PID.TID 0000.0001)     ;
(PID.TID 0000.0001) dxC =  /* dxC(:,1,:,1) ( m - cartesian, degrees - spherical ) */
(PID.TID 0000.0001)                 7.673714381622298E+03       /* I =  1 */
(PID.TID 0000.0001)     ;
(PID.TID 0000.0001) dxC =  /* dxC(1,:,1,:) ( m - cartesian, degrees - spherical ) */
(PID.TID 0000.0001)                 7.673714381622298E+03,      /* J =  1 */
(PID.TID 0000.0001)                 2.300265649478360E+04,      /* J =  2 */
(PID.TID 0000.0001)                 3.827618319365421E+04,      /* J =  3 */
(PID.TID 0000.0001)                 5.345749921461356E+04,      /* J =  4 */
(PID.TID 0000.0001)                 6.851003143764105E+04,      /* J =  5 */
(PID.TID 0000.0001)                 8.339751699416523E+04,      /* J =  6 */
(PID.TID 0000.0001)                 9.808409062749070E+04,      /* J =  7 */
(PID.TID 0000.0001)                 1.125343710953429E+05,      /* J =  8 */
(PID.TID 0000.0001)                 1.267135464063795E+05,      /* J =  9 */
(PID.TID 0000.0001)                 1.405874576853274E+05,      /* J = 10 */
(PID.TID 0000.0001)                 1.541226814647045E+05,      /* J = 11 */
(PID.TID 0000.0001)                 1.672866102048804E+05,      /* J = 12 */
(PID.TID 0000.0001)                 1.800475308484964E+05,      /* J = 13 */
(PID.TID 0000.0001)                 1.923747012199971E+05,      /* J = 14 */
(PID.TID 0000.0001)                 2.042384240862251E+05,      /* J = 15 */
(PID.TID 0000.0001)                 2.156101186996563E+05,      /* J = 16 */
(PID.TID 0000.0001)                 2.264623896519241E+05,      /* J = 17 */
(PID.TID 0000.0001)                 2.367690928717576E+05,      /* J = 18 */
(PID.TID 0000.0001)                 2.465053986083400E+05,      /* J = 19 */
(PID.TID 0000.0001)                 2.556478512483520E+05,      /* J = 20 */
(PID.TID 0000.0001)                 2.641744258225996E+05,      /* J = 21 */
(PID.TID 0000.0001)                 2.720645810660936E+05,      /* J = 22 */
(PID.TID 0000.0001)                 2.792993089037566E+05,      /* J = 23 */
(PID.TID 0000.0001)                 2.858611802425402E+05,      /* J = 24 */
(PID.TID 0000.0001)                 2.917343869596373E+05,      /* J = 25 */
(PID.TID 0000.0001)                 2.969047799856343E+05,      /* J = 26 */
(PID.TID 0000.0001)                 3.013599033908587E+05,      /* J = 27 */
(PID.TID 0000.0001)                 3.050890243928044E+05,      /* J = 28 */
(PID.TID 0000.0001)                 3.080831592123453E+05,      /* J = 29 */
(PID.TID 0000.0001)                 3.103350947164461E+05,      /* J = 30 */
(PID.TID 0000.0001)                 3.118394057952310E+05,      /* J = 31 */
(PID.TID 0000.0001)     2 @  3.125924684315491E+05,             /* J = 32: 33 */
(PID.TID 0000.0001)                 3.118394057952310E+05,      /* J = 34 */
(PID.TID 0000.0001)                 3.103350947164461E+05,      /* J = 35 */
(PID.TID 0000.0001)                 3.080831592123453E+05,      /* J = 36 */
(PID.TID 0000.0001)                 3.050890243928044E+05,      /* J = 37 */
(PID.TID 0000.0001)                 3.013599033908587E+05,      /* J = 38 */
(PID.TID 0000.0001)                 2.969047799856343E+05,      /* J = 39 */
(PID.TID 0000.0001)                 2.917343869596373E+05,      /* J = 40 */
(PID.TID 0000.0001)                 2.858611802425402E+05,      /* J = 41 */
(PID.TID 0000.0001)                 2.792993089037566E+05,      /* J = 42 */
(PID.TID 0000.0001)                 2.720645810660936E+05,      /* J = 43 */
(PID.TID 0000.0001)                 2.641744258225996E+05,      /* J = 44 */
(PID.TID 0000.0001)                 2.556478512483520E+05,      /* J = 45 */
(PID.TID 0000.0001)                 2.465053986083400E+05,      /* J = 46 */
(PID.TID 0000.0001)                 2.367690928717576E+05,      /* J = 47 */
(PID.TID 0000.0001)                 2.264623896519241E+05,      /* J = 48 */
(PID.TID 0000.0001)                 2.156101186996563E+05,      /* J = 49 */
(PID.TID 0000.0001)                 2.042384240862251E+05,      /* J = 50 */
(PID.TID 0000.0001)                 1.923747012199971E+05,      /* J = 51 */
(PID.TID 0000.0001)                 1.800475308484964E+05,      /* J = 52 */
(PID.TID 0000.0001)                 1.672866102048804E+05,      /* J = 53 */
(PID.TID 0000.0001)                 1.541226814647045E+05,      /* J = 54 */
(PID.TID 0000.0001)                 1.405874576853274E+05,      /* J = 55 */
(PID.TID 0000.0001)                 1.267135464063795E+05,      /* J = 56 */
(PID.TID 0000.0001)                 1.125343710953429E+05,      /* J = 57 */
(PID.TID 0000.0001)                 9.808409062749070E+04,      /* J = 58 */
(PID.TID 0000.0001)                 8.339751699416523E+04,      /* J = 59 */
(PID.TID 0000.0001)                 6.851003143764105E+04,      /* J = 60 */
(PID.TID 0000.0001)                 5.345749921461356E+04,      /* J = 61 */
(PID.TID 0000.0001)                 3.827618319365421E+04,      /* J = 62 */
(PID.TID 0000.0001)                 2.300265649478360E+04,      /* J = 63 */
(PID.TID 0000.0001)                 7.673714381622298E+03       /* J = 64 */
(PID.TID 0000.0001)     ;
(PID.TID 0000.0001) dyC =  /* dyC(:,1,:,1) ( m - cartesian, degrees - spherical ) */
(PID.TID 0000.0001)                 3.126866438026091E+05       /* I =  1 */
(PID.TID 0000.0001)     ;
(PID.TID 0000.0001) dyC =  /* dyC(1,:,1,:) ( m - cartesian, degrees - spherical ) */
(PID.TID 0000.0001)    64 @  3.126866438026091E+05              /* J =  1: 64 */
(PID.TID 0000.0001)     ;
(PID.TID 0000.0001) dxV =  /* dxV(:,1,:,1) ( m - cartesian, degrees - spherical ) */
(PID.TID 0000.0001)                 0.000000000000000E+00       /* I =  1 */
(PID.TID 0000.0001)     ;
(PID.TID 0000.0001) dxV =  /* dxV(1,:,1,:) ( m - cartesian, degrees - spherical ) */
(PID.TID 0000.0001)                 0.000000000000000E+00,      /* J =  1 */
(PID.TID 0000.0001)                 1.534280640463982E+04,      /* J =  2 */
(PID.TID 0000.0001)                 3.064865064477965E+04,      /* J =  3 */
(PID.TID 0000.0001)                 4.588065960101153E+04,      /* J =  4 */
(PID.TID 0000.0001)                 6.100213802959342E+04,      /* J =  5 */
(PID.TID 0000.0001)                 7.597665696450579E+04,      /* J =  6 */
(PID.TID 0000.0001)                 9.076814147802140E+04,      /* J =  7 */
(PID.TID 0000.0001)                 1.053409575883663E+05,      /* J =  8 */
(PID.TID 0000.0001)                 1.196599981051027E+05,      /* J =  9 */
(PID.TID 0000.0001)                 1.336907672054259E+05,      /* J = 10 */
(PID.TID 0000.0001)                 1.473994635376230E+05,      /* J = 11 */
(PID.TID 0000.0001)                 1.607530616514898E+05,      /* J = 12 */
(PID.TID 0000.0001)                 1.737193915595329E+05,      /* J = 13 */
(PID.TID 0000.0001)                 1.862672162372875E+05,      /* J = 14 */
(PID.TID 0000.0001)                 1.983663068760452E+05,      /* J = 15 */
(PID.TID 0000.0001)                 2.099875157067021E+05,      /* J = 16 */
(PID.TID 0000.0001)                 2.211028462192875E+05,      /* J = 17 */
(PID.TID 0000.0001)                 2.316855206090085E+05,      /* J = 18 */
(PID.TID 0000.0001)                 2.417100442863275E+05,      /* J = 19 */
(PID.TID 0000.0001)                 2.511522672956614E+05,      /* J = 20 */
(PID.TID 0000.0001)                 2.599894424947395E+05,      /* J = 21 */
(PID.TID 0000.0001)                 2.682002803544621E+05,      /* J = 22 */
(PID.TID 0000.0001)                 2.757650002472408E+05,      /* J = 23 */
(PID.TID 0000.0001)                 2.826653781002625E+05,      /* J = 24 */
(PID.TID 0000.0001)                 2.888847902988777E+05,      /* J = 25 */
(PID.TID 0000.0001)                 2.944082537343438E+05,      /* J = 26 */
(PID.TID 0000.0001)                 2.992224618994464E+05,      /* J = 27 */
(PID.TID 0000.0001)                 3.033158169450409E+05,      /* J = 28 */
(PID.TID 0000.0001)                 3.066784576202870E+05,      /* J = 29 */
(PID.TID 0000.0001)                 3.093022830292655E+05,      /* J = 30 */
(PID.TID 0000.0001)                 3.111809721467461E+05,      /* J = 31 */
(PID.TID 0000.0001)                 3.123099990460912E+05,      /* J = 32 */
(PID.TID 0000.0001)                 3.126866438026091E+05,      /* J = 33 */
(PID.TID 0000.0001)                 3.123099990460912E+05,      /* J = 34 */
(PID.TID 0000.0001)                 3.111809721467461E+05,      /* J = 35 */
(PID.TID 0000.0001)                 3.093022830292655E+05,      /* J = 36 */
(PID.TID 0000.0001)                 3.066784576202870E+05,      /* J = 37 */
(PID.TID 0000.0001)                 3.033158169450409E+05,      /* J = 38 */
(PID.TID 0000.0001)                 2.992224618994464E+05,      /* J = 39 */
(PID.TID 0000.0001)                 2.944082537343438E+05,      /* J = 40 */
(PID.TID 0000.0001)                 2.888847902988777E+05,      /* J = 41 */
(PID.TID 0000.0001)                 2.826653781002625E+05,      /* J = 42 */
(PID.TID 0000.0001)                 2.757650002472408E+05,      /* J = 43 */
(PID.TID 0000.0001)                 2.682002803544621E+05,      /* J = 44 */
(PID.TID 0000.0001)                 2.599894424947395E+05,      /* J = 45 */
(PID.TID 0000.0001)                 2.511522672956614E+05,      /* J = 46 */
(PID.TID 0000.0001)                 2.417100442863275E+05,      /* J = 47 */
(PID.TID 0000.0001)                 2.316855206090085E+05,      /* J = 48 */
(PID.TID 0000.0001)                 2.211028462192875E+05,      /* J = 49 */
(PID.TID 0000.0001)                 2.099875157067021E+05,      /* J = 50 */
(PID.TID 0000.0001)                 1.983663068760452E+05,      /* J = 51 */
(PID.TID 0000.0001)                 1.862672162372875E+05,      /* J = 52 */
(PID.TID 0000.0001)                 1.737193915595329E+05,      /* J = 53 */
(PID.TID 0000.0001)                 1.607530616514898E+05,      /* J = 54 */
(PID.TID 0000.0001)                 1.473994635376230E+05,      /* J = 55 */
(PID.TID 0000.0001)                 1.336907672054259E+05,      /* J = 56 */
(PID.TID 0000.0001)                 1.196599981051027E+05,      /* J = 57 */
(PID.TID 0000.0001)                 1.053409575883663E+05,      /* J = 58 */
(PID.TID 0000.0001)                 9.076814147802140E+04,      /* J = 59 */
(PID.TID 0000.0001)                 7.597665696450579E+04,      /* J = 60 */
(PID.TID 0000.0001)                 6.100213802959342E+04,      /* J = 61 */
(PID.TID 0000.0001)                 4.588065960101153E+04,      /* J = 62 */
(PID.TID 0000.0001)                 3.064865064477965E+04,      /* J = 63 */
(PID.TID 0000.0001)                 1.534280640463982E+04       /* J = 64 */
(PID.TID 0000.0001)     ;
(PID.TID 0000.0001) dyU =  /* dyU(:,1,:,1) ( m - cartesian, degrees - spherical ) */
(PID.TID 0000.0001)                 3.126866438026091E+05       /* I =  1 */
(PID.TID 0000.0001)     ;
(PID.TID 0000.0001) dyU =  /* dyU(1,:,1,:) ( m - cartesian, degrees - spherical ) */
(PID.TID 0000.0001)    64 @  3.126866438026091E+05              /* J =  1: 64 */
(PID.TID 0000.0001)     ;
(PID.TID 0000.0001) rA =  /* rA(:,1,:,1) ( m - cartesian, degrees - spherical ) */
(PID.TID 0000.0001)                 2.399227099019054E+09       /* I =  1 */
(PID.TID 0000.0001)     ;
(PID.TID 0000.0001) rA =  /* rA(1,:,1,:) ( m - cartesian, degrees - spherical ) */
(PID.TID 0000.0001)                 2.399227099019054E+09,      /* J =  1 */
(PID.TID 0000.0001)                 7.191901348828095E+09,      /* J =  2 */
(PID.TID 0000.0001)                 1.196724967835172E+10,      /* J =  3 */
(PID.TID 0000.0001)                 1.671376785519289E+10,      /* J =  4 */
(PID.TID 0000.0001)                 2.142002110131774E+10,      /* J =  5 */
(PID.TID 0000.0001)                 2.607467164043713E+10,      /* J =  6 */
(PID.TID 0000.0001)                 3.066650601170344E+10,      /* J =  7 */
(PID.TID 0000.0001)                 3.518446208391876E+10,      /* J =  8 */
(PID.TID 0000.0001)                 3.961765570517902E+10,      /* J =  9 */
(PID.TID 0000.0001)                 4.395540692374849E+10,      /* J = 10 */
(PID.TID 0000.0001)                 4.818726571700011E+10,      /* J = 11 */
(PID.TID 0000.0001)                 5.230303716643329E+10,      /* J = 12 */
(PID.TID 0000.0001)                 5.629280601812742E+10,      /* J = 13 */
(PID.TID 0000.0001)                 6.014696056945666E+10,      /* J = 14 */
(PID.TID 0000.0001)                 6.385621582452226E+10,      /* J = 15 */
(PID.TID 0000.0001)                 6.741163586252296E+10,      /* J = 16 */
(PID.TID 0000.0001)                 7.080465536516859E+10,      /* J = 17 */
(PID.TID 0000.0001)                 7.402710025128450E+10,      /* J = 18 */
(PID.TID 0000.0001)                 7.707120736888654E+10,      /* J = 19 */
(PID.TID 0000.0001)                 7.992964319729680E+10,      /* J = 20 */
(PID.TID 0000.0001)                 8.259552151423453E+10,      /* J = 21 */
(PID.TID 0000.0001)                 8.506241998533157E+10,      /* J = 22 */
(PID.TID 0000.0001)                 8.732439563609564E+10,      /* J = 23 */
(PID.TID 0000.0001)                 8.937599916905875E+10,      /* J = 24 */
(PID.TID 0000.0001)                 9.121228809161064E+10,      /* J = 25 */
(PID.TID 0000.0001)                 9.282883862289697E+10,      /* J = 26 */
(PID.TID 0000.0001)                 9.422175635109477E+10,      /* J = 27 */
(PID.TID 0000.0001)                 9.538768561539165E+10,      /* J = 28 */
(PID.TID 0000.0001)                 9.632381759006653E+10,      /* J = 29 */
(PID.TID 0000.0001)                 9.702789705119699E+10,      /* J = 30 */
(PID.TID 0000.0001)                 9.749822780969106E+10,      /* J = 31 */
(PID.TID 0000.0001)     2 @  9.773367679755542E+10,             /* J = 32: 33 */
(PID.TID 0000.0001)                 9.749822780969106E+10,      /* J = 34 */
(PID.TID 0000.0001)                 9.702789705119699E+10,      /* J = 35 */
(PID.TID 0000.0001)                 9.632381759006653E+10,      /* J = 36 */
(PID.TID 0000.0001)                 9.538768561539165E+10,      /* J = 37 */
(PID.TID 0000.0001)                 9.422175635109477E+10,      /* J = 38 */
(PID.TID 0000.0001)                 9.282883862289697E+10,      /* J = 39 */
(PID.TID 0000.0001)                 9.121228809161064E+10,      /* J = 40 */
(PID.TID 0000.0001)                 8.937599916905875E+10,      /* J = 41 */
(PID.TID 0000.0001)                 8.732439563609564E+10,      /* J = 42 */
(PID.TID 0000.0001)                 8.506241998533157E+10,      /* J = 43 */
(PID.TID 0000.0001)                 8.259552151423453E+10,      /* J = 44 */
(PID.TID 0000.0001)                 7.992964319729680E+10,      /* J = 45 */
(PID.TID 0000.0001)                 7.707120736888654E+10,      /* J = 46 */
(PID.TID 0000.0001)                 7.402710025128450E+10,      /* J = 47 */
(PID.TID 0000.0001)                 7.080465536516859E+10,      /* J = 48 */
(PID.TID 0000.0001)                 6.741163586252296E+10,      /* J = 49 */
(PID.TID 0000.0001)                 6.385621582452226E+10,      /* J = 50 */
(PID.TID 0000.0001)                 6.014696056945666E+10,      /* J = 51 */
(PID.TID 0000.0001)                 5.629280601812742E+10,      /* J = 52 */
(PID.TID 0000.0001)                 5.230303716643329E+10,      /* J = 53 */
(PID.TID 0000.0001)                 4.818726571700011E+10,      /* J = 54 */
(PID.TID 0000.0001)                 4.395540692374849E+10,      /* J = 55 */
(PID.TID 0000.0001)                 3.961765570517902E+10,      /* J = 56 */
(PID.TID 0000.0001)                 3.518446208391876E+10,      /* J = 57 */
(PID.TID 0000.0001)                 3.066650601170344E+10,      /* J = 58 */
(PID.TID 0000.0001)                 2.607467164043713E+10,      /* J = 59 */
(PID.TID 0000.0001)                 2.142002110131774E+10,      /* J = 60 */
(PID.TID 0000.0001)                 1.671376785519289E+10,      /* J = 61 */
(PID.TID 0000.0001)                 1.196724967835172E+10,      /* J = 62 */
(PID.TID 0000.0001)                 7.191901348828095E+09,      /* J = 63 */
(PID.TID 0000.0001)                 2.399227099019054E+09       /* J = 64 */
(PID.TID 0000.0001)     ;
(PID.TID 0000.0001) rAw =  /* rAw(:,1,:,1) ( m - cartesian, degrees - spherical ) */
(PID.TID 0000.0001)                 2.399227099019054E+09       /* I =  1 */
(PID.TID 0000.0001)     ;
(PID.TID 0000.0001) rAw =  /* rAw(1,:,1,:) ( m - cartesian, degrees - spherical ) */
(PID.TID 0000.0001)                 2.399227099019054E+09,      /* J =  1 */
(PID.TID 0000.0001)                 7.191901348828095E+09,      /* J =  2 */
(PID.TID 0000.0001)                 1.196724967835172E+10,      /* J =  3 */
(PID.TID 0000.0001)                 1.671376785519289E+10,      /* J =  4 */
(PID.TID 0000.0001)                 2.142002110131774E+10,      /* J =  5 */
(PID.TID 0000.0001)                 2.607467164043713E+10,      /* J =  6 */
(PID.TID 0000.0001)                 3.066650601170344E+10,      /* J =  7 */
(PID.TID 0000.0001)                 3.518446208391876E+10,      /* J =  8 */
(PID.TID 0000.0001)                 3.961765570517902E+10,      /* J =  9 */
(PID.TID 0000.0001)                 4.395540692374849E+10,      /* J = 10 */
(PID.TID 0000.0001)                 4.818726571700011E+10,      /* J = 11 */
(PID.TID 0000.0001)                 5.230303716643329E+10,      /* J = 12 */
(PID.TID 0000.0001)                 5.629280601812742E+10,      /* J = 13 */
(PID.TID 0000.0001)                 6.014696056945666E+10,      /* J = 14 */
(PID.TID 0000.0001)                 6.385621582452226E+10,      /* J = 15 */
(PID.TID 0000.0001)                 6.741163586252296E+10,      /* J = 16 */
(PID.TID 0000.0001)                 7.080465536516859E+10,      /* J = 17 */
(PID.TID 0000.0001)                 7.402710025128450E+10,      /* J = 18 */
(PID.TID 0000.0001)                 7.707120736888654E+10,      /* J = 19 */
(PID.TID 0000.0001)                 7.992964319729680E+10,      /* J = 20 */
(PID.TID 0000.0001)                 8.259552151423453E+10,      /* J = 21 */
(PID.TID 0000.0001)                 8.506241998533157E+10,      /* J = 22 */
(PID.TID 0000.0001)                 8.732439563609564E+10,      /* J = 23 */
(PID.TID 0000.0001)                 8.937599916905875E+10,      /* J = 24 */
(PID.TID 0000.0001)                 9.121228809161064E+10,      /* J = 25 */
(PID.TID 0000.0001)                 9.282883862289697E+10,      /* J = 26 */
(PID.TID 0000.0001)                 9.422175635109477E+10,      /* J = 27 */
(PID.TID 0000.0001)                 9.538768561539165E+10,      /* J = 28 */
(PID.TID 0000.0001)                 9.632381759006653E+10,      /* J = 29 */
(PID.TID 0000.0001)                 9.702789705119699E+10,      /* J = 30 */
(PID.TID 0000.0001)                 9.749822780969106E+10,      /* J = 31 */
(PID.TID 0000.0001)     2 @  9.773367679755542E+10,             /* J = 32: 33 */
(PID.TID 0000.0001)                 9.749822780969106E+10,      /* J = 34 */
(PID.TID 0000.0001)                 9.702789705119699E+10,      /* J = 35 */
(PID.TID 0000.0001)                 9.632381759006653E+10,      /* J = 36 */
(PID.TID 0000.0001)                 9.538768561539165E+10,      /* J = 37 */
(PID.TID 0000.0001)                 9.422175635109477E+10,      /* J = 38 */
(PID.TID 0000.0001)                 9.282883862289697E+10,      /* J = 39 */
(PID.TID 0000.0001)                 9.121228809161064E+10,      /* J = 40 */
(PID.TID 0000.0001)                 8.937599916905875E+10,      /* J = 41 */
(PID.TID 0000.0001)                 8.732439563609564E+10,      /* J = 42 */
(PID.TID 0000.0001)                 8.506241998533157E+10,      /* J = 43 */
(PID.TID 0000.0001)                 8.259552151423453E+10,      /* J = 44 */
(PID.TID 0000.0001)                 7.992964319729680E+10,      /* J = 45 */
(PID.TID 0000.0001)                 7.707120736888654E+10,      /* J = 46 */
(PID.TID 0000.0001)                 7.402710025128450E+10,      /* J = 47 */
(PID.TID 0000.0001)                 7.080465536516859E+10,      /* J = 48 */
(PID.TID 0000.0001)                 6.741163586252296E+10,      /* J = 49 */
(PID.TID 0000.0001)                 6.385621582452226E+10,      /* J = 50 */
(PID.TID 0000.0001)                 6.014696056945666E+10,      /* J = 51 */
(PID.TID 0000.0001)                 5.629280601812742E+10,      /* J = 52 */
(PID.TID 0000.0001)                 5.230303716643329E+10,      /* J = 53 */
(PID.TID 0000.0001)                 4.818726571700011E+10,      /* J = 54 */
(PID.TID 0000.0001)                 4.395540692374849E+10,      /* J = 55 */
(PID.TID 0000.0001)                 3.961765570517902E+10,      /* J = 56 */
(PID.TID 0000.0001)                 3.518446208391876E+10,      /* J = 57 */
(PID.TID 0000.0001)                 3.066650601170344E+10,      /* J = 58 */
(PID.TID 0000.0001)                 2.607467164043713E+10,      /* J = 59 */
(PID.TID 0000.0001)                 2.142002110131774E+10,      /* J = 60 */
(PID.TID 0000.0001)                 1.671376785519289E+10,      /* J = 61 */
(PID.TID 0000.0001)                 1.196724967835172E+10,      /* J = 62 */
(PID.TID 0000.0001)                 7.191901348828095E+09,      /* J = 63 */
(PID.TID 0000.0001)                 2.399227099019054E+09       /* J = 64 */
(PID.TID 0000.0001)     ;
(PID.TID 0000.0001) rAs =  /* rAs(:,1,:,1) ( m - cartesian, degrees - spherical ) */
(PID.TID 0000.0001)                 0.000000000000000E+00       /* I =  1 */
(PID.TID 0000.0001)     ;
(PID.TID 0000.0001) rAs =  /* rAs(1,:,1,:) ( m - cartesian, degrees - spherical ) */
(PID.TID 0000.0001)                 0.000000000000000E+00,      /* J =  1 */
(PID.TID 0000.0001)                 4.797008993346521E+09,      /* J =  2 */
(PID.TID 0000.0001)                 9.582461571859713E+09,      /* J =  3 */
(PID.TID 0000.0001)                 1.434482916112171E+10,      /* J =  4 */
(PID.TID 0000.0001)                 1.907263880047606E+10,      /* J =  5 */
(PID.TID 0000.0001)                 2.375450078239415E+10,      /* J =  6 */
(PID.TID 0000.0001)                 2.837913609127892E+10,      /* J =  7 */
(PID.TID 0000.0001)                 3.293540357560105E+10,      /* J =  8 */
(PID.TID 0000.0001)                 3.741232678790874E+10,      /* J =  9 */
(PID.TID 0000.0001)                 4.179912042805189E+10,      /* J = 10 */
(PID.TID 0000.0001)                 4.608521632591315E+10,      /* J = 11 */
(PID.TID 0000.0001)                 5.026028890105708E+10,      /* J = 12 */
(PID.TID 0000.0001)                 5.431428003795686E+10,      /* J = 13 */
(PID.TID 0000.0001)                 5.823742331687625E+10,      /* J = 14 */
(PID.TID 0000.0001)                 6.202026754202961E+10,      /* J = 15 */
(PID.TID 0000.0001)                 6.565369951034008E+10,      /* J = 16 */
(PID.TID 0000.0001)                 6.912896596594554E+10,      /* J = 17 */
(PID.TID 0000.0001)                 7.243769468755643E+10,      /* J = 18 */
(PID.TID 0000.0001)                 7.557191465787260E+10,      /* J = 19 */
(PID.TID 0000.0001)                 7.852407526645969E+10,      /* J = 20 */
(PID.TID 0000.0001)                 8.128706449983356E+10,      /* J = 21 */
(PID.TID 0000.0001)                 8.385422607492099E+10,      /* J = 22 */
(PID.TID 0000.0001)                 8.621937547463147E+10,      /* J = 23 */
(PID.TID 0000.0001)                 8.837681484689810E+10,      /* J = 24 */
(PID.TID 0000.0001)                 9.032134673130382E+10,      /* J = 25 */
(PID.TID 0000.0001)                 9.204828658021820E+10,      /* J = 26 */
(PID.TID 0000.0001)                 9.355347404428316E+10,      /* J = 27 */
(PID.TID 0000.0001)                 9.483328299505894E+10,      /* J = 28 */
(PID.TID 0000.0001)                 9.588463026068498E+10,      /* J = 29 */
(PID.TID 0000.0001)                 9.670498305351137E+10,      /* J = 30 */
(PID.TID 0000.0001)                 9.729236507180573E+10,      /* J = 31 */
(PID.TID 0000.0001)                 9.764536126083739E+10,      /* J = 32 */
(PID.TID 0000.0001)                 9.776312122186816E+10,      /* J = 33 */
(PID.TID 0000.0001)                 9.764536126083739E+10,      /* J = 34 */
(PID.TID 0000.0001)                 9.729236507180573E+10,      /* J = 35 */
(PID.TID 0000.0001)                 9.670498305351137E+10,      /* J = 36 */
(PID.TID 0000.0001)                 9.588463026068498E+10,      /* J = 37 */
(PID.TID 0000.0001)                 9.483328299505894E+10,      /* J = 38 */
(PID.TID 0000.0001)                 9.355347404428316E+10,      /* J = 39 */
(PID.TID 0000.0001)                 9.204828658021820E+10,      /* J = 40 */
(PID.TID 0000.0001)                 9.032134673130382E+10,      /* J = 41 */
(PID.TID 0000.0001)                 8.837681484689810E+10,      /* J = 42 */
(PID.TID 0000.0001)                 8.621937547463147E+10,      /* J = 43 */
(PID.TID 0000.0001)                 8.385422607492099E+10,      /* J = 44 */
(PID.TID 0000.0001)                 8.128706449983356E+10,      /* J = 45 */
(PID.TID 0000.0001)                 7.852407526645969E+10,      /* J = 46 */
(PID.TID 0000.0001)                 7.557191465787260E+10,      /* J = 47 */
(PID.TID 0000.0001)                 7.243769468755643E+10,      /* J = 48 */
(PID.TID 0000.0001)                 6.912896596594554E+10,      /* J = 49 */
(PID.TID 0000.0001)                 6.565369951034008E+10,      /* J = 50 */
(PID.TID 0000.0001)                 6.202026754202961E+10,      /* J = 51 */
(PID.TID 0000.0001)                 5.823742331687625E+10,      /* J = 52 */
(PID.TID 0000.0001)                 5.431428003795686E+10,      /* J = 53 */
(PID.TID 0000.0001)                 5.026028890105708E+10,      /* J = 54 */
(PID.TID 0000.0001)                 4.608521632591315E+10,      /* J = 55 */
(PID.TID 0000.0001)                 4.179912042805189E+10,      /* J = 56 */
(PID.TID 0000.0001)                 3.741232678790874E+10,      /* J = 57 */
(PID.TID 0000.0001)                 3.293540357560105E+10,      /* J = 58 */
(PID.TID 0000.0001)                 2.837913609127892E+10,      /* J = 59 */
(PID.TID 0000.0001)                 2.375450078239415E+10,      /* J = 60 */
(PID.TID 0000.0001)                 1.907263880047606E+10,      /* J = 61 */
(PID.TID 0000.0001)                 1.434482916112171E+10,      /* J = 62 */
(PID.TID 0000.0001)                 9.582461571859713E+09,      /* J = 63 */
(PID.TID 0000.0001)                 4.797008993346521E+09       /* J = 64 */
(PID.TID 0000.0001)     ;
(PID.TID 0000.0001) 
(PID.TID 0000.0001) // =======================================================
(PID.TID 0000.0001) // Field Initial Temperature at iteration          1
(PID.TID 0000.0001) // CMIN =          2.550364452389422E+02
(PID.TID 0000.0001) // CMAX =          3.154764877049333E+02
(PID.TID 0000.0001) // CINT =          2.238520091333006E+00
(PID.TID 0000.0001) // SYMBOLS (CMIN->CMAX): -abcdefghijklmnopqrstuvwxyz+
(PID.TID 0000.0001) //                  0.0: .
(PID.TID 0000.0001) // RANGE I (Lo:Hi:Step):(   1:   1:   1)
(PID.TID 0000.0001) // RANGE J (Lo:Hi:Step):(  64:   1:  -1)
(PID.TID 0000.0001) // RANGE K (Lo:Hi:Step):(   1:   1:   1)
(PID.TID 0000.0001) // =======================================================
(PID.TID 0000.0001) K =   1
(PID.TID 0000.0001) 
(PID.TID 0000.0001) |--J--|1
(PID.TID 0000.0001)     64 -
(PID.TID 0000.0001)     63 -
(PID.TID 0000.0001)     62 -
(PID.TID 0000.0001)     61 a
(PID.TID 0000.0001)     60 a
(PID.TID 0000.0001)     59 b
(PID.TID 0000.0001)     58 c
(PID.TID 0000.0001)     57 c
(PID.TID 0000.0001)     56 d
(PID.TID 0000.0001)     55 e
(PID.TID 0000.0001)     54 g
(PID.TID 0000.0001)     53 h
(PID.TID 0000.0001)     52 i
(PID.TID 0000.0001)     51 j
(PID.TID 0000.0001)     50 l
(PID.TID 0000.0001)     49 m
(PID.TID 0000.0001)     48 n
(PID.TID 0000.0001)     47 o
(PID.TID 0000.0001)     46 q
(PID.TID 0000.0001)     45 r
(PID.TID 0000.0001)     44 s
(PID.TID 0000.0001)     43 t
(PID.TID 0000.0001)     42 v
(PID.TID 0000.0001)     41 w
(PID.TID 0000.0001)     40 x
(PID.TID 0000.0001)     39 x
(PID.TID 0000.0001)     38 y
(PID.TID 0000.0001)     37 z
(PID.TID 0000.0001)     36 z
(PID.TID 0000.0001)     35 +
(PID.TID 0000.0001)     34 +
(PID.TID 0000.0001)     33 +
(PID.TID 0000.0001)     32 +
(PID.TID 0000.0001)     31 +
(PID.TID 0000.0001)     30 +
(PID.TID 0000.0001)     29 z
(PID.TID 0000.0001)     28 z
(PID.TID 0000.0001)     27 y
(PID.TID 0000.0001)     26 x
(PID.TID 0000.0001)     25 x
(PID.TID 0000.0001)     24 w
(PID.TID 0000.0001)     23 v
(PID.TID 0000.0001)     22 t
(PID.TID 0000.0001)     21 s
(PID.TID 0000.0001)     20 r
(PID.TID 0000.0001)     19 q
(PID.TID 0000.0001)     18 o
(PID.TID 0000.0001)     17 n
(PID.TID 0000.0001)     16 m
(PID.TID 0000.0001)     15 l
(PID.TID 0000.0001)     14 j
(PID.TID 0000.0001)     13 i
(PID.TID 0000.0001)     12 h
(PID.TID 0000.0001)     11 g
(PID.TID 0000.0001)     10 e
(PID.TID 0000.0001)      9 d
(PID.TID 0000.0001)      8 c
(PID.TID 0000.0001)      7 c
(PID.TID 0000.0001)      6 b
(PID.TID 0000.0001)      5 a
(PID.TID 0000.0001)      4 a
(PID.TID 0000.0001)      3 -
(PID.TID 0000.0001)      2 -
(PID.TID 0000.0001)      1 -
(PID.TID 0000.0001) // =======================================================
(PID.TID 0000.0001) // END OF FIELD                                          =
(PID.TID 0000.0001) // =======================================================
(PID.TID 0000.0001) 
(PID.TID 0000.0001) // =======================================================
(PID.TID 0000.0001) // Field Initial Salinity at iteration          1
(PID.TID 0000.0001) // CMIN =          1.000000000000000E+32
(PID.TID 0000.0001) // CMAX =         -1.000000000000000E+32
(PID.TID 0000.0001) // CINT =          0.000000000000000E+00
(PID.TID 0000.0001) // SYMBOLS (CMIN->CMAX): -abcdefghijklmnopqrstuvwxyz+
(PID.TID 0000.0001) //                  0.0: .
(PID.TID 0000.0001) // RANGE I (Lo:Hi:Step):(   1:   1:   1)
(PID.TID 0000.0001) // RANGE J (Lo:Hi:Step):(  64:   1:  -1)
(PID.TID 0000.0001) // RANGE K (Lo:Hi:Step):(   1:   1:   1)
(PID.TID 0000.0001) // =======================================================
(PID.TID 0000.0001) K =   1
(PID.TID 0000.0001) 
(PID.TID 0000.0001) |--J--|1
(PID.TID 0000.0001)     64 .
(PID.TID 0000.0001)     63 .
(PID.TID 0000.0001)     62 .
(PID.TID 0000.0001)     61 .
(PID.TID 0000.0001)     60 .
(PID.TID 0000.0001)     59 .
(PID.TID 0000.0001)     58 .
(PID.TID 0000.0001)     57 .
(PID.TID 0000.0001)     56 .
(PID.TID 0000.0001)     55 .
(PID.TID 0000.0001)     54 .
(PID.TID 0000.0001)     53 .
(PID.TID 0000.0001)     52 .
(PID.TID 0000.0001)     51 .
(PID.TID 0000.0001)     50 .
(PID.TID 0000.0001)     49 .
(PID.TID 0000.0001)     48 .
(PID.TID 0000.0001)     47 .
(PID.TID 0000.0001)     46 .
(PID.TID 0000.0001)     45 .
(PID.TID 0000.0001)     44 .
(PID.TID 0000.0001)     43 .
(PID.TID 0000.0001)     42 .
(PID.TID 0000.0001)     41 .
(PID.TID 0000.0001)     40 .
(PID.TID 0000.0001)     39 .
(PID.TID 0000.0001)     38 .
(PID.TID 0000.0001)     37 .
(PID.TID 0000.0001)     36 .
(PID.TID 0000.0001)     35 .
(PID.TID 0000.0001)     34 .
(PID.TID 0000.0001)     33 .
(PID.TID 0000.0001)     32 .
(PID.TID 0000.0001)     31 .
(PID.TID 0000.0001)     30 .
(PID.TID 0000.0001)     29 .
(PID.TID 0000.0001)     28 .
(PID.TID 0000.0001)     27 .
(PID.TID 0000.0001)     26 .
(PID.TID 0000.0001)     25 .
(PID.TID 0000.0001)     24 .
(PID.TID 0000.0001)     23 .
(PID.TID 0000.0001)     22 .
(PID.TID 0000.0001)     21 .
(PID.TID 0000.0001)     20 .
(PID.TID 0000.0001)     19 .
(PID.TID 0000.0001)     18 .
(PID.TID 0000.0001)     17 .
(PID.TID 0000.0001)     16 .
(PID.TID 0000.0001)     15 .
(PID.TID 0000.0001)     14 .
(PID.TID 0000.0001)     13 .
(PID.TID 0000.0001)     12 .
(PID.TID 0000.0001)     11 .
(PID.TID 0000.0001)     10 .
(PID.TID 0000.0001)      9 .
(PID.TID 0000.0001)      8 .
(PID.TID 0000.0001)      7 .
(PID.TID 0000.0001)      6 .
(PID.TID 0000.0001)      5 .
(PID.TID 0000.0001)      4 .
(PID.TID 0000.0001)      3 .
(PID.TID 0000.0001)      2 .
(PID.TID 0000.0001)      1 .
(PID.TID 0000.0001) // =======================================================
(PID.TID 0000.0001) // END OF FIELD                                          =
(PID.TID 0000.0001) // =======================================================
(PID.TID 0000.0001) 
(PID.TID 0000.0001) // =======================================================
(PID.TID 0000.0001) // Model current state
(PID.TID 0000.0001) // =======================================================
(PID.TID 0000.0001) 
(PID.TID 0000.0001) // =======================================================
(PID.TID 0000.0001) // Begin MONITOR dynamic field statistics
(PID.TID 0000.0001) // =======================================================
(PID.TID 0000.0001) %MON time_tsnumber                =                     0
(PID.TID 0000.0001) %MON time_secondsf                =   0.0000000000000E+00
(PID.TID 0000.0001) %MON time_secondsi                =                     0
(PID.TID 0000.0001) %MON dynstat_eta_max              =   0.0000000000000E+00
(PID.TID 0000.0001) %MON dynstat_eta_min              =   0.0000000000000E+00
(PID.TID 0000.0001) %MON dynstat_eta_mean             =   0.0000000000000E+00
(PID.TID 0000.0001) %MON dynstat_eta_sd               =   0.0000000000000E+00
(PID.TID 0000.0001) %MON dynstat_eta_del2             =   0.0000000000000E+00
(PID.TID 0000.0001) %MON dynstat_uvel_max             =   0.0000000000000E+00
(PID.TID 0000.0001) %MON dynstat_uvel_min             =   0.0000000000000E+00
(PID.TID 0000.0001) %MON dynstat_uvel_mean            =   0.0000000000000E+00
(PID.TID 0000.0001) %MON dynstat_uvel_sd              =   0.0000000000000E+00
(PID.TID 0000.0001) %MON dynstat_uvel_del2            =   0.0000000000000E+00
(PID.TID 0000.0001) %MON dynstat_vvel_max             =   0.0000000000000E+00
(PID.TID 0000.0001) %MON dynstat_vvel_min             =   0.0000000000000E+00
(PID.TID 0000.0001) %MON dynstat_vvel_mean            =   0.0000000000000E+00
(PID.TID 0000.0001) %MON dynstat_vvel_sd              =   0.0000000000000E+00
(PID.TID 0000.0001) %MON dynstat_vvel_del2            =   0.0000000000000E+00
(PID.TID 0000.0001) %MON dynstat_wvel_max             =   0.0000000000000E+00
(PID.TID 0000.0001) %MON dynstat_wvel_min             =   0.0000000000000E+00
(PID.TID 0000.0001) %MON dynstat_wvel_mean            =   0.0000000000000E+00
(PID.TID 0000.0001) %MON dynstat_wvel_sd              =   0.0000000000000E+00
(PID.TID 0000.0001) %MON dynstat_wvel_del2            =   0.0000000000000E+00
(PID.TID 0000.0001) %MON dynstat_theta_max            =   4.1921910192279E+02
(PID.TID 0000.0001) %MON dynstat_theta_min            =   2.5503644523894E+02
(PID.TID 0000.0001) %MON dynstat_theta_mean           =   3.1867742639048E+02
(PID.TID 0000.0001) %MON dynstat_theta_sd             =   4.5642507144469E+01
(PID.TID 0000.0001) %MON dynstat_theta_del2           =   4.0241168714763E-02
(PID.TID 0000.0001) %MON dynstat_salt_max             =   0.0000000000000E+00
(PID.TID 0000.0001) %MON dynstat_salt_min             =   0.0000000000000E+00
(PID.TID 0000.0001) %MON dynstat_salt_mean            =   0.0000000000000E+00
(PID.TID 0000.0001) %MON dynstat_salt_sd              =   0.0000000000000E+00
(PID.TID 0000.0001) %MON dynstat_salt_del2            =   0.0000000000000E+00
(PID.TID 0000.0001) %MON advcfl_uvel_max              =   0.0000000000000E+00
(PID.TID 0000.0001) %MON advcfl_vvel_max              =   0.0000000000000E+00
(PID.TID 0000.0001) %MON advcfl_wvel_max              =   0.0000000000000E+00
(PID.TID 0000.0001) %MON advcfl_W_hf_max              =   0.0000000000000E+00
(PID.TID 0000.0001) %MON ke_max                       =   0.0000000000000E+00
(PID.TID 0000.0001) %MON ke_mean                      =   0.0000000000000E+00
(PID.TID 0000.0001) %MON ke_volint                    =   0.0000000000000E+00
(PID.TID 0000.0001) %MON ke_volmean                   =   0.0000000000000E+00
(PID.TID 0000.0001) // =======================================================
(PID.TID 0000.0001) // End MONITOR dynamic field statistics
(PID.TID 0000.0001) // =======================================================
 cg2d: Sum(rhs),rhsMax =  -5.82867087928207E-16  2.20223000091026E+00
(PID.TID 0000.0001)                    cg2d_init_res =    3.34521905279210E+00
(PID.TID 0000.0001)                       cg2d_iters =    32
(PID.TID 0000.0001)                         cg2d_res =    1.69123445405260E-15
(PID.TID 0000.0001) // =======================================================
(PID.TID 0000.0001) // Begin MONITOR dynamic field statistics
(PID.TID 0000.0001) // =======================================================
(PID.TID 0000.0001) %MON time_tsnumber                =                     1
(PID.TID 0000.0001) %MON time_secondsf                =   1.2000000000000E+03
(PID.TID 0000.0001) %MON time_secondsi                =                  1200
(PID.TID 0000.0001) %MON dynstat_eta_max              =   1.4335929277094E+02
(PID.TID 0000.0001) %MON dynstat_eta_min              =  -9.2440656691667E+01
(PID.TID 0000.0001) %MON dynstat_eta_mean             =  -5.0941047665001E-15
(PID.TID 0000.0001) %MON dynstat_eta_sd               =   7.6540726042359E+01
(PID.TID 0000.0001) %MON dynstat_eta_del2             =   1.0992341423124E+00
(PID.TID 0000.0001) %MON dynstat_uvel_max             =   0.0000000000000E+00
(PID.TID 0000.0001) %MON dynstat_uvel_min             =   0.0000000000000E+00
(PID.TID 0000.0001) %MON dynstat_uvel_mean            =   0.0000000000000E+00
(PID.TID 0000.0001) %MON dynstat_uvel_sd              =   0.0000000000000E+00
(PID.TID 0000.0001) %MON dynstat_uvel_del2            =   0.0000000000000E+00
(PID.TID 0000.0001) %MON dynstat_vvel_max             =   5.2844298543017E+00
(PID.TID 0000.0001) %MON dynstat_vvel_min             =  -5.2844298543017E+00
(PID.TID 0000.0001) %MON dynstat_vvel_mean            =  -1.0855105170489E-17
(PID.TID 0000.0001) %MON dynstat_vvel_sd              =   1.9372438718830E+00
(PID.TID 0000.0001) %MON dynstat_vvel_del2            =   1.3699011141122E-02
(PID.TID 0000.0001) %MON dynstat_wvel_max             =   0.0000000000000E+00
(PID.TID 0000.0001) %MON dynstat_wvel_min             =   0.0000000000000E+00
(PID.TID 0000.0001) %MON dynstat_wvel_mean            =   0.0000000000000E+00
(PID.TID 0000.0001) %MON dynstat_wvel_sd              =   0.0000000000000E+00
(PID.TID 0000.0001) %MON dynstat_wvel_del2            =   0.0000000000000E+00
(PID.TID 0000.0001) %MON dynstat_theta_max            =   4.1921910192279E+02
(PID.TID 0000.0001) %MON dynstat_theta_min            =   2.5503644523996E+02
(PID.TID 0000.0001) %MON dynstat_theta_mean           =   3.1867742639024E+02
(PID.TID 0000.0001) %MON dynstat_theta_sd             =   4.5642476979036E+01
(PID.TID 0000.0001) %MON dynstat_theta_del2           =   4.1937286153386E-02
(PID.TID 0000.0001) %MON dynstat_salt_max             =   0.0000000000000E+00
(PID.TID 0000.0001) %MON dynstat_salt_min             =   0.0000000000000E+00
(PID.TID 0000.0001) %MON dynstat_salt_mean            =   0.0000000000000E+00
(PID.TID 0000.0001) %MON dynstat_salt_sd              =   0.0000000000000E+00
(PID.TID 0000.0001) %MON dynstat_salt_del2            =   0.0000000000000E+00
(PID.TID 0000.0001) %MON advcfl_uvel_max              =   0.0000000000000E+00
(PID.TID 0000.0001) %MON advcfl_vvel_max              =   2.0280098145686E-02
(PID.TID 0000.0001) %MON advcfl_wvel_max              =   0.0000000000000E+00
(PID.TID 0000.0001) %MON advcfl_W_hf_max              =   0.0000000000000E+00
(PID.TID 0000.0001) %MON ke_max                       =   1.3156099613745E+01
(PID.TID 0000.0001) %MON ke_mean                      =   1.7367952202278E+00
(PID.TID 0000.0001) %MON ke_volint                    =   7.4706039431100E+17
(PID.TID 0000.0001) %MON ke_volmean                   =   1.8753267723108E+00
(PID.TID 0000.0001) // =======================================================
(PID.TID 0000.0001) // End MONITOR dynamic field statistics
(PID.TID 0000.0001) // =======================================================
 cg2d: Sum(rhs),rhsMax =   2.36616282123236E-15  4.63753264160652E+00
(PID.TID 0000.0001)                    cg2d_init_res =    2.89798151465597E+00
(PID.TID 0000.0001)                       cg2d_iters =    32
(PID.TID 0000.0001)                         cg2d_res =    6.65798649858780E-16
(PID.TID 0000.0001) // =======================================================
(PID.TID 0000.0001) // Begin MONITOR dynamic field statistics
(PID.TID 0000.0001) // =======================================================
(PID.TID 0000.0001) %MON time_tsnumber                =                     2
(PID.TID 0000.0001) %MON time_secondsf                =   2.4000000000000E+03
(PID.TID 0000.0001) %MON time_secondsi                =                  2400
(PID.TID 0000.0001) %MON dynstat_eta_max              =   4.2419772947014E+02
(PID.TID 0000.0001) %MON dynstat_eta_min              =  -2.7263903810073E+02
(PID.TID 0000.0001) %MON dynstat_eta_mean             =   1.5498273914325E-14
(PID.TID 0000.0001) %MON dynstat_eta_sd               =   2.2395966536593E+02
(PID.TID 0000.0001) %MON dynstat_eta_del2             =   2.0410203227203E+00
(PID.TID 0000.0001) %MON dynstat_uvel_max             =   8.6710699949407E-01
(PID.TID 0000.0001) %MON dynstat_uvel_min             =   3.8323459531328E-05
(PID.TID 0000.0001) %MON dynstat_uvel_mean            =   2.3378367734737E-01
(PID.TID 0000.0001) %MON dynstat_uvel_sd              =   2.2936561270899E-01
(PID.TID 0000.0001) %MON dynstat_uvel_del2            =   2.4345558675183E-03
(PID.TID 0000.0001) %MON dynstat_vvel_max             =   1.0140475265666E+01
(PID.TID 0000.0001) %MON dynstat_vvel_min             =  -1.0140475265666E+01
(PID.TID 0000.0001) %MON dynstat_vvel_mean            =   4.2638443902370E-17
(PID.TID 0000.0001) %MON dynstat_vvel_sd              =   3.8072520674224E+00
(PID.TID 0000.0001) %MON dynstat_vvel_del2            =   2.2475904225329E-02
(PID.TID 0000.0001) %MON dynstat_wvel_max             =   1.1946607707858E-01
(PID.TID 0000.0001) %MON dynstat_wvel_min             =  -7.7033881536021E-02
(PID.TID 0000.0001) %MON dynstat_wvel_mean            =   1.8963740883969E-18
(PID.TID 0000.0001) %MON dynstat_wvel_sd              =   5.1645156447478E-02
(PID.TID 0000.0001) %MON dynstat_wvel_del2            =   1.3977983936297E-03
(PID.TID 0000.0001) %MON dynstat_theta_max            =   4.1972507087015E+02
(PID.TID 0000.0001) %MON dynstat_theta_min            =   2.5503648126269E+02
(PID.TID 0000.0001) %MON dynstat_theta_mean           =   3.1869876468493E+02
(PID.TID 0000.0001) %MON dynstat_theta_sd             =   4.5629635674660E+01
(PID.TID 0000.0001) %MON dynstat_theta_del2           =   4.2663717162342E-02
(PID.TID 0000.0001) %MON dynstat_salt_max             =   0.0000000000000E+00
(PID.TID 0000.0001) %MON dynstat_salt_min             =   0.0000000000000E+00
(PID.TID 0000.0001) %MON dynstat_salt_mean            =   0.0000000000000E+00
(PID.TID 0000.0001) %MON dynstat_salt_sd              =   0.0000000000000E+00
(PID.TID 0000.0001) %MON dynstat_salt_del2            =   0.0000000000000E+00
(PID.TID 0000.0001) %MON advcfl_uvel_max              =   6.7724361834014E-03
(PID.TID 0000.0001) %MON advcfl_vvel_max              =   3.8916181934785E-02
(PID.TID 0000.0001) %MON advcfl_wvel_max              =   2.8671858498858E-02
(PID.TID 0000.0001) %MON advcfl_W_hf_max              =   2.8482436448593E-02
(PID.TID 0000.0001) %MON ke_max                       =   5.0027372560302E+01
(PID.TID 0000.0001) %MON ke_mean                      =   6.7825465262880E+00
(PID.TID 0000.0001) %MON ke_volint                    =   2.9067938134525E+18
(PID.TID 0000.0001) %MON ke_volmean                   =   7.2968508322306E+00
(PID.TID 0000.0001) // =======================================================
(PID.TID 0000.0001) // End MONITOR dynamic field statistics
(PID.TID 0000.0001) // =======================================================
 cg2d: Sum(rhs),rhsMax =   4.71844785465692E-16  9.07246659980847E+00
(PID.TID 0000.0001)                    cg2d_init_res =    2.10977423710747E+00
(PID.TID 0000.0001)                       cg2d_iters =    32
(PID.TID 0000.0001)                         cg2d_res =    2.74458849773414E-16
(PID.TID 0000.0001) // =======================================================
(PID.TID 0000.0001) // Begin MONITOR dynamic field statistics
(PID.TID 0000.0001) // =======================================================
(PID.TID 0000.0001) %MON time_tsnumber                =                     3
(PID.TID 0000.0001) %MON time_secondsf                =   3.6000000000000E+03
(PID.TID 0000.0001) %MON time_secondsi                =                  3600
(PID.TID 0000.0001) %MON dynstat_eta_max              =   8.2398559344128E+02
(PID.TID 0000.0001) %MON dynstat_eta_min              =  -5.3325725546740E+02
(PID.TID 0000.0001) %MON dynstat_eta_mean             =   8.6332855976182E-15
(PID.TID 0000.0001) %MON dynstat_eta_sd               =   4.3510142950197E+02
(PID.TID 0000.0001) %MON dynstat_eta_del2             =   2.4936027447641E+00
(PID.TID 0000.0001) %MON dynstat_uvel_max             =   2.2110503858975E+00
(PID.TID 0000.0001) %MON dynstat_uvel_min             =  -1.5223654989178E-02
(PID.TID 0000.0001) %MON dynstat_uvel_mean            =   6.0410061363661E-01
(PID.TID 0000.0001) %MON dynstat_uvel_sd              =   5.9871940461005E-01
(PID.TID 0000.0001) %MON dynstat_uvel_del2            =   5.9681210350206E-03
(PID.TID 0000.0001) %MON dynstat_vvel_max             =   1.4426893078837E+01
(PID.TID 0000.0001) %MON dynstat_vvel_min             =  -1.4426893078837E+01
(PID.TID 0000.0001) %MON dynstat_vvel_mean            =   6.1933938377932E-17
(PID.TID 0000.0001) %MON dynstat_vvel_sd              =   5.5272279984130E+00
(PID.TID 0000.0001) %MON dynstat_vvel_del2            =   2.8309087827778E-02
(PID.TID 0000.0001) %MON dynstat_wvel_max             =   2.3403050298124E-01
(PID.TID 0000.0001) %MON dynstat_wvel_min             =  -1.5016532444504E-01
(PID.TID 0000.0001) %MON dynstat_wvel_mean            =   2.2811721517461E-18
(PID.TID 0000.0001) %MON dynstat_wvel_sd              =   9.9212497919099E-02
(PID.TID 0000.0001) %MON dynstat_wvel_del2            =   1.7089461581932E-03
(PID.TID 0000.0001) %MON dynstat_theta_max            =   4.2032805544954E+02
(PID.TID 0000.0001) %MON dynstat_theta_min            =   2.5503652877538E+02
(PID.TID 0000.0001) %MON dynstat_theta_mean           =   3.1873246305799E+02
(PID.TID 0000.0001) %MON dynstat_theta_sd             =   4.5609237290292E+01
(PID.TID 0000.0001) %MON dynstat_theta_del2           =   4.4093195747547E-02
(PID.TID 0000.0001) %MON dynstat_salt_max             =   0.0000000000000E+00
(PID.TID 0000.0001) %MON dynstat_salt_min             =   0.0000000000000E+00
(PID.TID 0000.0001) %MON dynstat_salt_mean            =   0.0000000000000E+00
(PID.TID 0000.0001) %MON dynstat_salt_sd              =   0.0000000000000E+00
(PID.TID 0000.0001) %MON dynstat_salt_del2            =   0.0000000000000E+00
(PID.TID 0000.0001) %MON advcfl_uvel_max              =   1.7854815140938E-02
(PID.TID 0000.0001) %MON advcfl_vvel_max              =   5.5366201395967E-02
(PID.TID 0000.0001) %MON advcfl_wvel_max              =   5.6167320715498E-02
(PID.TID 0000.0001) %MON advcfl_W_hf_max              =   5.5901774763982E-02
(PID.TID 0000.0001) %MON ke_max                       =   1.0471496621260E+02
(PID.TID 0000.0001) %MON ke_mean                      =   1.4574937052665E+01
(PID.TID 0000.0001) %MON ke_volint                    =   6.2254646569792E+18
(PID.TID 0000.0001) %MON ke_volmean                   =   1.5627626133326E+01
(PID.TID 0000.0001) // =======================================================
(PID.TID 0000.0001) // End MONITOR dynamic field statistics
(PID.TID 0000.0001) // =======================================================
 cg2d: Sum(rhs),rhsMax =   4.18415302405606E-15  1.47152078797934E+01
(PID.TID 0000.0001)                    cg2d_init_res =    1.63478938584469E+00
(PID.TID 0000.0001)                       cg2d_iters =    32
(PID.TID 0000.0001)                         cg2d_res =    1.71650361210890E-16
(PID.TID 0000.0001) // =======================================================
(PID.TID 0000.0001) // Begin MONITOR dynamic field statistics
(PID.TID 0000.0001) // =======================================================
(PID.TID 0000.0001) %MON time_tsnumber                =                     4
(PID.TID 0000.0001) %MON time_secondsf                =   4.8000000000000E+03
(PID.TID 0000.0001) %MON time_secondsi                =                  4800
(PID.TID 0000.0001) %MON dynstat_eta_max              =   1.3203705415197E+03
(PID.TID 0000.0001) %MON dynstat_eta_min              =  -8.6459169120245E+02
(PID.TID 0000.0001) %MON dynstat_eta_mean             =   8.6990871525434E-14
(PID.TID 0000.0001) %MON dynstat_eta_sd               =   7.0120393886909E+02
(PID.TID 0000.0001) %MON dynstat_eta_del2             =   3.0599396011103E+00
(PID.TID 0000.0001) %MON dynstat_uvel_max             =   3.9755234213504E+00
(PID.TID 0000.0001) %MON dynstat_uvel_min             =  -7.0747380877519E-02
(PID.TID 0000.0001) %MON dynstat_uvel_mean            =   1.0927132086950E+00
(PID.TID 0000.0001) %MON dynstat_uvel_sd              =   1.0955532863375E+00
(PID.TID 0000.0001) %MON dynstat_uvel_del2            =   1.0248011767198E-02
(PID.TID 0000.0001) %MON dynstat_vvel_max             =   1.8140004036013E+01
(PID.TID 0000.0001) %MON dynstat_vvel_min             =  -1.8140004036013E+01
(PID.TID 0000.0001) %MON dynstat_vvel_mean            =   5.7698805551211E-17
(PID.TID 0000.0001) %MON dynstat_vvel_sd              =   7.0617984819696E+00
(PID.TID 0000.0001) %MON dynstat_vvel_del2            =   3.1869988271031E-02
(PID.TID 0000.0001) %MON dynstat_wvel_max             =   3.3315360851566E-01
(PID.TID 0000.0001) %MON dynstat_wvel_min             =  -2.1729631694622E-01
(PID.TID 0000.0001) %MON dynstat_wvel_mean            =   1.9311185672430E-18
(PID.TID 0000.0001) %MON dynstat_wvel_sd              =   1.4222876221710E-01
(PID.TID 0000.0001) %MON dynstat_wvel_del2            =   1.7349356465123E-03
(PID.TID 0000.0001) %MON dynstat_theta_max            =   4.2097551371875E+02
(PID.TID 0000.0001) %MON dynstat_theta_min            =   2.5503659983693E+02
(PID.TID 0000.0001) %MON dynstat_theta_mean           =   3.1877682781817E+02
(PID.TID 0000.0001) %MON dynstat_theta_sd             =   4.5582248904143E+01
(PID.TID 0000.0001) %MON dynstat_theta_del2           =   4.5642407419127E-02
(PID.TID 0000.0001) %MON dynstat_salt_max             =   0.0000000000000E+00
(PID.TID 0000.0001) %MON dynstat_salt_min             =   0.0000000000000E+00
(PID.TID 0000.0001) %MON dynstat_salt_mean            =   0.0000000000000E+00
(PID.TID 0000.0001) %MON dynstat_salt_sd              =   0.0000000000000E+00
(PID.TID 0000.0001) %MON dynstat_salt_del2            =   0.0000000000000E+00
(PID.TID 0000.0001) %MON advcfl_uvel_max              =   3.2741476339202E-02
(PID.TID 0000.0001) %MON advcfl_vvel_max              =   6.9616036612542E-02
(PID.TID 0000.0001) %MON advcfl_wvel_max              =   7.9956866043758E-02
(PID.TID 0000.0001) %MON advcfl_W_hf_max              =   7.9771477408160E-02
(PID.TID 0000.0001) %MON ke_max                       =   1.7164434960918E+02
(PID.TID 0000.0001) %MON ke_mean                      =   2.4460398566748E+01
(PID.TID 0000.0001) %MON ke_volint                    =   1.0403885924467E+19
(PID.TID 0000.0001) %MON ke_volmean                   =   2.6116611131841E+01
(PID.TID 0000.0001) // =======================================================
(PID.TID 0000.0001) // End MONITOR dynamic field statistics
(PID.TID 0000.0001) // =======================================================
 cg2d: Sum(rhs),rhsMax =  -1.74166236988071E-15  2.13671436274915E+01
(PID.TID 0000.0001)                    cg2d_init_res =    1.31158212228354E+00
(PID.TID 0000.0001)                       cg2d_iters =    32
(PID.TID 0000.0001)                         cg2d_res =    2.36763573560677E-16
(PID.TID 0000.0001) // =======================================================
(PID.TID 0000.0001) // Begin MONITOR dynamic field statistics
(PID.TID 0000.0001) // =======================================================
(PID.TID 0000.0001) %MON time_tsnumber                =                     5
(PID.TID 0000.0001) %MON time_secondsf                =   6.0000000000000E+03
(PID.TID 0000.0001) %MON time_secondsi                =                  6000
(PID.TID 0000.0001) %MON dynstat_eta_max              =   1.8874803595506E+03
(PID.TID 0000.0001) %MON dynstat_eta_min              =  -1.2547094259586E+03
(PID.TID 0000.0001) %MON dynstat_eta_mean             =   1.6023985241861E-14
(PID.TID 0000.0001) %MON dynstat_eta_sd               =   1.0118203626377E+03
(PID.TID 0000.0001) %MON dynstat_eta_del2             =   3.6273565778244E+00
(PID.TID 0000.0001) %MON dynstat_uvel_max             =   6.1055026452008E+00
(PID.TID 0000.0001) %MON dynstat_uvel_min             =  -1.8199541383857E-01
(PID.TID 0000.0001) %MON dynstat_uvel_mean            =   1.6807135490119E+00
(PID.TID 0000.0001) %MON dynstat_uvel_sd              =   1.7078931583972E+00
(PID.TID 0000.0001) %MON dynstat_uvel_del2            =   1.5124522301586E-02
(PID.TID 0000.0001) %MON dynstat_vvel_max             =   2.1481960391703E+01
(PID.TID 0000.0001) %MON dynstat_vvel_min             =  -2.1481960391703E+01
(PID.TID 0000.0001) %MON dynstat_vvel_mean            =  -1.0941603856302E-16
(PID.TID 0000.0001) %MON dynstat_vvel_sd              =   8.3762619829390E+00
(PID.TID 0000.0001) %MON dynstat_vvel_del2            =   3.3976101275420E-02
(PID.TID 0000.0001) %MON dynstat_wvel_max             =   4.1393826454934E-01
(PID.TID 0000.0001) %MON dynstat_wvel_min             =  -2.7737944669938E-01
(PID.TID 0000.0001) %MON dynstat_wvel_mean            =  -5.7658313506216E-18
(PID.TID 0000.0001) %MON dynstat_wvel_sd              =   1.8016888982959E-01
(PID.TID 0000.0001) %MON dynstat_wvel_del2            =   1.6276416227867E-03
(PID.TID 0000.0001) %MON dynstat_theta_max            =   4.2162528451172E+02
(PID.TID 0000.0001) %MON dynstat_theta_min            =   2.5503675339534E+02
(PID.TID 0000.0001) %MON dynstat_theta_mean           =   3.1883006265328E+02
(PID.TID 0000.0001) %MON dynstat_theta_sd             =   4.5549679557597E+01
(PID.TID 0000.0001) %MON dynstat_theta_del2           =   4.6448771051262E-02
(PID.TID 0000.0001) %MON dynstat_salt_max             =   0.0000000000000E+00
(PID.TID 0000.0001) %MON dynstat_salt_min             =   0.0000000000000E+00
(PID.TID 0000.0001) %MON dynstat_salt_mean            =   0.0000000000000E+00
(PID.TID 0000.0001) %MON dynstat_salt_sd              =   0.0000000000000E+00
(PID.TID 0000.0001) %MON dynstat_salt_del2            =   0.0000000000000E+00
(PID.TID 0000.0001) %MON advcfl_uvel_max              =   5.0949407940229E-02
(PID.TID 0000.0001) %MON advcfl_vvel_max              =   8.2441488886608E-02
(PID.TID 0000.0001) %MON advcfl_wvel_max              =   9.9276682597682E-02
(PID.TID 0000.0001) %MON advcfl_W_hf_max              =   9.9345183491842E-02
(PID.TID 0000.0001) %MON ke_max                       =   2.4547045452880E+02
(PID.TID 0000.0001) %MON ke_mean                      =   3.5710835422840E+01
(PID.TID 0000.0001) %MON ke_volint                    =   1.5110140502499E+19
(PID.TID 0000.0001) %MON ke_volmean                   =   3.7930602710973E+01
(PID.TID 0000.0001) // =======================================================
(PID.TID 0000.0001) // End MONITOR dynamic field statistics
(PID.TID 0000.0001) // =======================================================
 cg2d: Sum(rhs),rhsMax =   1.85962356624714E-15  2.87950325522072E+01
(PID.TID 0000.0001)                    cg2d_init_res =    1.07456730235241E+00
(PID.TID 0000.0001)                       cg2d_iters =    32
(PID.TID 0000.0001)                         cg2d_res =    9.38775915600568E-15
(PID.TID 0000.0001) // =======================================================
(PID.TID 0000.0001) // Begin MONITOR dynamic field statistics
(PID.TID 0000.0001) // =======================================================
(PID.TID 0000.0001) %MON time_tsnumber                =                     6
(PID.TID 0000.0001) %MON time_secondsf                =   7.2000000000000E+03
(PID.TID 0000.0001) %MON time_secondsi                =                  7200
(PID.TID 0000.0001) %MON dynstat_eta_max              =   2.4976769713501E+03
(PID.TID 0000.0001) %MON dynstat_eta_min              =  -1.6896217498889E+03
(PID.TID 0000.0001) %MON dynstat_eta_mean             =  -8.4032130421886E-14
(PID.TID 0000.0001) %MON dynstat_eta_sd               =   1.3551735880672E+03
(PID.TID 0000.0001) %MON dynstat_eta_del2             =   4.2353132795650E+00
(PID.TID 0000.0001) %MON dynstat_uvel_max             =   8.5376181712087E+00
(PID.TID 0000.0001) %MON dynstat_uvel_min             =  -3.6129922382513E-01
(PID.TID 0000.0001) %MON dynstat_uvel_mean            =   2.3457768342398E+00
(PID.TID 0000.0001) %MON dynstat_uvel_sd              =   2.4207361199802E+00
(PID.TID 0000.0001) %MON dynstat_uvel_del2            =   2.0217259068623E-02
(PID.TID 0000.0001) %MON dynstat_vvel_max             =   2.4234356053162E+01
(PID.TID 0000.0001) %MON dynstat_vvel_min             =  -2.4234356053162E+01
(PID.TID 0000.0001) %MON dynstat_vvel_mean            =  -1.3630806636866E-16
(PID.TID 0000.0001) %MON dynstat_vvel_sd              =   9.4445478934392E+00
(PID.TID 0000.0001) %MON dynstat_vvel_del2            =   3.5242943092598E-02
(PID.TID 0000.0001) %MON dynstat_wvel_max             =   4.7464592381518E-01
(PID.TID 0000.0001) %MON dynstat_wvel_min             =  -3.2833333102153E-01
(PID.TID 0000.0001) %MON dynstat_wvel_mean            =   4.9737084771402E-18
(PID.TID 0000.0001) %MON dynstat_wvel_sd              =   2.1222671945060E-01
(PID.TID 0000.0001) %MON dynstat_wvel_del2            =   1.5018004754429E-03
(PID.TID 0000.0001) %MON dynstat_theta_max            =   4.2224779378983E+02
(PID.TID 0000.0001) %MON dynstat_theta_min            =   2.5503709580076E+02
(PID.TID 0000.0001) %MON dynstat_theta_mean           =   3.1889007033214E+02
(PID.TID 0000.0001) %MON dynstat_theta_sd             =   4.5512745161909E+01
(PID.TID 0000.0001) %MON dynstat_theta_del2           =   4.6853458074131E-02
(PID.TID 0000.0001) %MON dynstat_salt_max             =   0.0000000000000E+00
(PID.TID 0000.0001) %MON dynstat_salt_min             =   0.0000000000000E+00
(PID.TID 0000.0001) %MON dynstat_salt_mean            =   0.0000000000000E+00
(PID.TID 0000.0001) %MON dynstat_salt_sd              =   0.0000000000000E+00
(PID.TID 0000.0001) %MON dynstat_salt_del2            =   0.0000000000000E+00
(PID.TID 0000.0001) %MON advcfl_uvel_max              =   7.1843953173426E-02
(PID.TID 0000.0001) %MON advcfl_vvel_max              =   9.3004379432823E-02
(PID.TID 0000.0001) %MON advcfl_wvel_max              =   1.1342252309438E-01
(PID.TID 0000.0001) %MON advcfl_W_hf_max              =   1.1391502171564E-01
(PID.TID 0000.0001) %MON ke_max                       =   3.2126247198580E+02
(PID.TID 0000.0001) %MON ke_mean                      =   4.7608818296182E+01
(PID.TID 0000.0001) %MON ke_volint                    =   2.0019402011571E+19
(PID.TID 0000.0001) %MON ke_volmean                   =   5.0254197443537E+01
(PID.TID 0000.0001) // =======================================================
(PID.TID 0000.0001) // End MONITOR dynamic field statistics
(PID.TID 0000.0001) // =======================================================
 cg2d: Sum(rhs),rhsMax =   1.70696790036118E-15  3.67344332822372E+01
(PID.TID 0000.0001)                    cg2d_init_res =    8.91074757147707E-01
(PID.TID 0000.0001)                       cg2d_iters =    33
(PID.TID 0000.0001)                         cg2d_res =    9.18250253758056E-16
(PID.TID 0000.0001) // =======================================================
(PID.TID 0000.0001) // Begin MONITOR dynamic field statistics
(PID.TID 0000.0001) // =======================================================
(PID.TID 0000.0001) %MON time_tsnumber                =                     7
(PID.TID 0000.0001) %MON time_secondsf                =   8.4000000000000E+03
(PID.TID 0000.0001) %MON time_secondsi                =                  8400
(PID.TID 0000.0001) %MON dynstat_eta_max              =   3.1236797698571E+03
(PID.TID 0000.0001) %MON dynstat_eta_min              =  -2.1535948550996E+03
(PID.TID 0000.0001) %MON dynstat_eta_mean             =  -2.5355931265442E-14
(PID.TID 0000.0001) %MON dynstat_eta_sd               =   1.7185624197565E+03
(PID.TID 0000.0001) %MON dynstat_eta_del2             =   5.0870520796601E+00
(PID.TID 0000.0001) %MON dynstat_uvel_max             =   1.1203404938535E+01
(PID.TID 0000.0001) %MON dynstat_uvel_min             =  -6.2421946552686E-01
(PID.TID 0000.0001) %MON dynstat_uvel_mean            =   3.0632116448730E+00
(PID.TID 0000.0001) %MON dynstat_uvel_sd              =   3.2166978285783E+00
(PID.TID 0000.0001) %MON dynstat_uvel_del2            =   2.5417801521967E-02
(PID.TID 0000.0001) %MON dynstat_vvel_max             =   2.6336984944152E+01
(PID.TID 0000.0001) %MON dynstat_vvel_min             =  -2.6336984944152E+01
(PID.TID 0000.0001) %MON dynstat_vvel_mean            =  -5.4852699737120E-16
(PID.TID 0000.0001) %MON dynstat_vvel_sd              =   1.0250860018949E+01
(PID.TID 0000.0001) %MON dynstat_vvel_del2            =   3.5944505012106E-02
(PID.TID 0000.0001) %MON dynstat_wvel_max             =   5.1290389272241E-01
(PID.TID 0000.0001) %MON dynstat_wvel_min             =  -3.6859009884946E-01
(PID.TID 0000.0001) %MON dynstat_wvel_mean            =   2.1502975502611E-18
(PID.TID 0000.0001) %MON dynstat_wvel_sd              =   2.3771022371659E-01
(PID.TID 0000.0001) %MON dynstat_wvel_del2            =   1.4126876659188E-03
(PID.TID 0000.0001) %MON dynstat_theta_max            =   4.2282879241549E+02
(PID.TID 0000.0001) %MON dynstat_theta_min            =   2.5503775756705E+02
(PID.TID 0000.0001) %MON dynstat_theta_mean           =   3.1895455767147E+02
(PID.TID 0000.0001) %MON dynstat_theta_sd             =   4.5472812834257E+01
(PID.TID 0000.0001) %MON dynstat_theta_del2           =   4.6872587439607E-02
(PID.TID 0000.0001) %MON dynstat_salt_max             =   0.0000000000000E+00
(PID.TID 0000.0001) %MON dynstat_salt_min             =   0.0000000000000E+00
(PID.TID 0000.0001) %MON dynstat_salt_mean            =   0.0000000000000E+00
(PID.TID 0000.0001) %MON dynstat_salt_sd              =   0.0000000000000E+00
(PID.TID 0000.0001) %MON dynstat_salt_del2            =   0.0000000000000E+00
(PID.TID 0000.0001) %MON advcfl_uvel_max              =   9.4676288671789E-02
(PID.TID 0000.0001) %MON advcfl_vvel_max              =   1.0107365491739E-01
(PID.TID 0000.0001) %MON advcfl_wvel_max              =   1.2204106760045E-01
(PID.TID 0000.0001) %MON advcfl_W_hf_max              =   1.2309693425338E-01
(PID.TID 0000.0001) %MON ke_max                       =   3.9470094680505E+02
(PID.TID 0000.0001) %MON ke_mean                      =   5.9518168373521E+01
(PID.TID 0000.0001) %MON ke_volint                    =   2.4847331875942E+19
(PID.TID 0000.0001) %MON ke_volmean                   =   6.2373627409897E+01
(PID.TID 0000.0001) // =======================================================
(PID.TID 0000.0001) // End MONITOR dynamic field statistics
(PID.TID 0000.0001) // =======================================================
 cg2d: Sum(rhs),rhsMax =   1.15185638804860E-15  4.48969560457033E+01
(PID.TID 0000.0001)                    cg2d_init_res =    7.43054852210608E-01
(PID.TID 0000.0001)                       cg2d_iters =    33
(PID.TID 0000.0001)                         cg2d_res =    1.64150071773030E-15
(PID.TID 0000.0001) // =======================================================
(PID.TID 0000.0001) // Begin MONITOR dynamic field statistics
(PID.TID 0000.0001) // =======================================================
(PID.TID 0000.0001) %MON time_tsnumber                =                     8
(PID.TID 0000.0001) %MON time_secondsf                =   9.6000000000000E+03
(PID.TID 0000.0001) %MON time_secondsi                =                  9600
(PID.TID 0000.0001) %MON dynstat_eta_max              =   3.7405080409311E+03
(PID.TID 0000.0001) %MON dynstat_eta_min              =  -2.6296965946683E+03
(PID.TID 0000.0001) %MON dynstat_eta_mean             =   2.6686376831682E-14
(PID.TID 0000.0001) %MON dynstat_eta_sd               =   2.0888023793631E+03
(PID.TID 0000.0001) %MON dynstat_eta_del2             =   5.9410906414031E+00
(PID.TID 0000.0001) %MON dynstat_uvel_max             =   1.4031677903832E+01
(PID.TID 0000.0001) %MON dynstat_uvel_min             =  -9.8649822931613E-01
(PID.TID 0000.0001) %MON dynstat_uvel_mean            =   3.8067905361027E+00
(PID.TID 0000.0001) %MON dynstat_uvel_sd              =   4.0764907377926E+00
(PID.TID 0000.0001) %MON dynstat_uvel_del2            =   3.0729268582232E-02
(PID.TID 0000.0001) %MON dynstat_vvel_max             =   2.7765814913693E+01
(PID.TID 0000.0001) %MON dynstat_vvel_min             =  -2.7765814913693E+01
(PID.TID 0000.0001) %MON dynstat_vvel_mean            =   8.4648130043424E-16
(PID.TID 0000.0001) %MON dynstat_vvel_sd              =   1.0790774978677E+01
(PID.TID 0000.0001) %MON dynstat_vvel_del2            =   3.6446395339015E-02
(PID.TID 0000.0001) %MON dynstat_wvel_max             =   5.2876673785352E-01
(PID.TID 0000.0001) %MON dynstat_wvel_min             =  -3.9682352460814E-01
(PID.TID 0000.0001) %MON dynstat_wvel_mean            =   1.4535999327498E-17
(PID.TID 0000.0001) %MON dynstat_wvel_sd              =   2.5612660583153E-01
(PID.TID 0000.0001) %MON dynstat_wvel_del2            =   1.3671550232486E-03
(PID.TID 0000.0001) %MON dynstat_theta_max            =   4.2353055190665E+02
(PID.TID 0000.0001) %MON dynstat_theta_min            =   2.5503885201719E+02
(PID.TID 0000.0001) %MON dynstat_theta_mean           =   3.1902112102021E+02
(PID.TID 0000.0001) %MON dynstat_theta_sd             =   4.5431355497151E+01
(PID.TID 0000.0001) %MON dynstat_theta_del2           =   4.6690129742866E-02
(PID.TID 0000.0001) %MON dynstat_salt_max             =   0.0000000000000E+00
(PID.TID 0000.0001) %MON dynstat_salt_min             =   0.0000000000000E+00
(PID.TID 0000.0001) %MON dynstat_salt_mean            =   0.0000000000000E+00
(PID.TID 0000.0001) %MON dynstat_salt_sd              =   0.0000000000000E+00
(PID.TID 0000.0001) %MON dynstat_salt_del2            =   0.0000000000000E+00
(PID.TID 0000.0001) %MON advcfl_uvel_max              =   1.1862514053886E-01
(PID.TID 0000.0001) %MON advcfl_vvel_max              =   1.0655708696488E-01
(PID.TID 0000.0001) %MON advcfl_wvel_max              =   1.2520365054934E-01
(PID.TID 0000.0001) %MON advcfl_W_hf_max              =   1.2690401708485E-01
(PID.TID 0000.0001) %MON ke_max                       =   4.6228044912048E+02
(PID.TID 0000.0001) %MON ke_mean                      =   7.0936640499904E+01
(PID.TID 0000.0001) %MON ke_volint                    =   2.9375296908690E+19
(PID.TID 0000.0001) %MON ke_volmean                   =   7.3740063262556E+01
(PID.TID 0000.0001) // =======================================================
(PID.TID 0000.0001) // End MONITOR dynamic field statistics
(PID.TID 0000.0001) // =======================================================
 cg2d: Sum(rhs),rhsMax =  -2.81025203108243E-15  5.29830466798930E+01
(PID.TID 0000.0001)                    cg2d_init_res =    6.19683320939373E-01
(PID.TID 0000.0001)                       cg2d_iters =    33
(PID.TID 0000.0001)                         cg2d_res =    1.83675240006144E-15
(PID.TID 0000.0001) // =======================================================
(PID.TID 0000.0001) // Begin MONITOR dynamic field statistics
(PID.TID 0000.0001) // =======================================================
(PID.TID 0000.0001) %MON time_tsnumber                =                     9
(PID.TID 0000.0001) %MON time_secondsf                =   1.0800000000000E+04
(PID.TID 0000.0001) %MON time_secondsi                =                 10800
(PID.TID 0000.0001) %MON dynstat_eta_max              =   4.3266897942158E+03
(PID.TID 0000.0001) %MON dynstat_eta_min              =  -3.1006042196524E+03
(PID.TID 0000.0001) %MON dynstat_eta_mean             =  -3.3954406413767E-14
(PID.TID 0000.0001) %MON dynstat_eta_sd               =   2.4526935332055E+03
(PID.TID 0000.0001) %MON dynstat_eta_del2             =   6.7913704625396E+00
(PID.TID 0000.0001) %MON dynstat_uvel_max             =   1.6950502243239E+01
(PID.TID 0000.0001) %MON dynstat_uvel_min             =  -1.4630744471012E+00
(PID.TID 0000.0001) %MON dynstat_uvel_mean            =   4.5496176675818E+00
(PID.TID 0000.0001) %MON dynstat_uvel_sd              =   4.9795264611597E+00
(PID.TID 0000.0001) %MON dynstat_uvel_del2            =   3.6126504023316E-02
(PID.TID 0000.0001) %MON dynstat_vvel_max             =   2.8651807245364E+01
(PID.TID 0000.0001) %MON dynstat_vvel_min             =  -2.8651807245364E+01
(PID.TID 0000.0001) %MON dynstat_vvel_mean            =  -2.5978995488025E-16
(PID.TID 0000.0001) %MON dynstat_vvel_sd              =   1.1072172198850E+01
(PID.TID 0000.0001) %MON dynstat_vvel_del2            =   3.6925915199999E-02
(PID.TID 0000.0001) %MON dynstat_wvel_max             =   5.2382397449999E-01
(PID.TID 0000.0001) %MON dynstat_wvel_min             =  -4.1212695772941E-01
(PID.TID 0000.0001) %MON dynstat_wvel_mean            =   6.5209535766554E-18
(PID.TID 0000.0001) %MON dynstat_wvel_sd              =   2.6723023727015E-01
(PID.TID 0000.0001) %MON dynstat_wvel_del2            =   1.3252701430628E-03
(PID.TID 0000.0001) %MON dynstat_theta_max            =   4.2421986995332E+02
(PID.TID 0000.0001) %MON dynstat_theta_min            =   2.5504043389199E+02
(PID.TID 0000.0001) %MON dynstat_theta_mean           =   3.1908733240521E+02
(PID.TID 0000.0001) %MON dynstat_theta_sd             =   4.5389902684867E+01
(PID.TID 0000.0001) %MON dynstat_theta_del2           =   4.6982915082988E-02
(PID.TID 0000.0001) %MON dynstat_salt_max             =   0.0000000000000E+00
(PID.TID 0000.0001) %MON dynstat_salt_min             =   0.0000000000000E+00
(PID.TID 0000.0001) %MON dynstat_salt_mean            =   0.0000000000000E+00
(PID.TID 0000.0001) %MON dynstat_salt_sd              =   0.0000000000000E+00
(PID.TID 0000.0001) %MON dynstat_salt_del2            =   0.0000000000000E+00
(PID.TID 0000.0001) %MON advcfl_uvel_max              =   1.4284288909513E-01
(PID.TID 0000.0001) %MON advcfl_vvel_max              =   1.0995726672656E-01
(PID.TID 0000.0001) %MON advcfl_wvel_max              =   1.2337007612256E-01
(PID.TID 0000.0001) %MON advcfl_W_hf_max              =   1.2571775388000E-01
(PID.TID 0000.0001) %MON ke_max                       =   5.2146976222940E+02
(PID.TID 0000.0001) %MON ke_mean                      =   8.1527193606247E+01
(PID.TID 0000.0001) %MON ke_volint                    =   3.3465236037569E+19
(PID.TID 0000.0001) %MON ke_volmean                   =   8.4006933791253E+01
(PID.TID 0000.0001) // =======================================================
(PID.TID 0000.0001) // End MONITOR dynamic field statistics
(PID.TID 0000.0001) // =======================================================
 cg2d: Sum(rhs),rhsMax =   4.09394740330526E-16  6.06995118371615E+01
(PID.TID 0000.0001)                    cg2d_init_res =    5.13989174705097E-01
(PID.TID 0000.0001)                       cg2d_iters =    33
(PID.TID 0000.0001)                         cg2d_res =    1.76114346598155E-15
(PID.TID 0000.0001) // =======================================================
(PID.TID 0000.0001) // Begin MONITOR dynamic field statistics
(PID.TID 0000.0001) // =======================================================
(PID.TID 0000.0001) %MON time_tsnumber                =                    10
(PID.TID 0000.0001) %MON time_secondsf                =   1.2000000000000E+04
(PID.TID 0000.0001) %MON time_secondsi                =                 12000
(PID.TID 0000.0001) %MON dynstat_eta_max              =   4.8643576384972E+03
(PID.TID 0000.0001) %MON dynstat_eta_min              =  -3.5495770670237E+03
(PID.TID 0000.0001) %MON dynstat_eta_mean             =   2.5178231276119E-13
(PID.TID 0000.0001) %MON dynstat_eta_sd               =   2.7974956077578E+03
(PID.TID 0000.0001) %MON dynstat_eta_del2             =   7.6268398702789E+00
(PID.TID 0000.0001) %MON dynstat_uvel_max             =   1.9888830808278E+01
(PID.TID 0000.0001) %MON dynstat_uvel_min             =  -2.0670976332444E+00
(PID.TID 0000.0001) %MON dynstat_uvel_mean            =   5.2650491825756E+00
(PID.TID 0000.0001) %MON dynstat_uvel_sd              =   5.9046576487281E+00
(PID.TID 0000.0001) %MON dynstat_uvel_del2            =   4.1274888044028E-02
(PID.TID 0000.0001) %MON dynstat_vvel_max             =   2.9039226907347E+01
(PID.TID 0000.0001) %MON dynstat_vvel_min             =  -2.9039226907347E+01
(PID.TID 0000.0001) %MON dynstat_vvel_mean            =  -2.2849258814522E-16
(PID.TID 0000.0001) %MON dynstat_vvel_sd              =   1.1115920813749E+01
(PID.TID 0000.0001) %MON dynstat_vvel_del2            =   3.7750977002905E-02
(PID.TID 0000.0001) %MON dynstat_wvel_max             =   5.0119889726146E-01
(PID.TID 0000.0001) %MON dynstat_wvel_min             =  -4.2593240910543E-01
(PID.TID 0000.0001) %MON dynstat_wvel_mean            =   1.2552333448294E-17
(PID.TID 0000.0001) %MON dynstat_wvel_sd              =   2.7105933887183E-01
(PID.TID 0000.0001) %MON dynstat_wvel_del2            =   1.3333064882080E-03
(PID.TID 0000.0001) %MON dynstat_theta_max            =   4.2486476699008E+02
(PID.TID 0000.0001) %MON dynstat_theta_min            =   2.5504247324066E+02
(PID.TID 0000.0001) %MON dynstat_theta_mean           =   3.1915082557017E+02
(PID.TID 0000.0001) %MON dynstat_theta_sd             =   4.5349985661962E+01
(PID.TID 0000.0001) %MON dynstat_theta_del2           =   4.7006050227329E-02
(PID.TID 0000.0001) %MON dynstat_salt_max             =   0.0000000000000E+00
(PID.TID 0000.0001) %MON dynstat_salt_min             =   0.0000000000000E+00
(PID.TID 0000.0001) %MON dynstat_salt_mean            =   0.0000000000000E+00
(PID.TID 0000.0001) %MON dynstat_salt_sd              =   0.0000000000000E+00
(PID.TID 0000.0001) %MON dynstat_salt_del2            =   0.0000000000000E+00
(PID.TID 0000.0001) %MON advcfl_uvel_max              =   1.6649381377203E-01
(PID.TID 0000.0001) %MON advcfl_vvel_max              =   1.1144407022007E-01
(PID.TID 0000.0001) %MON advcfl_wvel_max              =   1.1779426418330E-01
(PID.TID 0000.0001) %MON advcfl_W_hf_max              =   1.2028773534275E-01
(PID.TID 0000.0001) %MON ke_max                       =   5.7079671614827E+02
(PID.TID 0000.0001) %MON ke_mean                      =   9.1124903153646E+01
(PID.TID 0000.0001) %MON ke_volint                    =   3.7062677822209E+19
(PID.TID 0000.0001) %MON ke_volmean                   =   9.3037500719897E+01
(PID.TID 0000.0001) // =======================================================
(PID.TID 0000.0001) // End MONITOR dynamic field statistics
(PID.TID 0000.0001) // =======================================================
(PID.TID 0000.0001)   Seconds in section "ALL                [THE_MODEL_MAIN]":
(PID.TID 0000.0001)           User time:  1.14999996
(PID.TID 0000.0001)         System time:  0.0299999993
(PID.TID 0000.0001)     Wall clock time:  1.18390501
(PID.TID 0000.0001)          No. starts: 1
(PID.TID 0000.0001)           No. stops: 1
(PID.TID 0000.0001)   Seconds in section "INITIALISE_FIXED   [THE_MODEL_MAIN]":
(PID.TID 0000.0001)           User time:  0.189999994
(PID.TID 0000.0001)         System time:  0.00999999978
(PID.TID 0000.0001)     Wall clock time:  0.200016975
(PID.TID 0000.0001)          No. starts: 1
(PID.TID 0000.0001)           No. stops: 1
(PID.TID 0000.0001)   Seconds in section "THE_MAIN_LOOP      [THE_MODEL_MAIN]":
(PID.TID 0000.0001)           User time:  0.939999983
(PID.TID 0000.0001)         System time:  0.
(PID.TID 0000.0001)     Wall clock time:  0.946785092
(PID.TID 0000.0001)          No. starts: 1
(PID.TID 0000.0001)           No. stops: 1
(PID.TID 0000.0001)   Seconds in section "INITIALISE_VARIA    [THE_MAIN_LOOP]":
(PID.TID 0000.0001)           User time:  0.0200000107
(PID.TID 0000.0001)         System time:  0.
(PID.TID 0000.0001)     Wall clock time:  0.0262070894
(PID.TID 0000.0001)          No. starts: 1
(PID.TID 0000.0001)           No. stops: 1
(PID.TID 0000.0001)   Seconds in section "WRITE_STATE         [THE_MAIN_LOOP]":
(PID.TID 0000.0001)           User time:  0.0199999958
(PID.TID 0000.0001)         System time:  0.
(PID.TID 0000.0001)     Wall clock time:  0.0156069994
(PID.TID 0000.0001)          No. starts: 1
(PID.TID 0000.0001)           No. stops: 1
(PID.TID 0000.0001)   Seconds in section "MONITOR             [THE_MAIN_LOOP]":
(PID.TID 0000.0001)           User time:  0.00999999046
(PID.TID 0000.0001)         System time:  0.
(PID.TID 0000.0001)     Wall clock time:  0.0061429739
(PID.TID 0000.0001)          No. starts: 1
(PID.TID 0000.0001)           No. stops: 1
(PID.TID 0000.0001)   Seconds in section "MAIN LOOP           [THE_MAIN_LOOP]":
(PID.TID 0000.0001)           User time:  0.889999986
(PID.TID 0000.0001)         System time:  0.
(PID.TID 0000.0001)     Wall clock time:  0.898375034
(PID.TID 0000.0001)          No. starts: 1
(PID.TID 0000.0001)           No. stops: 1
(PID.TID 0000.0001)   Seconds in section "FORWARD_STEP        [THE_MAIN_LOOP]":
(PID.TID 0000.0001)           User time:  0.889999986
(PID.TID 0000.0001)         System time:  0.
(PID.TID 0000.0001)     Wall clock time:  0.897421002
(PID.TID 0000.0001)          No. starts: 10
(PID.TID 0000.0001)           No. stops: 10
(PID.TID 0000.0001)   Seconds in section "EXTERNAL_FIELDS_LOAD[THE_MAIN_LOOP]":
(PID.TID 0000.0001)           User time:  0.
(PID.TID 0000.0001)         System time:  0.
(PID.TID 0000.0001)     Wall clock time:  0.000872969627
(PID.TID 0000.0001)          No. starts: 10
(PID.TID 0000.0001)           No. stops: 10
(PID.TID 0000.0001)   Seconds in section "THERMODYNAMICS      [THE_MAIN_LOOP]":
(PID.TID 0000.0001)           User time:  0.210000187
(PID.TID 0000.0001)         System time:  0.
(PID.TID 0000.0001)     Wall clock time:  0.212455869
(PID.TID 0000.0001)          No. starts: 10
(PID.TID 0000.0001)           No. stops: 10
(PID.TID 0000.0001)   Seconds in section "DYNAMICS            [THE_MAIN_LOOP]":
(PID.TID 0000.0001)           User time:  0.269999951
(PID.TID 0000.0001)         System time:  0.
(PID.TID 0000.0001)     Wall clock time:  0.278374076
(PID.TID 0000.0001)          No. starts: 10
(PID.TID 0000.0001)           No. stops: 10
(PID.TID 0000.0001)   Seconds in section "SOLVE_FOR_PRESSURE  [THE_MAIN_LOOP]":
(PID.TID 0000.0001)           User time:  0.0699999332
(PID.TID 0000.0001)         System time:  0.
(PID.TID 0000.0001)     Wall clock time:  0.0637829304
(PID.TID 0000.0001)          No. starts: 10
(PID.TID 0000.0001)           No. stops: 10
(PID.TID 0000.0001)   Seconds in section "THE_CORRECTION_STEP [THE_MAIN_LOOP]":
(PID.TID 0000.0001)           User time:  0.119999975
(PID.TID 0000.0001)         System time:  0.
(PID.TID 0000.0001)     Wall clock time:  0.126623988
(PID.TID 0000.0001)          No. starts: 10
(PID.TID 0000.0001)           No. stops: 10
(PID.TID 0000.0001)   Seconds in section "BLOCKING_EXCHANGES  [THE_MAIN_LOOP]":
(PID.TID 0000.0001)           User time:  0.0399999917
(PID.TID 0000.0001)         System time:  0.
(PID.TID 0000.0001)     Wall clock time:  0.0229417086
(PID.TID 0000.0001)          No. starts: 10
(PID.TID 0000.0001)           No. stops: 10
(PID.TID 0000.0001)   Seconds in section "DO_THE_MODEL_IO     [THE_MAIN_LOOP]":
(PID.TID 0000.0001)           User time:  0.00999999046
(PID.TID 0000.0001)         System time:  0.
(PID.TID 0000.0001)     Wall clock time:  0.0161448717
(PID.TID 0000.0001)          No. starts: 10
(PID.TID 0000.0001)           No. stops: 10
(PID.TID 0000.0001)   Seconds in section "WRITE_CHECKPOINT    [THE_MAIN_LOOP]":
(PID.TID 0000.0001)           User time:  0.
(PID.TID 0000.0001)         System time:  0.
(PID.TID 0000.0001)     Wall clock time:  0.000877857208
(PID.TID 0000.0001)          No. starts: 10
(PID.TID 0000.0001)           No. stops: 10
(PID.TID 0000.0001)   Seconds in section "WRITE_CHECKPOINT   [THE_MODEL_MAIN]":
(PID.TID 0000.0001)           User time:  0.0199999809
(PID.TID 0000.0001)         System time:  0.0199999996
(PID.TID 0000.0001)     Wall clock time:  0.0366870165
(PID.TID 0000.0001)          No. starts: 1
(PID.TID 0000.0001)           No. stops: 1
(PID.TID 0000.0001) // ======================================================
(PID.TID 0000.0001) // Tile <-> Tile communication statistics
(PID.TID 0000.0001) // ======================================================
(PID.TID 0000.0001) // o Tile number: 000001
(PID.TID 0000.0001) //         No. X exchanges =              0
(PID.TID 0000.0001) //            Max. X spins =              0
(PID.TID 0000.0001) //            Min. X spins =     1000000000
(PID.TID 0000.0001) //          Total. X spins =              0
(PID.TID 0000.0001) //            Avg. X spins =       0.00E+00
(PID.TID 0000.0001) //         No. Y exchanges =              0
(PID.TID 0000.0001) //            Max. Y spins =              0
(PID.TID 0000.0001) //            Min. Y spins =     1000000000
(PID.TID 0000.0001) //          Total. Y spins =              0
(PID.TID 0000.0001) //            Avg. Y spins =       0.00E+00
(PID.TID 0000.0001) // o Thread number: 000001
(PID.TID 0000.0001) //            No. barriers =           7040
(PID.TID 0000.0001) //      Max. barrier spins =              1
(PID.TID 0000.0001) //      Min. barrier spins =              1
(PID.TID 0000.0001) //     Total barrier spins =           7040
(PID.TID 0000.0001) //      Avg. barrier spins =       1.00E+00
