(PID.TID 0000.0001) 
(PID.TID 0000.0001) // ======================================================
(PID.TID 0000.0001) //                      MITgcm UV
(PID.TID 0000.0001) //                      =========
(PID.TID 0000.0001) // ======================================================
(PID.TID 0000.0001) // execution environment starting up...
(PID.TID 0000.0001) // Run starting Wed Apr  1 14:19:48 1998
(PID.TID 0000.0001) // on melville.lcs.mit.edu
(PID.TID 0000.0001) // account cnh
(PID.TID 0000.0001) // MITgcm UV Release: $Name:  $
(PID.TID 0000.0001) 
(PID.TID 0000.0001) // =======================================================
(PID.TID 0000.0001) // Execution Environment parameter file "eedata"
(PID.TID 0000.0001) // =======================================================
(PID.TID 0000.0001) ># Example "eedata" file
(PID.TID 0000.0001) ># Lines beginning "#" are comments
(PID.TID 0000.0001) ># nTx - No. threads per process in X
(PID.TID 0000.0001) ># nTy - No. threads per process in Y
(PID.TID 0000.0001) > &EEPARMS
(PID.TID 0000.0001) > &
(PID.TID 0000.0001) ># Note: Some systems use & as the
(PID.TID 0000.0001) ># namelist terminator. Other systems
(PID.TID 0000.0001) ># use a / character (as shown here).
(PID.TID 0000.0001) 
(PID.TID 0000.0001) // =======================================================
(PID.TID 0000.0001) // Computational Grid Specification ( see files "SIZE.h" )
(PID.TID 0000.0001) //                                  ( and "eedata"       )
(PID.TID 0000.0001) // =======================================================
(PID.TID 0000.0001)      nPx =    1 ; /* No. processes in X */
(PID.TID 0000.0001)      nPy =    1 ; /* No. processes in Y */
(PID.TID 0000.0001)      nSx =    1 ; /* No. tiles in X per process */
(PID.TID 0000.0001)      nSy =    1 ; /* No. tiles in Y per process */
(PID.TID 0000.0001)      sNx =    1 ; /* Tile size in X */
(PID.TID 0000.0001)      sNy =   64 ; /* Tile size in Y */
(PID.TID 0000.0001)      OLx =    5 ; /* Tile overlap distance in X */
(PID.TID 0000.0001)      OLy =    5 ; /* Tile overlap distance in Y */
(PID.TID 0000.0001)      nTx =    1 ; /* No. threads in X per process */
(PID.TID 0000.0001)      nTy =    1 ; /* No. threads in Y per process */
(PID.TID 0000.0001)       Nr =    5 ; /* No. levels in the vertical   */
(PID.TID 0000.0001)       nX =    1 ; /* Total domain size in X ( = nPx*nSx*sNx ) */
(PID.TID 0000.0001)       nY =   64 ; /* Total domain size in Y ( = nPy*nSy*sNy ) */
(PID.TID 0000.0001)   nTiles =    1 ; /* Total no. tiles per process ( = nSx*nSy ) */
(PID.TID 0000.0001)   nProcs =    1 ; /* Total no. processes ( = nPx*nPy ) */
(PID.TID 0000.0001) nThreads =    1 ; /* Total no. threads per process ( = nTx*nTy ) */
(PID.TID 0000.0001) usingMPI =    F ; /* Flag used to control whether MPI is in use */
(PID.TID 0000.0001)                   /*  note: To execute a program with MPI calls */
(PID.TID 0000.0001)                   /*  it must be launched appropriately e.g     */
(PID.TID 0000.0001)                   /*  "mpirun -np 64 ......"                    */
(PID.TID 0000.0001) 
(PID.TID 0000.0001) // ======================================================
(PID.TID 0000.0001) // Mapping of tiles to threads
(PID.TID 0000.0001) // ======================================================
(PID.TID 0000.0001) // -o- Thread   1, tiles (   1:   1,   1:   1)
(PID.TID 0000.0001) 
(PID.TID 0000.0001) // ======================================================
(PID.TID 0000.0001) // Tile <-> Tile connectvity table
(PID.TID 0000.0001) // ======================================================
(PID.TID 0000.0001) // Tile number: 000001 (process no. = 000001)
(PID.TID 0000.0001) //        WEST: Tile = 000001, Process = 000001, Comm = put
(PID.TID 0000.0001) //                bi = 000001, bj = 000001
(PID.TID 0000.0001) //        EAST: Tile = 000001, Process = 000001, Comm = put
(PID.TID 0000.0001) //                bi = 000001, bj = 000001
(PID.TID 0000.0001) //       SOUTH: Tile = 000001, Process = 000001, Comm = put
(PID.TID 0000.0001) //                bi = 000001, bj = 000001
(PID.TID 0000.0001) //       NORTH: Tile = 000001, Process = 000001, Comm = put
(PID.TID 0000.0001) //                bi = 000001, bj = 000001
(PID.TID 0000.0001) 
(PID.TID 0000.0001) // =======================================================
(PID.TID 0000.0001) // Model parameter file "data"
(PID.TID 0000.0001) // =======================================================
(PID.TID 0000.0001) ># ====================
(PID.TID 0000.0001) ># | Model parameters |
(PID.TID 0000.0001) ># ====================
(PID.TID 0000.0001) >#
(PID.TID 0000.0001) ># Continuous equation parameters
(PID.TID 0000.0001) > &PARM01
(PID.TID 0000.0001) > tRef= 281.089, 289.321, 307.191, 331.377, 432.413,
(PID.TID 0000.0001) > tRef=5*0.,
(PID.TID 0000.0001) > sRef=5*0.,
(PID.TID 0000.0001) > viscAr=0.,
(PID.TID 0000.0001) > viscAh=0.,
(PID.TID 0000.0001) > viscA4=0.,
(PID.TID 0000.0001) > no_slip_sides=.FALSE.,
(PID.TID 0000.0001) > no_slip_bottom=.FALSE.,
(PID.TID 0000.0001) > diffKrT=0.,
(PID.TID 0000.0001) > diffKhT=0.,
(PID.TID 0000.0001) > diffK4T=0.,
(PID.TID 0000.0001) > diffKrS=0.,
(PID.TID 0000.0001) > diffKhS=0.,
(PID.TID 0000.0001) > diffK4S=0.,
(PID.TID 0000.0001) > buoyancyRelation='ATMOSPHERIC',
(PID.TID 0000.0001) > eosType='IDEALGAS',
(PID.TID 0000.0001) > gravity=9.81,
(PID.TID 0000.0001) > gBaro=9.81,
(PID.TID 0000.0001) > rhonil=1.0,
(PID.TID 0000.0001) > rhoConst=1.0,
(PID.TID 0000.0001) > rigidLid=.FALSE.,
(PID.TID 0000.0001) > implicitFreeSurface=.TRUE.,
(PID.TID 0000.0001) > nonHydrostatic=.FALSE.,
(PID.TID 0000.0001) > readBinaryPrec=64,
(PID.TID 0000.0001) > writeBinaryPrec=64,
(PID.TID 0000.0001) > globalFiles=.TRUE.,
(PID.TID 0000.0001) > staggerTimestep=.TRUE.,
(PID.TID 0000.0001) > &
(PID.TID 0000.0001) >
(PID.TID 0000.0001) ># Elliptic solver parameters
(PID.TID 0000.0001) > &PARM02
(PID.TID 0000.0001) > cg2dMaxIters=600,
(PID.TID 0000.0001) > cg2dTargetResidual=1.E-13,
(PID.TID 0000.0001) > &
(PID.TID 0000.0001) >
(PID.TID 0000.0001) ># Time stepping parameters
(PID.TID 0000.0001) > &PARM03
(PID.TID 0000.0001) > niter0=0,
(PID.TID 0000.0001) > nTimeSteps=10,
(PID.TID 0000.0001) > abEps=0.1,
(PID.TID 0000.0001) > deltaT=1200.0,
(PID.TID 0000.0001) > cAdjFreq=0.,
(PID.TID 0000.0001) > pChkptFreq=0.0,
(PID.TID 0000.0001) > chkptFreq=0.0,
(PID.TID 0000.0001) > dumpFreq=2592000.0,
(PID.TID 0000.0001) > taveFreq=2592000.,
(PID.TID 0000.0001) > monitorFreq=1.,
(PID.TID 0000.0001) > &
(PID.TID 0000.0001) >
(PID.TID 0000.0001) ># Gridding parameters
(PID.TID 0000.0001) > &PARM04
(PID.TID 0000.0001) > usingCartesianGrid=.FALSE.,
(PID.TID 0000.0001) > usingSphericalPolarGrid=.TRUE.,
(PID.TID 0000.0001) > delX=1*2.8125,
(PID.TID 0000.0001) > delY=64*2.8125,
(PID.TID 0000.0001) > delR=1.E4, 2.5E4, 3.E4, 2.E4, 1.5E4,
(PID.TID 0000.0001) > Ro_SeaLevel=1.E5,
(PID.TID 0000.0001) > groundAtK1=.TRUE.,
(PID.TID 0000.0001) > phiMin=-90.,
(PID.TID 0000.0001) > &
(PID.TID 0000.0001) >
(PID.TID 0000.0001) ># Input datasets
(PID.TID 0000.0001) > &PARM05
(PID.TID 0000.0001) > &
(PID.TID 0000.0001) 
(PID.TID 0000.0001) %MON XC_max                       =   1.4062500000000E+00
(PID.TID 0000.0001) %MON XC_min                       =   1.4062500000000E+00
(PID.TID 0000.0001) %MON XC_mean                      =   1.4062500000000E+00
(PID.TID 0000.0001) %MON XC_sd                        =   0.0000000000000E+00
(PID.TID 0000.0001) %MON XG_max                       =   0.0000000000000E+00
(PID.TID 0000.0001) %MON XG_min                       =   0.0000000000000E+00
(PID.TID 0000.0001) %MON XG_mean                      =   0.0000000000000E+00
(PID.TID 0000.0001) %MON XG_sd                        =   0.0000000000000E+00
(PID.TID 0000.0001) %MON DXC_max                      =   3.1259246843155E+05
(PID.TID 0000.0001) %MON DXC_min                      =   7.6737143816223E+03
(PID.TID 0000.0001) %MON DXC_mean                     =   1.9908248704234E+05
(PID.TID 0000.0001) %MON DXC_sd                       =   9.6190602240067E+04
(PID.TID 0000.0001) %MON DXF_max                      =   3.1259246843155E+05
(PID.TID 0000.0001) %MON DXF_min                      =   7.6737143816223E+03
(PID.TID 0000.0001) %MON DXF_mean                     =   1.9908248704234E+05
(PID.TID 0000.0001) %MON DXF_sd                       =   9.6190602240067E+04
(PID.TID 0000.0001) %MON DXG_max                      =   3.1268664380261E+05
(PID.TID 0000.0001) %MON DXG_min                      =   1.5342806404640E+04
(PID.TID 0000.0001) %MON DXG_mean                     =   2.0218161485138E+05
(PID.TID 0000.0001) %MON DXG_sd                       =   9.3728538420913E+04
(PID.TID 0000.0001) %MON DXV_max                      =   3.1268664380261E+05
(PID.TID 0000.0001) %MON DXV_min                      =   1.5342806404640E+04
(PID.TID 0000.0001) %MON DXV_mean                     =   2.0218161485138E+05
(PID.TID 0000.0001) %MON DXV_sd                       =   9.3728538420913E+04
(PID.TID 0000.0001) %MON YC_max                       =   8.8593750000000E+01
(PID.TID 0000.0001) %MON YC_min                       =  -8.8593750000000E+01
(PID.TID 0000.0001) %MON YC_mean                      =   0.0000000000000E+00
(PID.TID 0000.0001) %MON YC_sd                        =   5.1955180880375E+01
(PID.TID 0000.0001) %MON YG_max                       =   8.7187500000000E+01
(PID.TID 0000.0001) %MON YG_min                       =  -9.0000000000000E+01
(PID.TID 0000.0001) %MON YG_mean                      =  -1.4285714285714E+00
(PID.TID 0000.0001) %MON YG_sd                        =   5.2365595692639E+01
(PID.TID 0000.0001) %MON DYC_max                      =   3.1268664380261E+05
(PID.TID 0000.0001) %MON DYC_min                      =   3.1268664380261E+05
(PID.TID 0000.0001) %MON DYC_mean                     =   3.1268664380261E+05
(PID.TID 0000.0001) %MON DYC_sd                       =   1.1641532182693E-10
(PID.TID 0000.0001) %MON DYF_max                      =   3.1268664380261E+05
(PID.TID 0000.0001) %MON DYF_min                      =   3.1268664380261E+05
(PID.TID 0000.0001) %MON DYF_mean                     =   3.1268664380261E+05
(PID.TID 0000.0001) %MON DYF_sd                       =   1.1641532182693E-10
(PID.TID 0000.0001) %MON DYG_max                      =   3.1268664380261E+05
(PID.TID 0000.0001) %MON DYG_min                      =   3.1268664380261E+05
(PID.TID 0000.0001) %MON DYG_mean                     =   3.1268664380261E+05
(PID.TID 0000.0001) %MON DYG_sd                       =   1.1641532182693E-10
(PID.TID 0000.0001) %MON DYU_max                      =   3.1268664380261E+05
(PID.TID 0000.0001) %MON DYU_min                      =   3.1268664380261E+05
(PID.TID 0000.0001) %MON DYU_mean                     =   3.1268664380261E+05
(PID.TID 0000.0001) %MON DYU_sd                       =   1.1641532182693E-10
(PID.TID 0000.0001) %MON RA_max                       =   9.7733676797555E+10
(PID.TID 0000.0001) %MON RA_min                       =   2.3992270990191E+09
(PID.TID 0000.0001) %MON RA_mean                      =   6.2244185031957E+10
(PID.TID 0000.0001) %MON RA_sd                        =   3.0074496923945E+10
(PID.TID 0000.0001) %MON RAW_max                      =   9.7733676797555E+10
(PID.TID 0000.0001) %MON RAW_min                      =   2.3992270990191E+09
(PID.TID 0000.0001) %MON RAW_mean                     =   6.2244185031957E+10
(PID.TID 0000.0001) %MON RAW_sd                       =   3.0074496923945E+10
(PID.TID 0000.0001) %MON RAS_max                      =   9.7763121221868E+10
(PID.TID 0000.0001) %MON RAS_min                      =   4.7970089933465E+09
(PID.TID 0000.0001) %MON RAS_mean                     =   6.3213143616158E+10
(PID.TID 0000.0001) %MON RAS_sd                       =   2.9304719741649E+10
(PID.TID 0000.0001) %MON RAZ_max                      =   9.7763121221868E+10
(PID.TID 0000.0001) %MON RAZ_min                      =   4.7970089933465E+09
(PID.TID 0000.0001) %MON RAZ_mean                     =   6.3213143616158E+10
(PID.TID 0000.0001) %MON RAZ_sd                       =   2.9304719741649E+10
(PID.TID 0000.0001) // =======================================================
(PID.TID 0000.0001) // Field Model R_low (ini_masks_etc) at iteration          1
(PID.TID 0000.0001) // CMIN =          1.000000000000000E+32
(PID.TID 0000.0001) // CMAX =         -1.000000000000000E+32
(PID.TID 0000.0001) // CINT =          0.000000000000000E+00
(PID.TID 0000.0001) // SYMBOLS (CMIN->CMAX): -abcdefghijklmnopqrstuvwxyz+
(PID.TID 0000.0001) //                  0.0: .
(PID.TID 0000.0001) // RANGE I (Lo:Hi:Step):(  -4:   6:   1)
(PID.TID 0000.0001) // RANGE J (Lo:Hi:Step):(  69:  -4:  -1)
(PID.TID 0000.0001) // RANGE K (Lo:Hi:Step):(   1:   1:   1)
(PID.TID 0000.0001) // =======================================================
(PID.TID 0000.0001) K =   1
(PID.TID 0000.0001) //                I=5
(PID.TID 0000.0001) // |--J--|****01234|6
(PID.TID 0000.0001) //     69 ...........
(PID.TID 0000.0001) //     68 ...........
(PID.TID 0000.0001) //     67 ...........
(PID.TID 0000.0001) //     66 ...........
(PID.TID 0000.0001) //     65 ...........
(PID.TID 0000.0001) //     64 ...........
(PID.TID 0000.0001) //     63 ...........
(PID.TID 0000.0001) //     62 ...........
(PID.TID 0000.0001) //     61 ...........
(PID.TID 0000.0001) //     60 ...........
(PID.TID 0000.0001) //     59 ...........
(PID.TID 0000.0001) //     58 ...........
(PID.TID 0000.0001) //     57 ...........
(PID.TID 0000.0001) //     56 ...........
(PID.TID 0000.0001) //     55 ...........
(PID.TID 0000.0001) //     54 ...........
(PID.TID 0000.0001) //     53 ...........
(PID.TID 0000.0001) //     52 ...........
(PID.TID 0000.0001) //     51 ...........
(PID.TID 0000.0001) //     50 ...........
(PID.TID 0000.0001) //     49 ...........
(PID.TID 0000.0001) //     48 ...........
(PID.TID 0000.0001) //     47 ...........
(PID.TID 0000.0001) //     46 ...........
(PID.TID 0000.0001) //     45 ...........
(PID.TID 0000.0001) //     44 ...........
(PID.TID 0000.0001) //     43 ...........
(PID.TID 0000.0001) //     42 ...........
(PID.TID 0000.0001) //     41 ...........
(PID.TID 0000.0001) //     40 ...........
(PID.TID 0000.0001) //     39 ...........
(PID.TID 0000.0001) //     38 ...........
(PID.TID 0000.0001) //     37 ...........
(PID.TID 0000.0001) //     36 ...........
(PID.TID 0000.0001) //     35 ...........
(PID.TID 0000.0001) //     34 ...........
(PID.TID 0000.0001) //     33 ...........
(PID.TID 0000.0001) //     32 ...........
(PID.TID 0000.0001) //     31 ...........
(PID.TID 0000.0001) //     30 ...........
(PID.TID 0000.0001) //     29 ...........
(PID.TID 0000.0001) //     28 ...........
(PID.TID 0000.0001) //     27 ...........
(PID.TID 0000.0001) //     26 ...........
(PID.TID 0000.0001) //     25 ...........
(PID.TID 0000.0001) //     24 ...........
(PID.TID 0000.0001) //     23 ...........
(PID.TID 0000.0001) //     22 ...........
(PID.TID 0000.0001) //     21 ...........
(PID.TID 0000.0001) //     20 ...........
(PID.TID 0000.0001) //     19 ...........
(PID.TID 0000.0001) //     18 ...........
(PID.TID 0000.0001) //     17 ...........
(PID.TID 0000.0001) //     16 ...........
(PID.TID 0000.0001) //     15 ...........
(PID.TID 0000.0001) //     14 ...........
(PID.TID 0000.0001) //     13 ...........
(PID.TID 0000.0001) //     12 ...........
(PID.TID 0000.0001) //     11 ...........
(PID.TID 0000.0001) //     10 ...........
(PID.TID 0000.0001) //      9 ...........
(PID.TID 0000.0001) //      8 ...........
(PID.TID 0000.0001) //      7 ...........
(PID.TID 0000.0001) //      6 ...........
(PID.TID 0000.0001) //      5 ...........
(PID.TID 0000.0001) //      4 ...........
(PID.TID 0000.0001) //      3 ...........
(PID.TID 0000.0001) //      2 ...........
(PID.TID 0000.0001) //      1 ...........
(PID.TID 0000.0001) //      0 ...........
(PID.TID 0000.0001) //     -1 ...........
(PID.TID 0000.0001) //     -2 ...........
(PID.TID 0000.0001) //     -3 ...........
(PID.TID 0000.0001) //     -4 ...........
(PID.TID 0000.0001) // =======================================================
(PID.TID 0000.0001) // END OF FIELD                                          =
(PID.TID 0000.0001) // =======================================================
(PID.TID 0000.0001) 
(PID.TID 0000.0001) // =======================================================
(PID.TID 0000.0001) // Field Model Ro_surf (ini_masks_etc) at iteration          1
(PID.TID 0000.0001) // CMIN =          1.000000000000000E+05
(PID.TID 0000.0001) // CMAX =          1.000000000000000E+05
(PID.TID 0000.0001) // CINT =          0.000000000000000E+00
(PID.TID 0000.0001) // SYMBOLS (CMIN->CMAX): -abcdefghijklmnopqrstuvwxyz+
(PID.TID 0000.0001) //                  0.0: .
(PID.TID 0000.0001) // RANGE I (Lo:Hi:Step):(  -4:   6:   1)
(PID.TID 0000.0001) // RANGE J (Lo:Hi:Step):(  69:  -4:  -1)
(PID.TID 0000.0001) // RANGE K (Lo:Hi:Step):(   1:   1:   1)
(PID.TID 0000.0001) // =======================================================
(PID.TID 0000.0001) K =   1
(PID.TID 0000.0001) //                I=5
(PID.TID 0000.0001) // |--J--|****01234|6
(PID.TID 0000.0001) //     69 ...........
(PID.TID 0000.0001) //     68 ...........
(PID.TID 0000.0001) //     67 ...........
(PID.TID 0000.0001) //     66 ...........
(PID.TID 0000.0001) //     65 ...........
(PID.TID 0000.0001) //     64 -----------
(PID.TID 0000.0001) //     63 -----------
(PID.TID 0000.0001) //     62 -----------
(PID.TID 0000.0001) //     61 -----------
(PID.TID 0000.0001) //     60 -----------
(PID.TID 0000.0001) //     59 -----------
(PID.TID 0000.0001) //     58 -----------
(PID.TID 0000.0001) //     57 -----------
(PID.TID 0000.0001) //     56 -----------
(PID.TID 0000.0001) //     55 -----------
(PID.TID 0000.0001) //     54 -----------
(PID.TID 0000.0001) //     53 -----------
(PID.TID 0000.0001) //     52 -----------
(PID.TID 0000.0001) //     51 -----------
(PID.TID 0000.0001) //     50 -----------
(PID.TID 0000.0001) //     49 -----------
(PID.TID 0000.0001) //     48 -----------
(PID.TID 0000.0001) //     47 -----------
(PID.TID 0000.0001) //     46 -----------
(PID.TID 0000.0001) //     45 -----------
(PID.TID 0000.0001) //     44 -----------
(PID.TID 0000.0001) //     43 -----------
(PID.TID 0000.0001) //     42 -----------
(PID.TID 0000.0001) //     41 -----------
(PID.TID 0000.0001) //     40 -----------
(PID.TID 0000.0001) //     39 -----------
(PID.TID 0000.0001) //     38 -----------
(PID.TID 0000.0001) //     37 -----------
(PID.TID 0000.0001) //     36 -----------
(PID.TID 0000.0001) //     35 -----------
(PID.TID 0000.0001) //     34 -----------
(PID.TID 0000.0001) //     33 -----------
(PID.TID 0000.0001) //     32 -----------
(PID.TID 0000.0001) //     31 -----------
(PID.TID 0000.0001) //     30 -----------
(PID.TID 0000.0001) //     29 -----------
(PID.TID 0000.0001) //     28 -----------
(PID.TID 0000.0001) //     27 -----------
(PID.TID 0000.0001) //     26 -----------
(PID.TID 0000.0001) //     25 -----------
(PID.TID 0000.0001) //     24 -----------
(PID.TID 0000.0001) //     23 -----------
(PID.TID 0000.0001) //     22 -----------
(PID.TID 0000.0001) //     21 -----------
(PID.TID 0000.0001) //     20 -----------
(PID.TID 0000.0001) //     19 -----------
(PID.TID 0000.0001) //     18 -----------
(PID.TID 0000.0001) //     17 -----------
(PID.TID 0000.0001) //     16 -----------
(PID.TID 0000.0001) //     15 -----------
(PID.TID 0000.0001) //     14 -----------
(PID.TID 0000.0001) //     13 -----------
(PID.TID 0000.0001) //     12 -----------
(PID.TID 0000.0001) //     11 -----------
(PID.TID 0000.0001) //     10 -----------
(PID.TID 0000.0001) //      9 -----------
(PID.TID 0000.0001) //      8 -----------
(PID.TID 0000.0001) //      7 -----------
(PID.TID 0000.0001) //      6 -----------
(PID.TID 0000.0001) //      5 -----------
(PID.TID 0000.0001) //      4 -----------
(PID.TID 0000.0001) //      3 -----------
(PID.TID 0000.0001) //      2 -----------
(PID.TID 0000.0001) //      1 -----------
(PID.TID 0000.0001) //      0 ...........
(PID.TID 0000.0001) //     -1 ...........
(PID.TID 0000.0001) //     -2 ...........
(PID.TID 0000.0001) //     -3 ...........
(PID.TID 0000.0001) //     -4 ...........
(PID.TID 0000.0001) // =======================================================
(PID.TID 0000.0001) // END OF FIELD                                          =
(PID.TID 0000.0001) // =======================================================
(PID.TID 0000.0001) 
(PID.TID 0000.0001) // =======================================================
(PID.TID 0000.0001) // Field hFacC at iteration          1
(PID.TID 0000.0001) // CMIN =          1.000000000000000E+00
(PID.TID 0000.0001) // CMAX =          1.000000000000000E+00
(PID.TID 0000.0001) // CINT =          0.000000000000000E+00
(PID.TID 0000.0001) // SYMBOLS (CMIN->CMAX): -abcdefghijklmnopqrstuvwxyz+
(PID.TID 0000.0001) //                  0.0: .
(PID.TID 0000.0001) // RANGE I (Lo:Hi:Step):(  -4:   6:   1)
(PID.TID 0000.0001) // RANGE J (Lo:Hi:Step):(  69:  -4:  -1)
(PID.TID 0000.0001) // RANGE K (Lo:Hi:Step):(   1:   1:   1)
(PID.TID 0000.0001) // =======================================================
(PID.TID 0000.0001) K =   1
(PID.TID 0000.0001) //                I=5
(PID.TID 0000.0001) // |--J--|****01234|6
(PID.TID 0000.0001) //     69 ...........
(PID.TID 0000.0001) //     68 ...........
(PID.TID 0000.0001) //     67 ...........
(PID.TID 0000.0001) //     66 ...........
(PID.TID 0000.0001) //     65 ...........
(PID.TID 0000.0001) //     64 -----------
(PID.TID 0000.0001) //     63 -----------
(PID.TID 0000.0001) //     62 -----------
(PID.TID 0000.0001) //     61 -----------
(PID.TID 0000.0001) //     60 -----------
(PID.TID 0000.0001) //     59 -----------
(PID.TID 0000.0001) //     58 -----------
(PID.TID 0000.0001) //     57 -----------
(PID.TID 0000.0001) //     56 -----------
(PID.TID 0000.0001) //     55 -----------
(PID.TID 0000.0001) //     54 -----------
(PID.TID 0000.0001) //     53 -----------
(PID.TID 0000.0001) //     52 -----------
(PID.TID 0000.0001) //     51 -----------
(PID.TID 0000.0001) //     50 -----------
(PID.TID 0000.0001) //     49 -----------
(PID.TID 0000.0001) //     48 -----------
(PID.TID 0000.0001) //     47 -----------
(PID.TID 0000.0001) //     46 -----------
(PID.TID 0000.0001) //     45 -----------
(PID.TID 0000.0001) //     44 -----------
(PID.TID 0000.0001) //     43 -----------
(PID.TID 0000.0001) //     42 -----------
(PID.TID 0000.0001) //     41 -----------
(PID.TID 0000.0001) //     40 -----------
(PID.TID 0000.0001) //     39 -----------
(PID.TID 0000.0001) //     38 -----------
(PID.TID 0000.0001) //     37 -----------
(PID.TID 0000.0001) //     36 -----------
(PID.TID 0000.0001) //     35 -----------
(PID.TID 0000.0001) //     34 -----------
(PID.TID 0000.0001) //     33 -----------
(PID.TID 0000.0001) //     32 -----------
(PID.TID 0000.0001) //     31 -----------
(PID.TID 0000.0001) //     30 -----------
(PID.TID 0000.0001) //     29 -----------
(PID.TID 0000.0001) //     28 -----------
(PID.TID 0000.0001) //     27 -----------
(PID.TID 0000.0001) //     26 -----------
(PID.TID 0000.0001) //     25 -----------
(PID.TID 0000.0001) //     24 -----------
(PID.TID 0000.0001) //     23 -----------
(PID.TID 0000.0001) //     22 -----------
(PID.TID 0000.0001) //     21 -----------
(PID.TID 0000.0001) //     20 -----------
(PID.TID 0000.0001) //     19 -----------
(PID.TID 0000.0001) //     18 -----------
(PID.TID 0000.0001) //     17 -----------
(PID.TID 0000.0001) //     16 -----------
(PID.TID 0000.0001) //     15 -----------
(PID.TID 0000.0001) //     14 -----------
(PID.TID 0000.0001) //     13 -----------
(PID.TID 0000.0001) //     12 -----------
(PID.TID 0000.0001) //     11 -----------
(PID.TID 0000.0001) //     10 -----------
(PID.TID 0000.0001) //      9 -----------
(PID.TID 0000.0001) //      8 -----------
(PID.TID 0000.0001) //      7 -----------
(PID.TID 0000.0001) //      6 -----------
(PID.TID 0000.0001) //      5 -----------
(PID.TID 0000.0001) //      4 -----------
(PID.TID 0000.0001) //      3 -----------
(PID.TID 0000.0001) //      2 -----------
(PID.TID 0000.0001) //      1 -----------
(PID.TID 0000.0001) //      0 ...........
(PID.TID 0000.0001) //     -1 ...........
(PID.TID 0000.0001) //     -2 ...........
(PID.TID 0000.0001) //     -3 ...........
(PID.TID 0000.0001) //     -4 ...........
(PID.TID 0000.0001) // =======================================================
(PID.TID 0000.0001) // END OF FIELD                                          =
(PID.TID 0000.0001) // =======================================================
(PID.TID 0000.0001) 
(PID.TID 0000.0001) // =======================================================
(PID.TID 0000.0001) // Field hFacW at iteration          1
(PID.TID 0000.0001) // CMIN =          1.000000000000000E+00
(PID.TID 0000.0001) // CMAX =          1.000000000000000E+00
(PID.TID 0000.0001) // CINT =          0.000000000000000E+00
(PID.TID 0000.0001) // SYMBOLS (CMIN->CMAX): -abcdefghijklmnopqrstuvwxyz+
(PID.TID 0000.0001) //                  0.0: .
(PID.TID 0000.0001) // RANGE I (Lo:Hi:Step):(  -4:   6:   1)
(PID.TID 0000.0001) // RANGE J (Lo:Hi:Step):(  69:  -4:  -1)
(PID.TID 0000.0001) // RANGE K (Lo:Hi:Step):(   1:   1:   1)
(PID.TID 0000.0001) // =======================================================
(PID.TID 0000.0001) K =   1
(PID.TID 0000.0001) //                I=5
(PID.TID 0000.0001) // |--J--|****01234|6
(PID.TID 0000.0001) //     69 -----------
(PID.TID 0000.0001) //     68 -----------
(PID.TID 0000.0001) //     67 -----------
(PID.TID 0000.0001) //     66 -----------
(PID.TID 0000.0001) //     65 -----------
(PID.TID 0000.0001) //     64 -----------
(PID.TID 0000.0001) //     63 -----------
(PID.TID 0000.0001) //     62 -----------
(PID.TID 0000.0001) //     61 -----------
(PID.TID 0000.0001) //     60 -----------
(PID.TID 0000.0001) //     59 -----------
(PID.TID 0000.0001) //     58 -----------
(PID.TID 0000.0001) //     57 -----------
(PID.TID 0000.0001) //     56 -----------
(PID.TID 0000.0001) //     55 -----------
(PID.TID 0000.0001) //     54 -----------
(PID.TID 0000.0001) //     53 -----------
(PID.TID 0000.0001) //     52 -----------
(PID.TID 0000.0001) //     51 -----------
(PID.TID 0000.0001) //     50 -----------
(PID.TID 0000.0001) //     49 -----------
(PID.TID 0000.0001) //     48 -----------
(PID.TID 0000.0001) //     47 -----------
(PID.TID 0000.0001) //     46 -----------
(PID.TID 0000.0001) //     45 -----------
(PID.TID 0000.0001) //     44 -----------
(PID.TID 0000.0001) //     43 -----------
(PID.TID 0000.0001) //     42 -----------
(PID.TID 0000.0001) //     41 -----------
(PID.TID 0000.0001) //     40 -----------
(PID.TID 0000.0001) //     39 -----------
(PID.TID 0000.0001) //     38 -----------
(PID.TID 0000.0001) //     37 -----------
(PID.TID 0000.0001) //     36 -----------
(PID.TID 0000.0001) //     35 -----------
(PID.TID 0000.0001) //     34 -----------
(PID.TID 0000.0001) //     33 -----------
(PID.TID 0000.0001) //     32 -----------
(PID.TID 0000.0001) //     31 -----------
(PID.TID 0000.0001) //     30 -----------
(PID.TID 0000.0001) //     29 -----------
(PID.TID 0000.0001) //     28 -----------
(PID.TID 0000.0001) //     27 -----------
(PID.TID 0000.0001) //     26 -----------
(PID.TID 0000.0001) //     25 -----------
(PID.TID 0000.0001) //     24 -----------
(PID.TID 0000.0001) //     23 -----------
(PID.TID 0000.0001) //     22 -----------
(PID.TID 0000.0001) //     21 -----------
(PID.TID 0000.0001) //     20 -----------
(PID.TID 0000.0001) //     19 -----------
(PID.TID 0000.0001) //     18 -----------
(PID.TID 0000.0001) //     17 -----------
(PID.TID 0000.0001) //     16 -----------
(PID.TID 0000.0001) //     15 -----------
(PID.TID 0000.0001) //     14 -----------
(PID.TID 0000.0001) //     13 -----------
(PID.TID 0000.0001) //     12 -----------
(PID.TID 0000.0001) //     11 -----------
(PID.TID 0000.0001) //     10 -----------
(PID.TID 0000.0001) //      9 -----------
(PID.TID 0000.0001) //      8 -----------
(PID.TID 0000.0001) //      7 -----------
(PID.TID 0000.0001) //      6 -----------
(PID.TID 0000.0001) //      5 -----------
(PID.TID 0000.0001) //      4 -----------
(PID.TID 0000.0001) //      3 -----------
(PID.TID 0000.0001) //      2 -----------
(PID.TID 0000.0001) //      1 -----------
(PID.TID 0000.0001) //      0 -----------
(PID.TID 0000.0001) //     -1 -----------
(PID.TID 0000.0001) //     -2 -----------
(PID.TID 0000.0001) //     -3 -----------
(PID.TID 0000.0001) //     -4 -----------
(PID.TID 0000.0001) // =======================================================
(PID.TID 0000.0001) // END OF FIELD                                          =
(PID.TID 0000.0001) // =======================================================
(PID.TID 0000.0001) 
(PID.TID 0000.0001) // =======================================================
(PID.TID 0000.0001) // Field hFacS at iteration          1
(PID.TID 0000.0001) // CMIN =          1.000000000000000E+00
(PID.TID 0000.0001) // CMAX =          1.000000000000000E+00
(PID.TID 0000.0001) // CINT =          0.000000000000000E+00
(PID.TID 0000.0001) // SYMBOLS (CMIN->CMAX): -abcdefghijklmnopqrstuvwxyz+
(PID.TID 0000.0001) //                  0.0: .
(PID.TID 0000.0001) // RANGE I (Lo:Hi:Step):(  -4:   6:   1)
(PID.TID 0000.0001) // RANGE J (Lo:Hi:Step):(  69:  -4:  -1)
(PID.TID 0000.0001) // RANGE K (Lo:Hi:Step):(   1:   1:   1)
(PID.TID 0000.0001) // =======================================================
(PID.TID 0000.0001) K =   1
(PID.TID 0000.0001) //                I=5
(PID.TID 0000.0001) // |--J--|****01234|6
(PID.TID 0000.0001) //     69 ...........
(PID.TID 0000.0001) //     68 ...........
(PID.TID 0000.0001) //     67 ...........
(PID.TID 0000.0001) //     66 ...........
(PID.TID 0000.0001) //     65 ...........
(PID.TID 0000.0001) //     64 -----------
(PID.TID 0000.0001) //     63 -----------
(PID.TID 0000.0001) //     62 -----------
(PID.TID 0000.0001) //     61 -----------
(PID.TID 0000.0001) //     60 -----------
(PID.TID 0000.0001) //     59 -----------
(PID.TID 0000.0001) //     58 -----------
(PID.TID 0000.0001) //     57 -----------
(PID.TID 0000.0001) //     56 -----------
(PID.TID 0000.0001) //     55 -----------
(PID.TID 0000.0001) //     54 -----------
(PID.TID 0000.0001) //     53 -----------
(PID.TID 0000.0001) //     52 -----------
(PID.TID 0000.0001) //     51 -----------
(PID.TID 0000.0001) //     50 -----------
(PID.TID 0000.0001) //     49 -----------
(PID.TID 0000.0001) //     48 -----------
(PID.TID 0000.0001) //     47 -----------
(PID.TID 0000.0001) //     46 -----------
(PID.TID 0000.0001) //     45 -----------
(PID.TID 0000.0001) //     44 -----------
(PID.TID 0000.0001) //     43 -----------
(PID.TID 0000.0001) //     42 -----------
(PID.TID 0000.0001) //     41 -----------
(PID.TID 0000.0001) //     40 -----------
(PID.TID 0000.0001) //     39 -----------
(PID.TID 0000.0001) //     38 -----------
(PID.TID 0000.0001) //     37 -----------
(PID.TID 0000.0001) //     36 -----------
(PID.TID 0000.0001) //     35 -----------
(PID.TID 0000.0001) //     34 -----------
(PID.TID 0000.0001) //     33 -----------
(PID.TID 0000.0001) //     32 -----------
(PID.TID 0000.0001) //     31 -----------
(PID.TID 0000.0001) //     30 -----------
(PID.TID 0000.0001) //     29 -----------
(PID.TID 0000.0001) //     28 -----------
(PID.TID 0000.0001) //     27 -----------
(PID.TID 0000.0001) //     26 -----------
(PID.TID 0000.0001) //     25 -----------
(PID.TID 0000.0001) //     24 -----------
(PID.TID 0000.0001) //     23 -----------
(PID.TID 0000.0001) //     22 -----------
(PID.TID 0000.0001) //     21 -----------
(PID.TID 0000.0001) //     20 -----------
(PID.TID 0000.0001) //     19 -----------
(PID.TID 0000.0001) //     18 -----------
(PID.TID 0000.0001) //     17 -----------
(PID.TID 0000.0001) //     16 -----------
(PID.TID 0000.0001) //     15 -----------
(PID.TID 0000.0001) //     14 -----------
(PID.TID 0000.0001) //     13 -----------
(PID.TID 0000.0001) //     12 -----------
(PID.TID 0000.0001) //     11 -----------
(PID.TID 0000.0001) //     10 -----------
(PID.TID 0000.0001) //      9 -----------
(PID.TID 0000.0001) //      8 -----------
(PID.TID 0000.0001) //      7 -----------
(PID.TID 0000.0001) //      6 -----------
(PID.TID 0000.0001) //      5 -----------
(PID.TID 0000.0001) //      4 -----------
(PID.TID 0000.0001) //      3 -----------
(PID.TID 0000.0001) //      2 -----------
(PID.TID 0000.0001) //      1 ...........
(PID.TID 0000.0001) //      0 ...........
(PID.TID 0000.0001) //     -1 ...........
(PID.TID 0000.0001) //     -2 ...........
(PID.TID 0000.0001) //     -3 ...........
(PID.TID 0000.0001) //     -4 ...........
(PID.TID 0000.0001) // =======================================================
(PID.TID 0000.0001) // END OF FIELD                                          =
(PID.TID 0000.0001) // =======================================================
(PID.TID 0000.0001) 
(PID.TID 0000.0001) %MON fCori_max                    =   1.4540029928789E-04
(PID.TID 0000.0001) %MON fCori_min                    =  -1.4540029928789E-04
(PID.TID 0000.0001) %MON fCori_mean                   =  -4.2351647362715E-22
(PID.TID 0000.0001) %MON fCori_sd                     =   1.0284451245737E-04
(PID.TID 0000.0001) %MON fCoriG_max                   =   1.4526891053949E-04
(PID.TID 0000.0001) %MON fCoriG_min                   =  -1.4544410433286E-04
(PID.TID 0000.0001) %MON fCoriG_mean                  =  -2.3086365767121E-06
(PID.TID 0000.0001) %MON fCoriG_sd                    =   1.0363181330709E-04
(PID.TID 0000.0001)  PACKAGE_INIT: opening data.pkg
(PID.TID 0000.0001)  OPEN_COPY_DATA_FILE: opening file data.pkg
(PID.TID 0000.0001) // =======================================================
(PID.TID 0000.0001) // Parameter file "data.pkg"
(PID.TID 0000.0001) // =======================================================
(PID.TID 0000.0001) ># Packages
(PID.TID 0000.0001) > &PACKAGES
(PID.TID 0000.0001) > useSHAP_FILT=.TRUE.,
(PID.TID 0000.0001) > &
(PID.TID 0000.0001) 
(PID.TID 0000.0001)  PACKAGE_INIT: finished reading data.pkg
(PID.TID 0000.0001)  SHAP_FILT_READPARMS: opening data.shap
(PID.TID 0000.0001)  OPEN_COPY_DATA_FILE: opening file data.shap
(PID.TID 0000.0001) // =======================================================
(PID.TID 0000.0001) // Parameter file "data.shap"
(PID.TID 0000.0001) // =======================================================
(PID.TID 0000.0001) ># Packages
(PID.TID 0000.0001) > &SHAP_PARM01
(PID.TID 0000.0001) > nShapT=4,
(PID.TID 0000.0001) > nShapUV=4,
(PID.TID 0000.0001) > Shap_funct=4,
(PID.TID 0000.0001) > &
(PID.TID 0000.0001) 
(PID.TID 0000.0001)  SHAP_FILT_READPARMS: finished reading data.shap
 Shap_funct, nShap_Tr,UV _Phys= 4 4 4 0 0
 Shap_Trtau,Shap_uvtau=  1200.  1200.
(PID.TID 0000.0001) // CG2D normalisation factor =          0.2454122852291226263129944E-06
(PID.TID 0000.0001) 
(PID.TID 0000.0001) // =======================================================
(PID.TID 0000.0001) // Model configuration
(PID.TID 0000.0001) // =======================================================
(PID.TID 0000.0001) //
(PID.TID 0000.0001) // "Physical" paramters ( PARM01 in namelist )
(PID.TID 0000.0001) //
(PID.TID 0000.0001) tRef =   /* Reference temperature profile ( oC or oK ) */
(PID.TID 0000.0001)     5 @  0.000000000000000E+00              /* K =  1:  5 */
(PID.TID 0000.0001)     ;
(PID.TID 0000.0001) sRef =   /* Reference salinity profile ( ppt ) */
(PID.TID 0000.0001)     5 @  0.000000000000000E+00              /* K =  1:  5 */
(PID.TID 0000.0001)     ;
(PID.TID 0000.0001) viscAh =   /* Lateral eddy viscosity ( m^2/s ) */
(PID.TID 0000.0001)                 0.000000000000000E+00
(PID.TID 0000.0001)     ;
(PID.TID 0000.0001) viscAh =   /* Lateral biharmonic viscosity ( m^4/s ) */
(PID.TID 0000.0001)                 0.000000000000000E+00
(PID.TID 0000.0001)     ;
(PID.TID 0000.0001) no_slip_sides =  /* Viscous BCs: No-slip sides */
(PID.TID 0000.0001)                   F
(PID.TID 0000.0001)     ;
(PID.TID 0000.0001) viscAr =   /* Vertical eddy viscosity ( units of r^2/s ) */
(PID.TID 0000.0001)                 0.000000000000000E+00
(PID.TID 0000.0001)     ;
(PID.TID 0000.0001) diffKhT =   /* Laplacian diffusion of heat laterally ( m^2/s ) */
(PID.TID 0000.0001)                 0.000000000000000E+00
(PID.TID 0000.0001)     ;
(PID.TID 0000.0001) diffK4T =   /* Bihaarmonic diffusion of heat laterally ( m^4/s ) */
(PID.TID 0000.0001)                 0.000000000000000E+00
(PID.TID 0000.0001)     ;
(PID.TID 0000.0001) diffKzT =   /* Laplacian diffusion of heat vertically ( m^2/s ) */
(PID.TID 0000.0001)                 1.234567000000000E+05
(PID.TID 0000.0001)     ;
(PID.TID 0000.0001) diffKrT =   /* Laplacian diffusion of heat vertically ( m^2/s ) */
(PID.TID 0000.0001)                 0.000000000000000E+00
(PID.TID 0000.0001)     ;
(PID.TID 0000.0001) diffKhS =   /* Laplacian diffusion of salt laterally ( m^2/s ) */
(PID.TID 0000.0001)                 0.000000000000000E+00
(PID.TID 0000.0001)     ;
(PID.TID 0000.0001) diffK4S =   /* Bihaarmonic diffusion of salt laterally ( m^4/s ) */
(PID.TID 0000.0001)                 0.000000000000000E+00
(PID.TID 0000.0001)     ;
(PID.TID 0000.0001) diffKzS =   /* Laplacian diffusion of salt vertically ( m^2/s ) */
(PID.TID 0000.0001)                 1.234567000000000E+05
(PID.TID 0000.0001)     ;
(PID.TID 0000.0001) diffKrS =   /* Laplacian diffusion of salt vertically ( m^2/s ) */
(PID.TID 0000.0001)                 0.000000000000000E+00
(PID.TID 0000.0001)     ;
(PID.TID 0000.0001) tAlpha =   /* Linear EOS thermal expansion coefficient ( 1/degree ) */
(PID.TID 0000.0001)                 2.000000000000000E-04
(PID.TID 0000.0001)     ;
(PID.TID 0000.0001) sBeta =   /* Linear EOS haline contraction coefficient ( 1/ppt ) */
(PID.TID 0000.0001)                 7.400000000000000E-04
(PID.TID 0000.0001)     ;
(PID.TID 0000.0001) rhonil =   /* Reference density ( kg/m^3 ) */
(PID.TID 0000.0001)                 1.000000000000000E+00
(PID.TID 0000.0001)     ;
(PID.TID 0000.0001) rhoConst =   /* Reference density ( kg/m^3 ) */
(PID.TID 0000.0001)                 1.000000000000000E+00
(PID.TID 0000.0001)     ;
(PID.TID 0000.0001) gravity =   /* Gravitational acceleration ( m/s^2 ) */
(PID.TID 0000.0001)                 9.810000000000000E+00
(PID.TID 0000.0001)     ;
(PID.TID 0000.0001) gBaro =   /* Barotropic gravity ( m/s^2 ) */
(PID.TID 0000.0001)                 9.810000000000000E+00
(PID.TID 0000.0001)     ;
(PID.TID 0000.0001) f0 =   /* Reference coriolis parameter ( 1/s ) */
(PID.TID 0000.0001)                 1.000000000000000E-04
(PID.TID 0000.0001)     ;
(PID.TID 0000.0001) beta =   /* Beta ( 1/(m.s) ) */
(PID.TID 0000.0001)                 9.999999999999999E-12
(PID.TID 0000.0001)     ;
(PID.TID 0000.0001) freeSurfFac =   /* Implicit free surface factor */
(PID.TID 0000.0001)                 1.000000000000000E+00
(PID.TID 0000.0001)     ;
(PID.TID 0000.0001) implicitFreeSurface =   /* Implicit free surface on/off flag */
(PID.TID 0000.0001)                   T
(PID.TID 0000.0001)     ;
(PID.TID 0000.0001) rigidLid =   /* Rigid lid on/off flag */
(PID.TID 0000.0001)                   F
(PID.TID 0000.0001)     ;
(PID.TID 0000.0001) implicSurfPress =   /* Surface Pressure implicit factor (0-1)*/
(PID.TID 0000.0001)                 1.000000000000000E+00
(PID.TID 0000.0001)     ;
(PID.TID 0000.0001) implicDiv2Dflow =   /* Barot. Flow Div. implicit factor (0-1)*/
(PID.TID 0000.0001)                 1.000000000000000E+00
(PID.TID 0000.0001)     ;
(PID.TID 0000.0001) staggerTimeStep =   /* Stagger time stepping on/off flag */
(PID.TID 0000.0001)                   T
(PID.TID 0000.0001)     ;
(PID.TID 0000.0001) momStepping =  /* Momentum equation on/off flag */
(PID.TID 0000.0001)                   T
(PID.TID 0000.0001)     ;
(PID.TID 0000.0001) momAdvection =  /* Momentum advection on/off flag */
(PID.TID 0000.0001)                   T
(PID.TID 0000.0001)     ;
(PID.TID 0000.0001) momViscosity =  /* Momentum viscosity on/off flag */
(PID.TID 0000.0001)                   T
(PID.TID 0000.0001)     ;
(PID.TID 0000.0001) useCoriolis =  /* Coriolis on/off flag */
(PID.TID 0000.0001)                   T
(PID.TID 0000.0001)     ;
(PID.TID 0000.0001) momForcing =  /* Momentum forcing on/off flag */
(PID.TID 0000.0001)                   T
(PID.TID 0000.0001)     ;
(PID.TID 0000.0001) momPressureForcing =  /* Momentum pressure term on/off flag */
(PID.TID 0000.0001)                   T
(PID.TID 0000.0001)     ;
(PID.TID 0000.0001) tempStepping =  /* Temperature equation on/off flag */
(PID.TID 0000.0001)                   T
(PID.TID 0000.0001)     ;
(PID.TID 0000.0001) nonHydrostatic =  /* Non-Hydrostatic on/off flag */
(PID.TID 0000.0001)                   F
(PID.TID 0000.0001)     ;
(PID.TID 0000.0001) //
(PID.TID 0000.0001) // Elliptic solver(s) paramters ( PARM02 in namelist )
(PID.TID 0000.0001) //
(PID.TID 0000.0001) cg2dMaxIters =   /* Upper limit on 2d con. grad iterations  */
(PID.TID 0000.0001)                     600
(PID.TID 0000.0001)     ;
(PID.TID 0000.0001) cg2dChkResFreq =   /* 2d con. grad convergence test frequency */
(PID.TID 0000.0001)                       1
(PID.TID 0000.0001)     ;
(PID.TID 0000.0001) cg2dTargetResidual =   /* 2d con. grad target residual  */
(PID.TID 0000.0001)                 1.000000000000000E-13
(PID.TID 0000.0001)     ;
(PID.TID 0000.0001) //
(PID.TID 0000.0001) // Time stepping paramters ( PARM03 in namelist )
(PID.TID 0000.0001) //
(PID.TID 0000.0001) nIter0 =   /* Base timestep number  */
(PID.TID 0000.0001)                       0
(PID.TID 0000.0001)     ;
(PID.TID 0000.0001) nTimeSteps =   /* Number of timesteps */
(PID.TID 0000.0001)                      10
(PID.TID 0000.0001)     ;
(PID.TID 0000.0001) deltatTmom =   /* Momentum equation timestep ( s ) */
(PID.TID 0000.0001)                 1.200000000000000E+03
(PID.TID 0000.0001)     ;
(PID.TID 0000.0001) deltatTtracer =   /* Tracer equation timestep ( s ) */
(PID.TID 0000.0001)                 1.200000000000000E+03
(PID.TID 0000.0001)     ;
(PID.TID 0000.0001) deltatTClock  =   /* Model clock timestep ( s ) */
(PID.TID 0000.0001)                 1.200000000000000E+03
(PID.TID 0000.0001)     ;
(PID.TID 0000.0001) cAdjFreq =   /* Convective adjustment interval ( s ) */
(PID.TID 0000.0001)                 0.000000000000000E+00
(PID.TID 0000.0001)     ;
(PID.TID 0000.0001) abeps =   /* Adams-Bashforth stabilizing weight */
(PID.TID 0000.0001)                 1.000000000000000E-01
(PID.TID 0000.0001)     ;
(PID.TID 0000.0001) tauCD =   /* CD coupling time-scale ( s ) */
(PID.TID 0000.0001)                 1.200000000000000E+03
(PID.TID 0000.0001)     ;
(PID.TID 0000.0001) rCD =   /* Normalised CD coupling parameter */
(PID.TID 0000.0001)                 0.000000000000000E+00
(PID.TID 0000.0001)     ;
(PID.TID 0000.0001) startTime =   /* Run start time ( s ). */
(PID.TID 0000.0001)                 0.000000000000000E+00
(PID.TID 0000.0001)     ;
(PID.TID 0000.0001) endTime =   /* Integration ending time ( s ). */
(PID.TID 0000.0001)                 1.200000000000000E+04
(PID.TID 0000.0001)     ;
(PID.TID 0000.0001) pChkPtFreq =   /* Permanent restart/checkpoint file interval ( s ). */
(PID.TID 0000.0001)                 0.000000000000000E+00
(PID.TID 0000.0001)     ;
(PID.TID 0000.0001) chkPtFreq =   /* Rolling restart/checkpoint file interval ( s ). */
(PID.TID 0000.0001)                 0.000000000000000E+00
(PID.TID 0000.0001)     ;
(PID.TID 0000.0001) dumpFreq =   /* Model state write out interval ( s ). */
(PID.TID 0000.0001)                 2.592000000000000E+06
(PID.TID 0000.0001)     ;
(PID.TID 0000.0001) //
(PID.TID 0000.0001) // Gridding paramters ( PARM04 in namelist )
(PID.TID 0000.0001) //
(PID.TID 0000.0001) usingCartesianGrid =   /* Cartesian coordinates flag ( True / False ) */
(PID.TID 0000.0001)                   F
(PID.TID 0000.0001)     ;
(PID.TID 0000.0001) usingSphericalPolarGrid =   /* Spherical coordinates flag ( True / False ) */
(PID.TID 0000.0001)                   T
(PID.TID 0000.0001)     ;
(PID.TID 0000.0001) groundAtK1 =   /* Lower Boundary (ground) at the surface(k=1) ( T / F ) */
(PID.TID 0000.0001)                   T
(PID.TID 0000.0001)     ;
(PID.TID 0000.0001) Ro_SeaLevel =   /* r(1) ( units of r ) */
(PID.TID 0000.0001)                 1.000000000000000E+05
(PID.TID 0000.0001)     ;
(PID.TID 0000.0001) rkFac =   /* minus Vertical index orientation  */
(PID.TID 0000.0001)                 1.000000000000000E+00
(PID.TID 0000.0001)     ;
(PID.TID 0000.0001) horiVertRatio =   /* Ratio on units : Horiz - Vertical */
(PID.TID 0000.0001)                 9.810000000000000E+00
(PID.TID 0000.0001)     ;
(PID.TID 0000.0001) delZ =   /* W spacing ( m ) */
(PID.TID 0000.0001)     5 @  1.234567000000000E+05              /* K =  1:  5 */
(PID.TID 0000.0001)     ;
(PID.TID 0000.0001) delP =   /* W spacing ( Pa ) */
(PID.TID 0000.0001)     5 @  1.234567000000000E+05              /* K =  1:  5 */
(PID.TID 0000.0001)     ;
(PID.TID 0000.0001) delR =   /* W spacing ( units of r ) */
(PID.TID 0000.0001)                 1.000000000000000E+04,      /* K =  1 */
(PID.TID 0000.0001)                 2.500000000000000E+04,      /* K =  2 */
(PID.TID 0000.0001)                 3.000000000000000E+04,      /* K =  3 */
(PID.TID 0000.0001)                 2.000000000000000E+04,      /* K =  4 */
(PID.TID 0000.0001)                 1.500000000000000E+04       /* K =  5 */
(PID.TID 0000.0001)     ;
(PID.TID 0000.0001) delX =   /* U spacing ( m - cartesian, degrees - spherical ) */
(PID.TID 0000.0001)                 2.812500000000000E+00       /* I =  1 */
(PID.TID 0000.0001)     ;
(PID.TID 0000.0001) delY =   /* V spacing ( m - cartesian, degrees - spherical ) */
(PID.TID 0000.0001)    64 @  2.812500000000000E+00              /* J =  1: 64 */
(PID.TID 0000.0001)     ;
(PID.TID 0000.0001) phiMin =    /* South edge (ignored - cartesian, degrees - spherical ) */
(PID.TID 0000.0001)                -9.000000000000000E+01
(PID.TID 0000.0001)     ;
(PID.TID 0000.0001) thetaMin =    /* West edge ( ignored - cartesian, degrees - spherical ) */
(PID.TID 0000.0001)                 0.000000000000000E+00
(PID.TID 0000.0001)     ;
(PID.TID 0000.0001) rSphere =    /* Radius ( ignored - cartesian, m - spherical ) */
(PID.TID 0000.0001)                 6.370000000000000E+06
(PID.TID 0000.0001)     ;
(PID.TID 0000.0001) xcoord =   /* P-point X coord ( m - cartesian, degrees - spherical ) */
(PID.TID 0000.0001)                 1.406250000000000E+00       /* I =  1 */
(PID.TID 0000.0001)     ;
(PID.TID 0000.0001) ycoord =   /* P-point Y coord ( m - cartesian, degrees - spherical ) */
(PID.TID 0000.0001)                -8.859375000000000E+01,      /* J =  1 */
(PID.TID 0000.0001)                -8.578125000000000E+01,      /* J =  2 */
(PID.TID 0000.0001)                -8.296875000000000E+01,      /* J =  3 */
(PID.TID 0000.0001)                -8.015625000000000E+01,      /* J =  4 */
(PID.TID 0000.0001)                -7.734375000000000E+01,      /* J =  5 */
(PID.TID 0000.0001)                -7.453125000000000E+01,      /* J =  6 */
(PID.TID 0000.0001)                -7.171875000000000E+01,      /* J =  7 */
(PID.TID 0000.0001)                -6.890625000000000E+01,      /* J =  8 */
(PID.TID 0000.0001)                -6.609375000000000E+01,      /* J =  9 */
(PID.TID 0000.0001)                -6.328125000000000E+01,      /* J = 10 */
(PID.TID 0000.0001)                -6.046875000000000E+01,      /* J = 11 */
(PID.TID 0000.0001)                -5.765625000000000E+01,      /* J = 12 */
(PID.TID 0000.0001)                -5.484375000000000E+01,      /* J = 13 */
(PID.TID 0000.0001)                -5.203125000000000E+01,      /* J = 14 */
(PID.TID 0000.0001)                -4.921875000000000E+01,      /* J = 15 */
(PID.TID 0000.0001)                -4.640625000000000E+01,      /* J = 16 */
(PID.TID 0000.0001)                -4.359375000000000E+01,      /* J = 17 */
(PID.TID 0000.0001)                -4.078125000000000E+01,      /* J = 18 */
(PID.TID 0000.0001)                -3.796875000000000E+01,      /* J = 19 */
(PID.TID 0000.0001)                -3.515625000000000E+01,      /* J = 20 */
(PID.TID 0000.0001)                -3.234375000000000E+01,      /* J = 21 */
(PID.TID 0000.0001)                -2.953125000000000E+01,      /* J = 22 */
(PID.TID 0000.0001)                -2.671875000000000E+01,      /* J = 23 */
(PID.TID 0000.0001)                -2.390625000000000E+01,      /* J = 24 */
(PID.TID 0000.0001)                -2.109375000000000E+01,      /* J = 25 */
(PID.TID 0000.0001)                -1.828125000000000E+01,      /* J = 26 */
(PID.TID 0000.0001)                -1.546875000000000E+01,      /* J = 27 */
(PID.TID 0000.0001)                -1.265625000000000E+01,      /* J = 28 */
(PID.TID 0000.0001)                -9.843750000000000E+00,      /* J = 29 */
(PID.TID 0000.0001)                -7.031250000000000E+00,      /* J = 30 */
(PID.TID 0000.0001)                -4.218750000000000E+00,      /* J = 31 */
(PID.TID 0000.0001)                -1.406250000000000E+00,      /* J = 32 */
(PID.TID 0000.0001)                 1.406250000000000E+00,      /* J = 33 */
(PID.TID 0000.0001)                 4.218750000000000E+00,      /* J = 34 */
(PID.TID 0000.0001)                 7.031250000000000E+00,      /* J = 35 */
(PID.TID 0000.0001)                 9.843750000000000E+00,      /* J = 36 */
(PID.TID 0000.0001)                 1.265625000000000E+01,      /* J = 37 */
(PID.TID 0000.0001)                 1.546875000000000E+01,      /* J = 38 */
(PID.TID 0000.0001)                 1.828125000000000E+01,      /* J = 39 */
(PID.TID 0000.0001)                 2.109375000000000E+01,      /* J = 40 */
(PID.TID 0000.0001)                 2.390625000000000E+01,      /* J = 41 */
(PID.TID 0000.0001)                 2.671875000000000E+01,      /* J = 42 */
(PID.TID 0000.0001)                 2.953125000000000E+01,      /* J = 43 */
(PID.TID 0000.0001)                 3.234375000000000E+01,      /* J = 44 */
(PID.TID 0000.0001)                 3.515625000000000E+01,      /* J = 45 */
(PID.TID 0000.0001)                 3.796875000000000E+01,      /* J = 46 */
(PID.TID 0000.0001)                 4.078125000000000E+01,      /* J = 47 */
(PID.TID 0000.0001)                 4.359375000000000E+01,      /* J = 48 */
(PID.TID 0000.0001)                 4.640625000000000E+01,      /* J = 49 */
(PID.TID 0000.0001)                 4.921875000000000E+01,      /* J = 50 */
(PID.TID 0000.0001)                 5.203125000000000E+01,      /* J = 51 */
(PID.TID 0000.0001)                 5.484375000000000E+01,      /* J = 52 */
(PID.TID 0000.0001)                 5.765625000000000E+01,      /* J = 53 */
(PID.TID 0000.0001)                 6.046875000000000E+01,      /* J = 54 */
(PID.TID 0000.0001)                 6.328125000000000E+01,      /* J = 55 */
(PID.TID 0000.0001)                 6.609375000000000E+01,      /* J = 56 */
(PID.TID 0000.0001)                 6.890625000000000E+01,      /* J = 57 */
(PID.TID 0000.0001)                 7.171875000000000E+01,      /* J = 58 */
(PID.TID 0000.0001)                 7.453125000000000E+01,      /* J = 59 */
(PID.TID 0000.0001)                 7.734375000000000E+01,      /* J = 60 */
(PID.TID 0000.0001)                 8.015625000000000E+01,      /* J = 61 */
(PID.TID 0000.0001)                 8.296875000000000E+01,      /* J = 62 */
(PID.TID 0000.0001)                 8.578125000000000E+01,      /* J = 63 */
(PID.TID 0000.0001)                 8.859375000000000E+01       /* J = 64 */
(PID.TID 0000.0001)     ;
(PID.TID 0000.0001) rcoord =   /* P-point R coordinate (  units of r ) */
(PID.TID 0000.0001)                 9.500000000000000E+04,      /* K =  1 */
(PID.TID 0000.0001)                 7.750000000000000E+04,      /* K =  2 */
(PID.TID 0000.0001)                 5.000000000000000E+04,      /* K =  3 */
(PID.TID 0000.0001)                 2.500000000000000E+04,      /* K =  4 */
(PID.TID 0000.0001)                 7.500000000000000E+03       /* K =  5 */
(PID.TID 0000.0001)     ;
(PID.TID 0000.0001) dxF =  /* dxF(:,1,:,1) ( m - cartesian, degrees - spherical ) */
(PID.TID 0000.0001)                 7.673714381622298E+03       /* I =  1 */
(PID.TID 0000.0001)     ;
(PID.TID 0000.0001) dxF =  /* dxF(1,:,1,:) ( m - cartesian, degrees - spherical ) */
(PID.TID 0000.0001)                 7.673714381622298E+03,      /* J =  1 */
(PID.TID 0000.0001)                 2.300265649478360E+04,      /* J =  2 */
(PID.TID 0000.0001)                 3.827618319365421E+04,      /* J =  3 */
(PID.TID 0000.0001)                 5.345749921461356E+04,      /* J =  4 */
(PID.TID 0000.0001)                 6.851003143764105E+04,      /* J =  5 */
(PID.TID 0000.0001)                 8.339751699416523E+04,      /* J =  6 */
(PID.TID 0000.0001)                 9.808409062749070E+04,      /* J =  7 */
(PID.TID 0000.0001)                 1.125343710953429E+05,      /* J =  8 */
(PID.TID 0000.0001)                 1.267135464063795E+05,      /* J =  9 */
(PID.TID 0000.0001)                 1.405874576853274E+05,      /* J = 10 */
(PID.TID 0000.0001)                 1.541226814647045E+05,      /* J = 11 */
(PID.TID 0000.0001)                 1.672866102048804E+05,      /* J = 12 */
(PID.TID 0000.0001)                 1.800475308484964E+05,      /* J = 13 */
(PID.TID 0000.0001)                 1.923747012199971E+05,      /* J = 14 */
(PID.TID 0000.0001)                 2.042384240862251E+05,      /* J = 15 */
(PID.TID 0000.0001)                 2.156101186996563E+05,      /* J = 16 */
(PID.TID 0000.0001)                 2.264623896519241E+05,      /* J = 17 */
(PID.TID 0000.0001)                 2.367690928717576E+05,      /* J = 18 */
(PID.TID 0000.0001)                 2.465053986083400E+05,      /* J = 19 */
(PID.TID 0000.0001)                 2.556478512483520E+05,      /* J = 20 */
(PID.TID 0000.0001)                 2.641744258225996E+05,      /* J = 21 */
(PID.TID 0000.0001)                 2.720645810660936E+05,      /* J = 22 */
(PID.TID 0000.0001)                 2.792993089037566E+05,      /* J = 23 */
(PID.TID 0000.0001)                 2.858611802425402E+05,      /* J = 24 */
(PID.TID 0000.0001)                 2.917343869596373E+05,      /* J = 25 */
(PID.TID 0000.0001)                 2.969047799856343E+05,      /* J = 26 */
(PID.TID 0000.0001)                 3.013599033908587E+05,      /* J = 27 */
(PID.TID 0000.0001)                 3.050890243928044E+05,      /* J = 28 */
(PID.TID 0000.0001)                 3.080831592123453E+05,      /* J = 29 */
(PID.TID 0000.0001)                 3.103350947164461E+05,      /* J = 30 */
(PID.TID 0000.0001)                 3.118394057952310E+05,      /* J = 31 */
(PID.TID 0000.0001)     2 @  3.125924684315491E+05,             /* J = 32: 33 */
(PID.TID 0000.0001)                 3.118394057952310E+05,      /* J = 34 */
(PID.TID 0000.0001)                 3.103350947164461E+05,      /* J = 35 */
(PID.TID 0000.0001)                 3.080831592123453E+05,      /* J = 36 */
(PID.TID 0000.0001)                 3.050890243928044E+05,      /* J = 37 */
(PID.TID 0000.0001)                 3.013599033908587E+05,      /* J = 38 */
(PID.TID 0000.0001)                 2.969047799856343E+05,      /* J = 39 */
(PID.TID 0000.0001)                 2.917343869596373E+05,      /* J = 40 */
(PID.TID 0000.0001)                 2.858611802425402E+05,      /* J = 41 */
(PID.TID 0000.0001)                 2.792993089037566E+05,      /* J = 42 */
(PID.TID 0000.0001)                 2.720645810660936E+05,      /* J = 43 */
(PID.TID 0000.0001)                 2.641744258225996E+05,      /* J = 44 */
(PID.TID 0000.0001)                 2.556478512483520E+05,      /* J = 45 */
(PID.TID 0000.0001)                 2.465053986083400E+05,      /* J = 46 */
(PID.TID 0000.0001)                 2.367690928717576E+05,      /* J = 47 */
(PID.TID 0000.0001)                 2.264623896519241E+05,      /* J = 48 */
(PID.TID 0000.0001)                 2.156101186996563E+05,      /* J = 49 */
(PID.TID 0000.0001)                 2.042384240862251E+05,      /* J = 50 */
(PID.TID 0000.0001)                 1.923747012199971E+05,      /* J = 51 */
(PID.TID 0000.0001)                 1.800475308484964E+05,      /* J = 52 */
(PID.TID 0000.0001)                 1.672866102048804E+05,      /* J = 53 */
(PID.TID 0000.0001)                 1.541226814647045E+05,      /* J = 54 */
(PID.TID 0000.0001)                 1.405874576853274E+05,      /* J = 55 */
(PID.TID 0000.0001)                 1.267135464063795E+05,      /* J = 56 */
(PID.TID 0000.0001)                 1.125343710953429E+05,      /* J = 57 */
(PID.TID 0000.0001)                 9.808409062749070E+04,      /* J = 58 */
(PID.TID 0000.0001)                 8.339751699416523E+04,      /* J = 59 */
(PID.TID 0000.0001)                 6.851003143764105E+04,      /* J = 60 */
(PID.TID 0000.0001)                 5.345749921461356E+04,      /* J = 61 */
(PID.TID 0000.0001)                 3.827618319365421E+04,      /* J = 62 */
(PID.TID 0000.0001)                 2.300265649478360E+04,      /* J = 63 */
(PID.TID 0000.0001)                 7.673714381622298E+03       /* J = 64 */
(PID.TID 0000.0001)     ;
(PID.TID 0000.0001) dyF =  /* dyF(:,1,:,1) ( m - cartesian, degrees - spherical ) */
(PID.TID 0000.0001)                 3.126866438026091E+05       /* I =  1 */
(PID.TID 0000.0001)     ;
(PID.TID 0000.0001) dyF =  /* dyF(1,:,1,:) ( m - cartesian, degrees - spherical ) */
(PID.TID 0000.0001)    64 @  3.126866438026091E+05              /* J =  1: 64 */
(PID.TID 0000.0001)     ;
(PID.TID 0000.0001) dxG =  /* dxG(:,1,:,1) ( m - cartesian, degrees - spherical ) */
(PID.TID 0000.0001)                 0.000000000000000E+00       /* I =  1 */
(PID.TID 0000.0001)     ;
(PID.TID 0000.0001) dxG =  /* dxG(1,:,1,:) ( m - cartesian, degrees - spherical ) */
(PID.TID 0000.0001)                 0.000000000000000E+00,      /* J =  1 */
(PID.TID 0000.0001)                 1.534280640463982E+04,      /* J =  2 */
(PID.TID 0000.0001)                 3.064865064477965E+04,      /* J =  3 */
(PID.TID 0000.0001)                 4.588065960101153E+04,      /* J =  4 */
(PID.TID 0000.0001)                 6.100213802959342E+04,      /* J =  5 */
(PID.TID 0000.0001)                 7.597665696450579E+04,      /* J =  6 */
(PID.TID 0000.0001)                 9.076814147802140E+04,      /* J =  7 */
(PID.TID 0000.0001)                 1.053409575883663E+05,      /* J =  8 */
(PID.TID 0000.0001)                 1.196599981051027E+05,      /* J =  9 */
(PID.TID 0000.0001)                 1.336907672054259E+05,      /* J = 10 */
(PID.TID 0000.0001)                 1.473994635376230E+05,      /* J = 11 */
(PID.TID 0000.0001)                 1.607530616514898E+05,      /* J = 12 */
(PID.TID 0000.0001)                 1.737193915595329E+05,      /* J = 13 */
(PID.TID 0000.0001)                 1.862672162372875E+05,      /* J = 14 */
(PID.TID 0000.0001)                 1.983663068760452E+05,      /* J = 15 */
(PID.TID 0000.0001)                 2.099875157067021E+05,      /* J = 16 */
(PID.TID 0000.0001)                 2.211028462192875E+05,      /* J = 17 */
(PID.TID 0000.0001)                 2.316855206090085E+05,      /* J = 18 */
(PID.TID 0000.0001)                 2.417100442863275E+05,      /* J = 19 */
(PID.TID 0000.0001)                 2.511522672956614E+05,      /* J = 20 */
(PID.TID 0000.0001)                 2.599894424947395E+05,      /* J = 21 */
(PID.TID 0000.0001)                 2.682002803544621E+05,      /* J = 22 */
(PID.TID 0000.0001)                 2.757650002472408E+05,      /* J = 23 */
(PID.TID 0000.0001)                 2.826653781002625E+05,      /* J = 24 */
(PID.TID 0000.0001)                 2.888847902988777E+05,      /* J = 25 */
(PID.TID 0000.0001)                 2.944082537343438E+05,      /* J = 26 */
(PID.TID 0000.0001)                 2.992224618994464E+05,      /* J = 27 */
(PID.TID 0000.0001)                 3.033158169450409E+05,      /* J = 28 */
(PID.TID 0000.0001)                 3.066784576202870E+05,      /* J = 29 */
(PID.TID 0000.0001)                 3.093022830292655E+05,      /* J = 30 */
(PID.TID 0000.0001)                 3.111809721467461E+05,      /* J = 31 */
(PID.TID 0000.0001)                 3.123099990460912E+05,      /* J = 32 */
(PID.TID 0000.0001)                 3.126866438026091E+05,      /* J = 33 */
(PID.TID 0000.0001)                 3.123099990460912E+05,      /* J = 34 */
(PID.TID 0000.0001)                 3.111809721467461E+05,      /* J = 35 */
(PID.TID 0000.0001)                 3.093022830292655E+05,      /* J = 36 */
(PID.TID 0000.0001)                 3.066784576202870E+05,      /* J = 37 */
(PID.TID 0000.0001)                 3.033158169450409E+05,      /* J = 38 */
(PID.TID 0000.0001)                 2.992224618994464E+05,      /* J = 39 */
(PID.TID 0000.0001)                 2.944082537343438E+05,      /* J = 40 */
(PID.TID 0000.0001)                 2.888847902988777E+05,      /* J = 41 */
(PID.TID 0000.0001)                 2.826653781002625E+05,      /* J = 42 */
(PID.TID 0000.0001)                 2.757650002472408E+05,      /* J = 43 */
(PID.TID 0000.0001)                 2.682002803544621E+05,      /* J = 44 */
(PID.TID 0000.0001)                 2.599894424947395E+05,      /* J = 45 */
(PID.TID 0000.0001)                 2.511522672956614E+05,      /* J = 46 */
(PID.TID 0000.0001)                 2.417100442863275E+05,      /* J = 47 */
(PID.TID 0000.0001)                 2.316855206090085E+05,      /* J = 48 */
(PID.TID 0000.0001)                 2.211028462192875E+05,      /* J = 49 */
(PID.TID 0000.0001)                 2.099875157067021E+05,      /* J = 50 */
(PID.TID 0000.0001)                 1.983663068760452E+05,      /* J = 51 */
(PID.TID 0000.0001)                 1.862672162372875E+05,      /* J = 52 */
(PID.TID 0000.0001)                 1.737193915595329E+05,      /* J = 53 */
(PID.TID 0000.0001)                 1.607530616514898E+05,      /* J = 54 */
(PID.TID 0000.0001)                 1.473994635376230E+05,      /* J = 55 */
(PID.TID 0000.0001)                 1.336907672054259E+05,      /* J = 56 */
(PID.TID 0000.0001)                 1.196599981051027E+05,      /* J = 57 */
(PID.TID 0000.0001)                 1.053409575883663E+05,      /* J = 58 */
(PID.TID 0000.0001)                 9.076814147802140E+04,      /* J = 59 */
(PID.TID 0000.0001)                 7.597665696450579E+04,      /* J = 60 */
(PID.TID 0000.0001)                 6.100213802959342E+04,      /* J = 61 */
(PID.TID 0000.0001)                 4.588065960101153E+04,      /* J = 62 */
(PID.TID 0000.0001)                 3.064865064477965E+04,      /* J = 63 */
(PID.TID 0000.0001)                 1.534280640463982E+04       /* J = 64 */
(PID.TID 0000.0001)     ;
(PID.TID 0000.0001) dyG =  /* dyG(:,1,:,1) ( m - cartesian, degrees - spherical ) */
(PID.TID 0000.0001)                 3.126866438026091E+05       /* I =  1 */
(PID.TID 0000.0001)     ;
(PID.TID 0000.0001) dyG =  /* dyG(1,:,1,:) ( m - cartesian, degrees - spherical ) */
(PID.TID 0000.0001)    64 @  3.126866438026091E+05              /* J =  1: 64 */
(PID.TID 0000.0001)     ;
(PID.TID 0000.0001) dxC =  /* dxC(:,1,:,1) ( m - cartesian, degrees - spherical ) */
(PID.TID 0000.0001)                 7.673714381622298E+03       /* I =  1 */
(PID.TID 0000.0001)     ;
(PID.TID 0000.0001) dxC =  /* dxC(1,:,1,:) ( m - cartesian, degrees - spherical ) */
(PID.TID 0000.0001)                 7.673714381622298E+03,      /* J =  1 */
(PID.TID 0000.0001)                 2.300265649478360E+04,      /* J =  2 */
(PID.TID 0000.0001)                 3.827618319365421E+04,      /* J =  3 */
(PID.TID 0000.0001)                 5.345749921461356E+04,      /* J =  4 */
(PID.TID 0000.0001)                 6.851003143764105E+04,      /* J =  5 */
(PID.TID 0000.0001)                 8.339751699416523E+04,      /* J =  6 */
(PID.TID 0000.0001)                 9.808409062749070E+04,      /* J =  7 */
(PID.TID 0000.0001)                 1.125343710953429E+05,      /* J =  8 */
(PID.TID 0000.0001)                 1.267135464063795E+05,      /* J =  9 */
(PID.TID 0000.0001)                 1.405874576853274E+05,      /* J = 10 */
(PID.TID 0000.0001)                 1.541226814647045E+05,      /* J = 11 */
(PID.TID 0000.0001)                 1.672866102048804E+05,      /* J = 12 */
(PID.TID 0000.0001)                 1.800475308484964E+05,      /* J = 13 */
(PID.TID 0000.0001)                 1.923747012199971E+05,      /* J = 14 */
(PID.TID 0000.0001)                 2.042384240862251E+05,      /* J = 15 */
(PID.TID 0000.0001)                 2.156101186996563E+05,      /* J = 16 */
(PID.TID 0000.0001)                 2.264623896519241E+05,      /* J = 17 */
(PID.TID 0000.0001)                 2.367690928717576E+05,      /* J = 18 */
(PID.TID 0000.0001)                 2.465053986083400E+05,      /* J = 19 */
(PID.TID 0000.0001)                 2.556478512483520E+05,      /* J = 20 */
(PID.TID 0000.0001)                 2.641744258225996E+05,      /* J = 21 */
(PID.TID 0000.0001)                 2.720645810660936E+05,      /* J = 22 */
(PID.TID 0000.0001)                 2.792993089037566E+05,      /* J = 23 */
(PID.TID 0000.0001)                 2.858611802425402E+05,      /* J = 24 */
(PID.TID 0000.0001)                 2.917343869596373E+05,      /* J = 25 */
(PID.TID 0000.0001)                 2.969047799856343E+05,      /* J = 26 */
(PID.TID 0000.0001)                 3.013599033908587E+05,      /* J = 27 */
(PID.TID 0000.0001)                 3.050890243928044E+05,      /* J = 28 */
(PID.TID 0000.0001)                 3.080831592123453E+05,      /* J = 29 */
(PID.TID 0000.0001)                 3.103350947164461E+05,      /* J = 30 */
(PID.TID 0000.0001)                 3.118394057952310E+05,      /* J = 31 */
(PID.TID 0000.0001)     2 @  3.125924684315491E+05,             /* J = 32: 33 */
(PID.TID 0000.0001)                 3.118394057952310E+05,      /* J = 34 */
(PID.TID 0000.0001)                 3.103350947164461E+05,      /* J = 35 */
(PID.TID 0000.0001)                 3.080831592123453E+05,      /* J = 36 */
(PID.TID 0000.0001)                 3.050890243928044E+05,      /* J = 37 */
(PID.TID 0000.0001)                 3.013599033908587E+05,      /* J = 38 */
(PID.TID 0000.0001)                 2.969047799856343E+05,      /* J = 39 */
(PID.TID 0000.0001)                 2.917343869596373E+05,      /* J = 40 */
(PID.TID 0000.0001)                 2.858611802425402E+05,      /* J = 41 */
(PID.TID 0000.0001)                 2.792993089037566E+05,      /* J = 42 */
(PID.TID 0000.0001)                 2.720645810660936E+05,      /* J = 43 */
(PID.TID 0000.0001)                 2.641744258225996E+05,      /* J = 44 */
(PID.TID 0000.0001)                 2.556478512483520E+05,      /* J = 45 */
(PID.TID 0000.0001)                 2.465053986083400E+05,      /* J = 46 */
(PID.TID 0000.0001)                 2.367690928717576E+05,      /* J = 47 */
(PID.TID 0000.0001)                 2.264623896519241E+05,      /* J = 48 */
(PID.TID 0000.0001)                 2.156101186996563E+05,      /* J = 49 */
(PID.TID 0000.0001)                 2.042384240862251E+05,      /* J = 50 */
(PID.TID 0000.0001)                 1.923747012199971E+05,      /* J = 51 */
(PID.TID 0000.0001)                 1.800475308484964E+05,      /* J = 52 */
(PID.TID 0000.0001)                 1.672866102048804E+05,      /* J = 53 */
(PID.TID 0000.0001)                 1.541226814647045E+05,      /* J = 54 */
(PID.TID 0000.0001)                 1.405874576853274E+05,      /* J = 55 */
(PID.TID 0000.0001)                 1.267135464063795E+05,      /* J = 56 */
(PID.TID 0000.0001)                 1.125343710953429E+05,      /* J = 57 */
(PID.TID 0000.0001)                 9.808409062749070E+04,      /* J = 58 */
(PID.TID 0000.0001)                 8.339751699416523E+04,      /* J = 59 */
(PID.TID 0000.0001)                 6.851003143764105E+04,      /* J = 60 */
(PID.TID 0000.0001)                 5.345749921461356E+04,      /* J = 61 */
(PID.TID 0000.0001)                 3.827618319365421E+04,      /* J = 62 */
(PID.TID 0000.0001)                 2.300265649478360E+04,      /* J = 63 */
(PID.TID 0000.0001)                 7.673714381622298E+03       /* J = 64 */
(PID.TID 0000.0001)     ;
(PID.TID 0000.0001) dyC =  /* dyC(:,1,:,1) ( m - cartesian, degrees - spherical ) */
(PID.TID 0000.0001)                 3.126866438026091E+05       /* I =  1 */
(PID.TID 0000.0001)     ;
(PID.TID 0000.0001) dyC =  /* dyC(1,:,1,:) ( m - cartesian, degrees - spherical ) */
(PID.TID 0000.0001)    64 @  3.126866438026091E+05              /* J =  1: 64 */
(PID.TID 0000.0001)     ;
(PID.TID 0000.0001) dxV =  /* dxV(:,1,:,1) ( m - cartesian, degrees - spherical ) */
(PID.TID 0000.0001)                 0.000000000000000E+00       /* I =  1 */
(PID.TID 0000.0001)     ;
(PID.TID 0000.0001) dxV =  /* dxV(1,:,1,:) ( m - cartesian, degrees - spherical ) */
(PID.TID 0000.0001)                 0.000000000000000E+00,      /* J =  1 */
(PID.TID 0000.0001)                 1.534280640463982E+04,      /* J =  2 */
(PID.TID 0000.0001)                 3.064865064477965E+04,      /* J =  3 */
(PID.TID 0000.0001)                 4.588065960101153E+04,      /* J =  4 */
(PID.TID 0000.0001)                 6.100213802959342E+04,      /* J =  5 */
(PID.TID 0000.0001)                 7.597665696450579E+04,      /* J =  6 */
(PID.TID 0000.0001)                 9.076814147802140E+04,      /* J =  7 */
(PID.TID 0000.0001)                 1.053409575883663E+05,      /* J =  8 */
(PID.TID 0000.0001)                 1.196599981051027E+05,      /* J =  9 */
(PID.TID 0000.0001)                 1.336907672054259E+05,      /* J = 10 */
(PID.TID 0000.0001)                 1.473994635376230E+05,      /* J = 11 */
(PID.TID 0000.0001)                 1.607530616514898E+05,      /* J = 12 */
(PID.TID 0000.0001)                 1.737193915595329E+05,      /* J = 13 */
(PID.TID 0000.0001)                 1.862672162372875E+05,      /* J = 14 */
(PID.TID 0000.0001)                 1.983663068760452E+05,      /* J = 15 */
(PID.TID 0000.0001)                 2.099875157067021E+05,      /* J = 16 */
(PID.TID 0000.0001)                 2.211028462192875E+05,      /* J = 17 */
(PID.TID 0000.0001)                 2.316855206090085E+05,      /* J = 18 */
(PID.TID 0000.0001)                 2.417100442863275E+05,      /* J = 19 */
(PID.TID 0000.0001)                 2.511522672956614E+05,      /* J = 20 */
(PID.TID 0000.0001)                 2.599894424947395E+05,      /* J = 21 */
(PID.TID 0000.0001)                 2.682002803544621E+05,      /* J = 22 */
(PID.TID 0000.0001)                 2.757650002472408E+05,      /* J = 23 */
(PID.TID 0000.0001)                 2.826653781002625E+05,      /* J = 24 */
(PID.TID 0000.0001)                 2.888847902988777E+05,      /* J = 25 */
(PID.TID 0000.0001)                 2.944082537343438E+05,      /* J = 26 */
(PID.TID 0000.0001)                 2.992224618994464E+05,      /* J = 27 */
(PID.TID 0000.0001)                 3.033158169450409E+05,      /* J = 28 */
(PID.TID 0000.0001)                 3.066784576202870E+05,      /* J = 29 */
(PID.TID 0000.0001)                 3.093022830292655E+05,      /* J = 30 */
(PID.TID 0000.0001)                 3.111809721467461E+05,      /* J = 31 */
(PID.TID 0000.0001)                 3.123099990460912E+05,      /* J = 32 */
(PID.TID 0000.0001)                 3.126866438026091E+05,      /* J = 33 */
(PID.TID 0000.0001)                 3.123099990460912E+05,      /* J = 34 */
(PID.TID 0000.0001)                 3.111809721467461E+05,      /* J = 35 */
(PID.TID 0000.0001)                 3.093022830292655E+05,      /* J = 36 */
(PID.TID 0000.0001)                 3.066784576202870E+05,      /* J = 37 */
(PID.TID 0000.0001)                 3.033158169450409E+05,      /* J = 38 */
(PID.TID 0000.0001)                 2.992224618994464E+05,      /* J = 39 */
(PID.TID 0000.0001)                 2.944082537343438E+05,      /* J = 40 */
(PID.TID 0000.0001)                 2.888847902988777E+05,      /* J = 41 */
(PID.TID 0000.0001)                 2.826653781002625E+05,      /* J = 42 */
(PID.TID 0000.0001)                 2.757650002472408E+05,      /* J = 43 */
(PID.TID 0000.0001)                 2.682002803544621E+05,      /* J = 44 */
(PID.TID 0000.0001)                 2.599894424947395E+05,      /* J = 45 */
(PID.TID 0000.0001)                 2.511522672956614E+05,      /* J = 46 */
(PID.TID 0000.0001)                 2.417100442863275E+05,      /* J = 47 */
(PID.TID 0000.0001)                 2.316855206090085E+05,      /* J = 48 */
(PID.TID 0000.0001)                 2.211028462192875E+05,      /* J = 49 */
(PID.TID 0000.0001)                 2.099875157067021E+05,      /* J = 50 */
(PID.TID 0000.0001)                 1.983663068760452E+05,      /* J = 51 */
(PID.TID 0000.0001)                 1.862672162372875E+05,      /* J = 52 */
(PID.TID 0000.0001)                 1.737193915595329E+05,      /* J = 53 */
(PID.TID 0000.0001)                 1.607530616514898E+05,      /* J = 54 */
(PID.TID 0000.0001)                 1.473994635376230E+05,      /* J = 55 */
(PID.TID 0000.0001)                 1.336907672054259E+05,      /* J = 56 */
(PID.TID 0000.0001)                 1.196599981051027E+05,      /* J = 57 */
(PID.TID 0000.0001)                 1.053409575883663E+05,      /* J = 58 */
(PID.TID 0000.0001)                 9.076814147802140E+04,      /* J = 59 */
(PID.TID 0000.0001)                 7.597665696450579E+04,      /* J = 60 */
(PID.TID 0000.0001)                 6.100213802959342E+04,      /* J = 61 */
(PID.TID 0000.0001)                 4.588065960101153E+04,      /* J = 62 */
(PID.TID 0000.0001)                 3.064865064477965E+04,      /* J = 63 */
(PID.TID 0000.0001)                 1.534280640463982E+04       /* J = 64 */
(PID.TID 0000.0001)     ;
(PID.TID 0000.0001) dyU =  /* dyU(:,1,:,1) ( m - cartesian, degrees - spherical ) */
(PID.TID 0000.0001)                 3.126866438026091E+05       /* I =  1 */
(PID.TID 0000.0001)     ;
(PID.TID 0000.0001) dyU =  /* dyU(1,:,1,:) ( m - cartesian, degrees - spherical ) */
(PID.TID 0000.0001)    64 @  3.126866438026091E+05              /* J =  1: 64 */
(PID.TID 0000.0001)     ;
(PID.TID 0000.0001) rA =  /* rA(:,1,:,1) ( m - cartesian, degrees - spherical ) */
(PID.TID 0000.0001)                 2.399227099019054E+09       /* I =  1 */
(PID.TID 0000.0001)     ;
(PID.TID 0000.0001) rA =  /* rA(1,:,1,:) ( m - cartesian, degrees - spherical ) */
(PID.TID 0000.0001)                 2.399227099019054E+09,      /* J =  1 */
(PID.TID 0000.0001)                 7.191901348828095E+09,      /* J =  2 */
(PID.TID 0000.0001)                 1.196724967835172E+10,      /* J =  3 */
(PID.TID 0000.0001)                 1.671376785519289E+10,      /* J =  4 */
(PID.TID 0000.0001)                 2.142002110131774E+10,      /* J =  5 */
(PID.TID 0000.0001)                 2.607467164043713E+10,      /* J =  6 */
(PID.TID 0000.0001)                 3.066650601170344E+10,      /* J =  7 */
(PID.TID 0000.0001)                 3.518446208391876E+10,      /* J =  8 */
(PID.TID 0000.0001)                 3.961765570517902E+10,      /* J =  9 */
(PID.TID 0000.0001)                 4.395540692374849E+10,      /* J = 10 */
(PID.TID 0000.0001)                 4.818726571700011E+10,      /* J = 11 */
(PID.TID 0000.0001)                 5.230303716643329E+10,      /* J = 12 */
(PID.TID 0000.0001)                 5.629280601812742E+10,      /* J = 13 */
(PID.TID 0000.0001)                 6.014696056945666E+10,      /* J = 14 */
(PID.TID 0000.0001)                 6.385621582452226E+10,      /* J = 15 */
(PID.TID 0000.0001)                 6.741163586252296E+10,      /* J = 16 */
(PID.TID 0000.0001)                 7.080465536516859E+10,      /* J = 17 */
(PID.TID 0000.0001)                 7.402710025128450E+10,      /* J = 18 */
(PID.TID 0000.0001)                 7.707120736888654E+10,      /* J = 19 */
(PID.TID 0000.0001)                 7.992964319729680E+10,      /* J = 20 */
(PID.TID 0000.0001)                 8.259552151423453E+10,      /* J = 21 */
(PID.TID 0000.0001)                 8.506241998533157E+10,      /* J = 22 */
(PID.TID 0000.0001)                 8.732439563609564E+10,      /* J = 23 */
(PID.TID 0000.0001)                 8.937599916905875E+10,      /* J = 24 */
(PID.TID 0000.0001)                 9.121228809161064E+10,      /* J = 25 */
(PID.TID 0000.0001)                 9.282883862289697E+10,      /* J = 26 */
(PID.TID 0000.0001)                 9.422175635109477E+10,      /* J = 27 */
(PID.TID 0000.0001)                 9.538768561539165E+10,      /* J = 28 */
(PID.TID 0000.0001)                 9.632381759006653E+10,      /* J = 29 */
(PID.TID 0000.0001)                 9.702789705119699E+10,      /* J = 30 */
(PID.TID 0000.0001)                 9.749822780969106E+10,      /* J = 31 */
(PID.TID 0000.0001)     2 @  9.773367679755542E+10,             /* J = 32: 33 */
(PID.TID 0000.0001)                 9.749822780969106E+10,      /* J = 34 */
(PID.TID 0000.0001)                 9.702789705119699E+10,      /* J = 35 */
(PID.TID 0000.0001)                 9.632381759006653E+10,      /* J = 36 */
(PID.TID 0000.0001)                 9.538768561539165E+10,      /* J = 37 */
(PID.TID 0000.0001)                 9.422175635109477E+10,      /* J = 38 */
(PID.TID 0000.0001)                 9.282883862289697E+10,      /* J = 39 */
(PID.TID 0000.0001)                 9.121228809161064E+10,      /* J = 40 */
(PID.TID 0000.0001)                 8.937599916905875E+10,      /* J = 41 */
(PID.TID 0000.0001)                 8.732439563609564E+10,      /* J = 42 */
(PID.TID 0000.0001)                 8.506241998533157E+10,      /* J = 43 */
(PID.TID 0000.0001)                 8.259552151423453E+10,      /* J = 44 */
(PID.TID 0000.0001)                 7.992964319729680E+10,      /* J = 45 */
(PID.TID 0000.0001)                 7.707120736888654E+10,      /* J = 46 */
(PID.TID 0000.0001)                 7.402710025128450E+10,      /* J = 47 */
(PID.TID 0000.0001)                 7.080465536516859E+10,      /* J = 48 */
(PID.TID 0000.0001)                 6.741163586252296E+10,      /* J = 49 */
(PID.TID 0000.0001)                 6.385621582452226E+10,      /* J = 50 */
(PID.TID 0000.0001)                 6.014696056945666E+10,      /* J = 51 */
(PID.TID 0000.0001)                 5.629280601812742E+10,      /* J = 52 */
(PID.TID 0000.0001)                 5.230303716643329E+10,      /* J = 53 */
(PID.TID 0000.0001)                 4.818726571700011E+10,      /* J = 54 */
(PID.TID 0000.0001)                 4.395540692374849E+10,      /* J = 55 */
(PID.TID 0000.0001)                 3.961765570517902E+10,      /* J = 56 */
(PID.TID 0000.0001)                 3.518446208391876E+10,      /* J = 57 */
(PID.TID 0000.0001)                 3.066650601170344E+10,      /* J = 58 */
(PID.TID 0000.0001)                 2.607467164043713E+10,      /* J = 59 */
(PID.TID 0000.0001)                 2.142002110131774E+10,      /* J = 60 */
(PID.TID 0000.0001)                 1.671376785519289E+10,      /* J = 61 */
(PID.TID 0000.0001)                 1.196724967835172E+10,      /* J = 62 */
(PID.TID 0000.0001)                 7.191901348828095E+09,      /* J = 63 */
(PID.TID 0000.0001)                 2.399227099019054E+09       /* J = 64 */
(PID.TID 0000.0001)     ;
(PID.TID 0000.0001) rAw =  /* rAw(:,1,:,1) ( m - cartesian, degrees - spherical ) */
(PID.TID 0000.0001)                 2.399227099019054E+09       /* I =  1 */
(PID.TID 0000.0001)     ;
(PID.TID 0000.0001) rAw =  /* rAw(1,:,1,:) ( m - cartesian, degrees - spherical ) */
(PID.TID 0000.0001)                 2.399227099019054E+09,      /* J =  1 */
(PID.TID 0000.0001)                 7.191901348828095E+09,      /* J =  2 */
(PID.TID 0000.0001)                 1.196724967835172E+10,      /* J =  3 */
(PID.TID 0000.0001)                 1.671376785519289E+10,      /* J =  4 */
(PID.TID 0000.0001)                 2.142002110131774E+10,      /* J =  5 */
(PID.TID 0000.0001)                 2.607467164043713E+10,      /* J =  6 */
(PID.TID 0000.0001)                 3.066650601170344E+10,      /* J =  7 */
(PID.TID 0000.0001)                 3.518446208391876E+10,      /* J =  8 */
(PID.TID 0000.0001)                 3.961765570517902E+10,      /* J =  9 */
(PID.TID 0000.0001)                 4.395540692374849E+10,      /* J = 10 */
(PID.TID 0000.0001)                 4.818726571700011E+10,      /* J = 11 */
(PID.TID 0000.0001)                 5.230303716643329E+10,      /* J = 12 */
(PID.TID 0000.0001)                 5.629280601812742E+10,      /* J = 13 */
(PID.TID 0000.0001)                 6.014696056945666E+10,      /* J = 14 */
(PID.TID 0000.0001)                 6.385621582452226E+10,      /* J = 15 */
(PID.TID 0000.0001)                 6.741163586252296E+10,      /* J = 16 */
(PID.TID 0000.0001)                 7.080465536516859E+10,      /* J = 17 */
(PID.TID 0000.0001)                 7.402710025128450E+10,      /* J = 18 */
(PID.TID 0000.0001)                 7.707120736888654E+10,      /* J = 19 */
(PID.TID 0000.0001)                 7.992964319729680E+10,      /* J = 20 */
(PID.TID 0000.0001)                 8.259552151423453E+10,      /* J = 21 */
(PID.TID 0000.0001)                 8.506241998533157E+10,      /* J = 22 */
(PID.TID 0000.0001)                 8.732439563609564E+10,      /* J = 23 */
(PID.TID 0000.0001)                 8.937599916905875E+10,      /* J = 24 */
(PID.TID 0000.0001)                 9.121228809161064E+10,      /* J = 25 */
(PID.TID 0000.0001)                 9.282883862289697E+10,      /* J = 26 */
(PID.TID 0000.0001)                 9.422175635109477E+10,      /* J = 27 */
(PID.TID 0000.0001)                 9.538768561539165E+10,      /* J = 28 */
(PID.TID 0000.0001)                 9.632381759006653E+10,      /* J = 29 */
(PID.TID 0000.0001)                 9.702789705119699E+10,      /* J = 30 */
(PID.TID 0000.0001)                 9.749822780969106E+10,      /* J = 31 */
(PID.TID 0000.0001)     2 @  9.773367679755542E+10,             /* J = 32: 33 */
(PID.TID 0000.0001)                 9.749822780969106E+10,      /* J = 34 */
(PID.TID 0000.0001)                 9.702789705119699E+10,      /* J = 35 */
(PID.TID 0000.0001)                 9.632381759006653E+10,      /* J = 36 */
(PID.TID 0000.0001)                 9.538768561539165E+10,      /* J = 37 */
(PID.TID 0000.0001)                 9.422175635109477E+10,      /* J = 38 */
(PID.TID 0000.0001)                 9.282883862289697E+10,      /* J = 39 */
(PID.TID 0000.0001)                 9.121228809161064E+10,      /* J = 40 */
(PID.TID 0000.0001)                 8.937599916905875E+10,      /* J = 41 */
(PID.TID 0000.0001)                 8.732439563609564E+10,      /* J = 42 */
(PID.TID 0000.0001)                 8.506241998533157E+10,      /* J = 43 */
(PID.TID 0000.0001)                 8.259552151423453E+10,      /* J = 44 */
(PID.TID 0000.0001)                 7.992964319729680E+10,      /* J = 45 */
(PID.TID 0000.0001)                 7.707120736888654E+10,      /* J = 46 */
(PID.TID 0000.0001)                 7.402710025128450E+10,      /* J = 47 */
(PID.TID 0000.0001)                 7.080465536516859E+10,      /* J = 48 */
(PID.TID 0000.0001)                 6.741163586252296E+10,      /* J = 49 */
(PID.TID 0000.0001)                 6.385621582452226E+10,      /* J = 50 */
(PID.TID 0000.0001)                 6.014696056945666E+10,      /* J = 51 */
(PID.TID 0000.0001)                 5.629280601812742E+10,      /* J = 52 */
(PID.TID 0000.0001)                 5.230303716643329E+10,      /* J = 53 */
(PID.TID 0000.0001)                 4.818726571700011E+10,      /* J = 54 */
(PID.TID 0000.0001)                 4.395540692374849E+10,      /* J = 55 */
(PID.TID 0000.0001)                 3.961765570517902E+10,      /* J = 56 */
(PID.TID 0000.0001)                 3.518446208391876E+10,      /* J = 57 */
(PID.TID 0000.0001)                 3.066650601170344E+10,      /* J = 58 */
(PID.TID 0000.0001)                 2.607467164043713E+10,      /* J = 59 */
(PID.TID 0000.0001)                 2.142002110131774E+10,      /* J = 60 */
(PID.TID 0000.0001)                 1.671376785519289E+10,      /* J = 61 */
(PID.TID 0000.0001)                 1.196724967835172E+10,      /* J = 62 */
(PID.TID 0000.0001)                 7.191901348828095E+09,      /* J = 63 */
(PID.TID 0000.0001)                 2.399227099019054E+09       /* J = 64 */
(PID.TID 0000.0001)     ;
(PID.TID 0000.0001) rAs =  /* rAs(:,1,:,1) ( m - cartesian, degrees - spherical ) */
(PID.TID 0000.0001)                 0.000000000000000E+00       /* I =  1 */
(PID.TID 0000.0001)     ;
(PID.TID 0000.0001) rAs =  /* rAs(1,:,1,:) ( m - cartesian, degrees - spherical ) */
(PID.TID 0000.0001)                 0.000000000000000E+00,      /* J =  1 */
(PID.TID 0000.0001)                 4.797008993346521E+09,      /* J =  2 */
(PID.TID 0000.0001)                 9.582461571859713E+09,      /* J =  3 */
(PID.TID 0000.0001)                 1.434482916112171E+10,      /* J =  4 */
(PID.TID 0000.0001)                 1.907263880047606E+10,      /* J =  5 */
(PID.TID 0000.0001)                 2.375450078239415E+10,      /* J =  6 */
(PID.TID 0000.0001)                 2.837913609127892E+10,      /* J =  7 */
(PID.TID 0000.0001)                 3.293540357560105E+10,      /* J =  8 */
(PID.TID 0000.0001)                 3.741232678790874E+10,      /* J =  9 */
(PID.TID 0000.0001)                 4.179912042805189E+10,      /* J = 10 */
(PID.TID 0000.0001)                 4.608521632591315E+10,      /* J = 11 */
(PID.TID 0000.0001)                 5.026028890105708E+10,      /* J = 12 */
(PID.TID 0000.0001)                 5.431428003795686E+10,      /* J = 13 */
(PID.TID 0000.0001)                 5.823742331687625E+10,      /* J = 14 */
(PID.TID 0000.0001)                 6.202026754202961E+10,      /* J = 15 */
(PID.TID 0000.0001)                 6.565369951034008E+10,      /* J = 16 */
(PID.TID 0000.0001)                 6.912896596594554E+10,      /* J = 17 */
(PID.TID 0000.0001)                 7.243769468755643E+10,      /* J = 18 */
(PID.TID 0000.0001)                 7.557191465787260E+10,      /* J = 19 */
(PID.TID 0000.0001)                 7.852407526645969E+10,      /* J = 20 */
(PID.TID 0000.0001)                 8.128706449983356E+10,      /* J = 21 */
(PID.TID 0000.0001)                 8.385422607492099E+10,      /* J = 22 */
(PID.TID 0000.0001)                 8.621937547463147E+10,      /* J = 23 */
(PID.TID 0000.0001)                 8.837681484689810E+10,      /* J = 24 */
(PID.TID 0000.0001)                 9.032134673130382E+10,      /* J = 25 */
(PID.TID 0000.0001)                 9.204828658021820E+10,      /* J = 26 */
(PID.TID 0000.0001)                 9.355347404428316E+10,      /* J = 27 */
(PID.TID 0000.0001)                 9.483328299505894E+10,      /* J = 28 */
(PID.TID 0000.0001)                 9.588463026068498E+10,      /* J = 29 */
(PID.TID 0000.0001)                 9.670498305351137E+10,      /* J = 30 */
(PID.TID 0000.0001)                 9.729236507180573E+10,      /* J = 31 */
(PID.TID 0000.0001)                 9.764536126083739E+10,      /* J = 32 */
(PID.TID 0000.0001)                 9.776312122186816E+10,      /* J = 33 */
(PID.TID 0000.0001)                 9.764536126083739E+10,      /* J = 34 */
(PID.TID 0000.0001)                 9.729236507180573E+10,      /* J = 35 */
(PID.TID 0000.0001)                 9.670498305351137E+10,      /* J = 36 */
(PID.TID 0000.0001)                 9.588463026068498E+10,      /* J = 37 */
(PID.TID 0000.0001)                 9.483328299505894E+10,      /* J = 38 */
(PID.TID 0000.0001)                 9.355347404428316E+10,      /* J = 39 */
(PID.TID 0000.0001)                 9.204828658021820E+10,      /* J = 40 */
(PID.TID 0000.0001)                 9.032134673130382E+10,      /* J = 41 */
(PID.TID 0000.0001)                 8.837681484689810E+10,      /* J = 42 */
(PID.TID 0000.0001)                 8.621937547463147E+10,      /* J = 43 */
(PID.TID 0000.0001)                 8.385422607492099E+10,      /* J = 44 */
(PID.TID 0000.0001)                 8.128706449983356E+10,      /* J = 45 */
(PID.TID 0000.0001)                 7.852407526645969E+10,      /* J = 46 */
(PID.TID 0000.0001)                 7.557191465787260E+10,      /* J = 47 */
(PID.TID 0000.0001)                 7.243769468755643E+10,      /* J = 48 */
(PID.TID 0000.0001)                 6.912896596594554E+10,      /* J = 49 */
(PID.TID 0000.0001)                 6.565369951034008E+10,      /* J = 50 */
(PID.TID 0000.0001)                 6.202026754202961E+10,      /* J = 51 */
(PID.TID 0000.0001)                 5.823742331687625E+10,      /* J = 52 */
(PID.TID 0000.0001)                 5.431428003795686E+10,      /* J = 53 */
(PID.TID 0000.0001)                 5.026028890105708E+10,      /* J = 54 */
(PID.TID 0000.0001)                 4.608521632591315E+10,      /* J = 55 */
(PID.TID 0000.0001)                 4.179912042805189E+10,      /* J = 56 */
(PID.TID 0000.0001)                 3.741232678790874E+10,      /* J = 57 */
(PID.TID 0000.0001)                 3.293540357560105E+10,      /* J = 58 */
(PID.TID 0000.0001)                 2.837913609127892E+10,      /* J = 59 */
(PID.TID 0000.0001)                 2.375450078239415E+10,      /* J = 60 */
(PID.TID 0000.0001)                 1.907263880047606E+10,      /* J = 61 */
(PID.TID 0000.0001)                 1.434482916112171E+10,      /* J = 62 */
(PID.TID 0000.0001)                 9.582461571859713E+09,      /* J = 63 */
(PID.TID 0000.0001)                 4.797008993346521E+09       /* J = 64 */
(PID.TID 0000.0001)     ;
(PID.TID 0000.0001) 
(PID.TID 0000.0001) // =======================================================
(PID.TID 0000.0001) // Field Initial Temperature at iteration          1
(PID.TID 0000.0001) // CMIN =          2.550364452389422E+02
(PID.TID 0000.0001) // CMAX =          3.154764877049333E+02
(PID.TID 0000.0001) // CINT =          2.238520091333006E+00
(PID.TID 0000.0001) // SYMBOLS (CMIN->CMAX): -abcdefghijklmnopqrstuvwxyz+
(PID.TID 0000.0001) //                  0.0: .
(PID.TID 0000.0001) // RANGE I (Lo:Hi:Step):(   1:   1:   1)
(PID.TID 0000.0001) // RANGE J (Lo:Hi:Step):(  64:   1:  -1)
(PID.TID 0000.0001) // RANGE K (Lo:Hi:Step):(   1:   1:   1)
(PID.TID 0000.0001) // =======================================================
(PID.TID 0000.0001) K =   1
(PID.TID 0000.0001) 
(PID.TID 0000.0001) |--J--|1
(PID.TID 0000.0001)     64 -
(PID.TID 0000.0001)     63 -
(PID.TID 0000.0001)     62 -
(PID.TID 0000.0001)     61 a
(PID.TID 0000.0001)     60 a
(PID.TID 0000.0001)     59 b
(PID.TID 0000.0001)     58 c
(PID.TID 0000.0001)     57 c
(PID.TID 0000.0001)     56 d
(PID.TID 0000.0001)     55 e
(PID.TID 0000.0001)     54 g
(PID.TID 0000.0001)     53 h
(PID.TID 0000.0001)     52 i
(PID.TID 0000.0001)     51 j
(PID.TID 0000.0001)     50 l
(PID.TID 0000.0001)     49 m
(PID.TID 0000.0001)     48 n
(PID.TID 0000.0001)     47 o
(PID.TID 0000.0001)     46 q
(PID.TID 0000.0001)     45 r
(PID.TID 0000.0001)     44 s
(PID.TID 0000.0001)     43 t
(PID.TID 0000.0001)     42 v
(PID.TID 0000.0001)     41 w
(PID.TID 0000.0001)     40 x
(PID.TID 0000.0001)     39 x
(PID.TID 0000.0001)     38 y
(PID.TID 0000.0001)     37 z
(PID.TID 0000.0001)     36 z
(PID.TID 0000.0001)     35 +
(PID.TID 0000.0001)     34 +
(PID.TID 0000.0001)     33 +
(PID.TID 0000.0001)     32 +
(PID.TID 0000.0001)     31 +
(PID.TID 0000.0001)     30 +
(PID.TID 0000.0001)     29 z
(PID.TID 0000.0001)     28 z
(PID.TID 0000.0001)     27 y
(PID.TID 0000.0001)     26 x
(PID.TID 0000.0001)     25 x
(PID.TID 0000.0001)     24 w
(PID.TID 0000.0001)     23 v
(PID.TID 0000.0001)     22 t
(PID.TID 0000.0001)     21 s
(PID.TID 0000.0001)     20 r
(PID.TID 0000.0001)     19 q
(PID.TID 0000.0001)     18 o
(PID.TID 0000.0001)     17 n
(PID.TID 0000.0001)     16 m
(PID.TID 0000.0001)     15 l
(PID.TID 0000.0001)     14 j
(PID.TID 0000.0001)     13 i
(PID.TID 0000.0001)     12 h
(PID.TID 0000.0001)     11 g
(PID.TID 0000.0001)     10 e
(PID.TID 0000.0001)      9 d
(PID.TID 0000.0001)      8 c
(PID.TID 0000.0001)      7 c
(PID.TID 0000.0001)      6 b
(PID.TID 0000.0001)      5 a
(PID.TID 0000.0001)      4 a
(PID.TID 0000.0001)      3 -
(PID.TID 0000.0001)      2 -
(PID.TID 0000.0001)      1 -
(PID.TID 0000.0001) // =======================================================
(PID.TID 0000.0001) // END OF FIELD                                          =
(PID.TID 0000.0001) // =======================================================
(PID.TID 0000.0001) 
(PID.TID 0000.0001) // =======================================================
(PID.TID 0000.0001) // Field Initial Salinity at iteration          1
(PID.TID 0000.0001) // CMIN =          1.000000000000000E+32
(PID.TID 0000.0001) // CMAX =         -1.000000000000000E+32
(PID.TID 0000.0001) // CINT =          0.000000000000000E+00
(PID.TID 0000.0001) // SYMBOLS (CMIN->CMAX): -abcdefghijklmnopqrstuvwxyz+
(PID.TID 0000.0001) //                  0.0: .
(PID.TID 0000.0001) // RANGE I (Lo:Hi:Step):(   1:   1:   1)
(PID.TID 0000.0001) // RANGE J (Lo:Hi:Step):(  64:   1:  -1)
(PID.TID 0000.0001) // RANGE K (Lo:Hi:Step):(   1:   1:   1)
(PID.TID 0000.0001) // =======================================================
(PID.TID 0000.0001) K =   1
(PID.TID 0000.0001) 
(PID.TID 0000.0001) |--J--|1
(PID.TID 0000.0001)     64 .
(PID.TID 0000.0001)     63 .
(PID.TID 0000.0001)     62 .
(PID.TID 0000.0001)     61 .
(PID.TID 0000.0001)     60 .
(PID.TID 0000.0001)     59 .
(PID.TID 0000.0001)     58 .
(PID.TID 0000.0001)     57 .
(PID.TID 0000.0001)     56 .
(PID.TID 0000.0001)     55 .
(PID.TID 0000.0001)     54 .
(PID.TID 0000.0001)     53 .
(PID.TID 0000.0001)     52 .
(PID.TID 0000.0001)     51 .
(PID.TID 0000.0001)     50 .
(PID.TID 0000.0001)     49 .
(PID.TID 0000.0001)     48 .
(PID.TID 0000.0001)     47 .
(PID.TID 0000.0001)     46 .
(PID.TID 0000.0001)     45 .
(PID.TID 0000.0001)     44 .
(PID.TID 0000.0001)     43 .
(PID.TID 0000.0001)     42 .
(PID.TID 0000.0001)     41 .
(PID.TID 0000.0001)     40 .
(PID.TID 0000.0001)     39 .
(PID.TID 0000.0001)     38 .
(PID.TID 0000.0001)     37 .
(PID.TID 0000.0001)     36 .
(PID.TID 0000.0001)     35 .
(PID.TID 0000.0001)     34 .
(PID.TID 0000.0001)     33 .
(PID.TID 0000.0001)     32 .
(PID.TID 0000.0001)     31 .
(PID.TID 0000.0001)     30 .
(PID.TID 0000.0001)     29 .
(PID.TID 0000.0001)     28 .
(PID.TID 0000.0001)     27 .
(PID.TID 0000.0001)     26 .
(PID.TID 0000.0001)     25 .
(PID.TID 0000.0001)     24 .
(PID.TID 0000.0001)     23 .
(PID.TID 0000.0001)     22 .
(PID.TID 0000.0001)     21 .
(PID.TID 0000.0001)     20 .
(PID.TID 0000.0001)     19 .
(PID.TID 0000.0001)     18 .
(PID.TID 0000.0001)     17 .
(PID.TID 0000.0001)     16 .
(PID.TID 0000.0001)     15 .
(PID.TID 0000.0001)     14 .
(PID.TID 0000.0001)     13 .
(PID.TID 0000.0001)     12 .
(PID.TID 0000.0001)     11 .
(PID.TID 0000.0001)     10 .
(PID.TID 0000.0001)      9 .
(PID.TID 0000.0001)      8 .
(PID.TID 0000.0001)      7 .
(PID.TID 0000.0001)      6 .
(PID.TID 0000.0001)      5 .
(PID.TID 0000.0001)      4 .
(PID.TID 0000.0001)      3 .
(PID.TID 0000.0001)      2 .
(PID.TID 0000.0001)      1 .
(PID.TID 0000.0001) // =======================================================
(PID.TID 0000.0001) // END OF FIELD                                          =
(PID.TID 0000.0001) // =======================================================
(PID.TID 0000.0001) 
(PID.TID 0000.0001) // =======================================================
(PID.TID 0000.0001) // Model current state
(PID.TID 0000.0001) // =======================================================
(PID.TID 0000.0001) 
(PID.TID 0000.0001) // =======================================================
(PID.TID 0000.0001) // Begin MONITOR dynamic field statistics
(PID.TID 0000.0001) // =======================================================
(PID.TID 0000.0001) %MON time_tsnumber                =                     0
(PID.TID 0000.0001) %MON time_secondsf                =   0.0000000000000E+00
(PID.TID 0000.0001) %MON time_secondsi                =                     0
(PID.TID 0000.0001) %MON dynstat_eta_max              =   0.0000000000000E+00
(PID.TID 0000.0001) %MON dynstat_eta_min              =   0.0000000000000E+00
(PID.TID 0000.0001) %MON dynstat_eta_mean             =   0.0000000000000E+00
(PID.TID 0000.0001) %MON dynstat_eta_sd               =   0.0000000000000E+00
(PID.TID 0000.0001) %MON dynstat_uvel_max             =   0.0000000000000E+00
(PID.TID 0000.0001) %MON dynstat_uvel_min             =   0.0000000000000E+00
(PID.TID 0000.0001) %MON dynstat_uvel_mean            =   0.0000000000000E+00
(PID.TID 0000.0001) %MON dynstat_uvel_sd              =   0.0000000000000E+00
(PID.TID 0000.0001) %MON dynstat_vvel_max             =   0.0000000000000E+00
(PID.TID 0000.0001) %MON dynstat_vvel_min             =   0.0000000000000E+00
(PID.TID 0000.0001) %MON dynstat_vvel_mean            =   0.0000000000000E+00
(PID.TID 0000.0001) %MON dynstat_vvel_sd              =   0.0000000000000E+00
(PID.TID 0000.0001) %MON dynstat_wvel_max             =   0.0000000000000E+00
(PID.TID 0000.0001) %MON dynstat_wvel_min             =   0.0000000000000E+00
(PID.TID 0000.0001) %MON dynstat_wvel_mean            =   0.0000000000000E+00
(PID.TID 0000.0001) %MON dynstat_wvel_sd              =   0.0000000000000E+00
(PID.TID 0000.0001) %MON dynstat_theta_max            =   4.1921910192279E+02
(PID.TID 0000.0001) %MON dynstat_theta_min            =   2.5503644523894E+02
(PID.TID 0000.0001) %MON dynstat_theta_mean           =   3.1712985633684E+02
(PID.TID 0000.0001) %MON dynstat_theta_sd             =   5.4732600417989E+01
(PID.TID 0000.0001) %MON dynstat_salt_max             =   0.0000000000000E+00
(PID.TID 0000.0001) %MON dynstat_salt_min             =   0.0000000000000E+00
(PID.TID 0000.0001) %MON dynstat_salt_mean            =   0.0000000000000E+00
(PID.TID 0000.0001) %MON dynstat_salt_sd              =   0.0000000000000E+00
(PID.TID 0000.0001) %MON advcfl_uvel_max              =   0.0000000000000E+00
(PID.TID 0000.0001) %MON advcfl_vvel_max              =   0.0000000000000E+00
(PID.TID 0000.0001) %MON advcfl_wvel_max              =   0.0000000000000E+00
(PID.TID 0000.0001) %MON advcfl_W_hf_max              =   0.0000000000000E+00
(PID.TID 0000.0001) %MON ke_max                       =   0.0000000000000E+00
(PID.TID 0000.0001) %MON ke_mean                      =   0.0000000000000E+00
(PID.TID 0000.0001) // =======================================================
(PID.TID 0000.0001) // End MONITOR dynamic field statistics
(PID.TID 0000.0001) // =======================================================
 cg2d: Sum(rhs),rhsMax =  -9.26342336171615E-16  2.88737728247810E+00
(PID.TID 0000.0001)                    cg2d_init_res =    2.65379766255613E+00
(PID.TID 0000.0001)                       cg2d_iters =    32
(PID.TID 0000.0001)                         cg2d_res =    3.95780767667115E-15
(PID.TID 0000.0001) // =======================================================
(PID.TID 0000.0001) // Begin MONITOR dynamic field statistics
(PID.TID 0000.0001) // =======================================================
(PID.TID 0000.0001) %MON time_tsnumber                =                     1
(PID.TID 0000.0001) %MON time_secondsf                =   1.2000000000000E+03
(PID.TID 0000.0001) %MON time_secondsi                =                  1200
(PID.TID 0000.0001) %MON dynstat_eta_max              =   1.4335929317076E+02
(PID.TID 0000.0001) %MON dynstat_eta_min              =  -9.2440655437749E+01
(PID.TID 0000.0001) %MON dynstat_eta_mean             =   3.7369786873865E+01
(PID.TID 0000.0001) %MON dynstat_eta_sd               =   8.3545710485935E+01
(PID.TID 0000.0001) %MON dynstat_uvel_max             =   0.0000000000000E+00
(PID.TID 0000.0001) %MON dynstat_uvel_min             =   0.0000000000000E+00
(PID.TID 0000.0001) %MON dynstat_uvel_mean            =   0.0000000000000E+00
(PID.TID 0000.0001) %MON dynstat_uvel_sd              =   0.0000000000000E+00
(PID.TID 0000.0001) %MON dynstat_vvel_max             =   5.2726909686249E+00
(PID.TID 0000.0001) %MON dynstat_vvel_min             =  -5.2726909686249E+00
(PID.TID 0000.0001) %MON dynstat_vvel_mean            =  -3.4022963657868E-18
(PID.TID 0000.0001) %MON dynstat_vvel_sd              =   1.8937678908550E+00
(PID.TID 0000.0001) %MON dynstat_wvel_max             =   0.0000000000000E+00
(PID.TID 0000.0001) %MON dynstat_wvel_min             =   0.0000000000000E+00
(PID.TID 0000.0001) %MON dynstat_wvel_mean            =   0.0000000000000E+00
(PID.TID 0000.0001) %MON dynstat_wvel_sd              =   0.0000000000000E+00
(PID.TID 0000.0001) %MON dynstat_theta_max            =   4.1921910192279E+02
(PID.TID 0000.0001) %MON dynstat_theta_min            =   2.5503644523996E+02
(PID.TID 0000.0001) %MON dynstat_theta_mean           =   3.1712985633684E+02
(PID.TID 0000.0001) %MON dynstat_theta_sd             =   5.4732579342453E+01
(PID.TID 0000.0001) %MON dynstat_salt_max             =   0.0000000000000E+00
(PID.TID 0000.0001) %MON dynstat_salt_min             =   0.0000000000000E+00
(PID.TID 0000.0001) %MON dynstat_salt_mean            =   0.0000000000000E+00
(PID.TID 0000.0001) %MON dynstat_salt_sd              =   0.0000000000000E+00
(PID.TID 0000.0001) %MON advcfl_uvel_max              =   0.0000000000000E+00
(PID.TID 0000.0001) %MON advcfl_vvel_max              =   2.0235047731505E-02
(PID.TID 0000.0001) %MON advcfl_wvel_max              =   0.0000000000000E+00
(PID.TID 0000.0001) %MON advcfl_W_hf_max              =   0.0000000000000E+00
(PID.TID 0000.0001) %MON ke_max                       =   1.3043966003825E+01
(PID.TID 0000.0001) %MON ke_mean                      =   1.7371415868349E+00
(PID.TID 0000.0001) // =======================================================
(PID.TID 0000.0001) // End MONITOR dynamic field statistics
(PID.TID 0000.0001) // =======================================================
 cg2d: Sum(rhs),rhsMax =   1.03389519168218E-15  4.63753259802121E+00
(PID.TID 0000.0001)                    cg2d_init_res =    2.91679399085743E+00
(PID.TID 0000.0001)                       cg2d_iters =    32
(PID.TID 0000.0001)                         cg2d_res =    3.84508193660191E-15
(PID.TID 0000.0001) // =======================================================
(PID.TID 0000.0001) // Begin MONITOR dynamic field statistics
(PID.TID 0000.0001) // =======================================================
(PID.TID 0000.0001) %MON time_tsnumber                =                     2
(PID.TID 0000.0001) %MON time_secondsf                =   2.4000000000000E+03
(PID.TID 0000.0001) %MON time_secondsi                =                  2400
(PID.TID 0000.0001) %MON dynstat_eta_max              =   4.2419773231213E+02
(PID.TID 0000.0001) %MON dynstat_eta_min              =  -2.7263903123679E+02
(PID.TID 0000.0001) %MON dynstat_eta_mean             =   1.1064693294890E+02
(PID.TID 0000.0001) %MON dynstat_eta_sd               =   2.4531906593802E+02
(PID.TID 0000.0001) %MON dynstat_uvel_max             =   8.7088691845576E-01
(PID.TID 0000.0001) %MON dynstat_uvel_min             =   3.8323448846782E-05
(PID.TID 0000.0001) %MON dynstat_uvel_mean            =   2.3838254275941E-01
(PID.TID 0000.0001) %MON dynstat_uvel_sd              =   2.3816880359518E-01
(PID.TID 0000.0001) %MON dynstat_vvel_max             =   1.0143545913749E+01
(PID.TID 0000.0001) %MON dynstat_vvel_min             =  -1.0143545913749E+01
(PID.TID 0000.0001) %MON dynstat_vvel_mean            =   1.3286862649546E-16
(PID.TID 0000.0001) %MON dynstat_vvel_sd              =   3.7263903848533E+00
(PID.TID 0000.0001) %MON dynstat_wvel_max             =   1.1946607741162E-01
(PID.TID 0000.0001) %MON dynstat_wvel_min             =  -7.7033880492040E-02
(PID.TID 0000.0001) %MON dynstat_wvel_mean            =   2.3179843085495E-02
(PID.TID 0000.0001) %MON dynstat_wvel_sd              =   5.7841075175207E-02
(PID.TID 0000.0001) %MON dynstat_theta_max            =   4.1975336125625E+02
(PID.TID 0000.0001) %MON dynstat_theta_min            =   2.5503648126269E+02
(PID.TID 0000.0001) %MON dynstat_theta_mean           =   3.1717622461265E+02
(PID.TID 0000.0001) %MON dynstat_theta_sd             =   5.4740423957225E+01
(PID.TID 0000.0001) %MON dynstat_salt_max             =   0.0000000000000E+00
(PID.TID 0000.0001) %MON dynstat_salt_min             =   0.0000000000000E+00
(PID.TID 0000.0001) %MON dynstat_salt_mean            =   0.0000000000000E+00
(PID.TID 0000.0001) %MON dynstat_salt_sd              =   0.0000000000000E+00
(PID.TID 0000.0001) %MON advcfl_uvel_max              =   6.7724361952174E-03
(PID.TID 0000.0001) %MON advcfl_vvel_max              =   3.8927966185159E-02
(PID.TID 0000.0001) %MON advcfl_wvel_max              =   2.8671858578790E-02
(PID.TID 0000.0001) %MON advcfl_W_hf_max              =   2.8482436520621E-02
(PID.TID 0000.0001) %MON ke_max                       =   4.9962731835181E+01
(PID.TID 0000.0001) %MON ke_mean                      =   6.7827994376950E+00
(PID.TID 0000.0001) // =======================================================
(PID.TID 0000.0001) // End MONITOR dynamic field statistics
(PID.TID 0000.0001) // =======================================================
 cg2d: Sum(rhs),rhsMax =  -1.02001740387436E-15  9.07245259701144E+00
(PID.TID 0000.0001)                    cg2d_init_res =    2.11128159164183E+00
(PID.TID 0000.0001)                       cg2d_iters =    32
(PID.TID 0000.0001)                         cg2d_res =    2.16333858151783E-16
(PID.TID 0000.0001) // =======================================================
(PID.TID 0000.0001) // Begin MONITOR dynamic field statistics
(PID.TID 0000.0001) // =======================================================
(PID.TID 0000.0001) %MON time_tsnumber                =                     3
(PID.TID 0000.0001) %MON time_secondsf                =   3.6000000000000E+03
(PID.TID 0000.0001) %MON time_secondsi                =                  3600
(PID.TID 0000.0001) %MON dynstat_eta_max              =   8.2398522004328E+02
(PID.TID 0000.0001) %MON dynstat_eta_min              =  -5.3325715142515E+02
(PID.TID 0000.0001) %MON dynstat_eta_mean             =   2.1577843199644E+02
(PID.TID 0000.0001) %MON dynstat_eta_sd               =   4.7705451864697E+02
(PID.TID 0000.0001) %MON dynstat_uvel_max             =   2.2144341895255E+00
(PID.TID 0000.0001) %MON dynstat_uvel_min             =  -1.6468941407109E-02
(PID.TID 0000.0001) %MON dynstat_uvel_mean            =   6.1656764824230E-01
(PID.TID 0000.0001) %MON dynstat_uvel_sd              =   6.2217794275556E-01
(PID.TID 0000.0001) %MON dynstat_vvel_max             =   1.4425898114582E+01
(PID.TID 0000.0001) %MON dynstat_vvel_min             =  -1.4425898114582E+01
(PID.TID 0000.0001) %MON dynstat_vvel_mean            =   1.7512872872313E-16
(PID.TID 0000.0001) %MON dynstat_vvel_sd              =   5.4127959278376E+00
(PID.TID 0000.0001) %MON dynstat_wvel_max             =   2.3403050501741E-01
(PID.TID 0000.0001) %MON dynstat_wvel_min             =  -1.5016531728558E-01
(PID.TID 0000.0001) %MON dynstat_wvel_mean            =   4.5594749112718E-02
(PID.TID 0000.0001) %MON dynstat_wvel_sd              =   1.1184143286285E-01
(PID.TID 0000.0001) %MON dynstat_theta_max            =   4.2034705716798E+02
(PID.TID 0000.0001) %MON dynstat_theta_min            =   2.5503652877536E+02
(PID.TID 0000.0001) %MON dynstat_theta_mean           =   3.1724996755094E+02
(PID.TID 0000.0001) %MON dynstat_theta_sd             =   5.4753023172107E+01
(PID.TID 0000.0001) %MON dynstat_salt_max             =   0.0000000000000E+00
(PID.TID 0000.0001) %MON dynstat_salt_min             =   0.0000000000000E+00
(PID.TID 0000.0001) %MON dynstat_salt_mean            =   0.0000000000000E+00
(PID.TID 0000.0001) %MON dynstat_salt_sd              =   0.0000000000000E+00
(PID.TID 0000.0001) %MON advcfl_uvel_max              =   1.7854815305639E-02
(PID.TID 0000.0001) %MON advcfl_vvel_max              =   5.5362383013795E-02
(PID.TID 0000.0001) %MON advcfl_wvel_max              =   5.6167321204178E-02
(PID.TID 0000.0001) %MON advcfl_W_hf_max              =   5.5901775205569E-02
(PID.TID 0000.0001) %MON ke_max                       =   1.0474006020356E+02
(PID.TID 0000.0001) %MON ke_mean                      =   1.4575023535669E+01
(PID.TID 0000.0001) // =======================================================
(PID.TID 0000.0001) // End MONITOR dynamic field statistics
(PID.TID 0000.0001) // =======================================================
 cg2d: Sum(rhs),rhsMax =   3.19883008970123E-15  1.47152299352825E+01
(PID.TID 0000.0001)                    cg2d_init_res =    1.63488436042067E+00
(PID.TID 0000.0001)                       cg2d_iters =    32
(PID.TID 0000.0001)                         cg2d_res =    2.50431250302438E-16
(PID.TID 0000.0001) // =======================================================
(PID.TID 0000.0001) // Begin MONITOR dynamic field statistics
(PID.TID 0000.0001) // =======================================================
(PID.TID 0000.0001) %MON time_tsnumber                =                     4
(PID.TID 0000.0001) %MON time_secondsf                =   4.8000000000000E+03
(PID.TID 0000.0001) %MON time_secondsi                =                  4800
(PID.TID 0000.0001) %MON dynstat_eta_max              =   1.3203694456149E+03
(PID.TID 0000.0001) %MON dynstat_eta_min              =  -8.6459192318334E+02
(PID.TID 0000.0001) %MON dynstat_eta_mean             =   3.4784405816172E+02
(PID.TID 0000.0001) %MON dynstat_eta_sd               =   7.6842763225725E+02
(PID.TID 0000.0001) %MON dynstat_uvel_max             =   3.9774533757096E+00
(PID.TID 0000.0001) %MON dynstat_uvel_min             =  -7.0530437447688E-02
(PID.TID 0000.0001) %MON dynstat_uvel_mean            =   1.1153195843114E+00
(PID.TID 0000.0001) %MON dynstat_uvel_sd              =   1.1388852570379E+00
(PID.TID 0000.0001) %MON dynstat_vvel_max             =   1.8137761543063E+01
(PID.TID 0000.0001) %MON dynstat_vvel_min             =  -1.8137761543063E+01
(PID.TID 0000.0001) %MON dynstat_vvel_mean            =   2.5069552168955E-17
(PID.TID 0000.0001) %MON dynstat_vvel_sd              =   6.9192439044386E+00
(PID.TID 0000.0001) %MON dynstat_wvel_max             =   3.3315344600096E-01
(PID.TID 0000.0001) %MON dynstat_wvel_min             =  -2.1729659958830E-01
(PID.TID 0000.0001) %MON dynstat_wvel_mean            =   6.5678064562305E-02
(PID.TID 0000.0001) %MON dynstat_wvel_sd              =   1.6025105999898E-01
(PID.TID 0000.0001) %MON dynstat_theta_max            =   4.2098414368952E+02
(PID.TID 0000.0001) %MON dynstat_theta_min            =   2.5503659984181E+02
(PID.TID 0000.0001) %MON dynstat_theta_mean           =   3.1734722367736E+02
(PID.TID 0000.0001) %MON dynstat_theta_sd             =   5.4769779426384E+01
(PID.TID 0000.0001) %MON dynstat_salt_max             =   0.0000000000000E+00
(PID.TID 0000.0001) %MON dynstat_salt_min             =   0.0000000000000E+00
(PID.TID 0000.0001) %MON dynstat_salt_mean            =   0.0000000000000E+00
(PID.TID 0000.0001) %MON dynstat_salt_sd              =   0.0000000000000E+00
(PID.TID 0000.0001) %MON advcfl_uvel_max              =   3.2741432083867E-02
(PID.TID 0000.0001) %MON advcfl_vvel_max              =   6.9607430579656E-02
(PID.TID 0000.0001) %MON advcfl_wvel_max              =   7.9956827040230E-02
(PID.TID 0000.0001) %MON advcfl_W_hf_max              =   7.9771408234835E-02
(PID.TID 0000.0001) %MON ke_max                       =   1.7176038882401E+02
(PID.TID 0000.0001) %MON ke_mean                      =   2.4460405303212E+01
(PID.TID 0000.0001) // =======================================================
(PID.TID 0000.0001) // End MONITOR dynamic field statistics
(PID.TID 0000.0001) // =======================================================
 cg2d: Sum(rhs),rhsMax =   4.02455846426619E-15  2.13672015574797E+01
(PID.TID 0000.0001)                    cg2d_init_res =    1.31157324914827E+00
(PID.TID 0000.0001)                       cg2d_iters =    32
(PID.TID 0000.0001)                         cg2d_res =    2.81945870831325E-16
(PID.TID 0000.0001) // =======================================================
(PID.TID 0000.0001) // Begin MONITOR dynamic field statistics
(PID.TID 0000.0001) // =======================================================
(PID.TID 0000.0001) %MON time_tsnumber                =                     5
(PID.TID 0000.0001) %MON time_secondsf                =   6.0000000000000E+03
(PID.TID 0000.0001) %MON time_secondsi                =                  6000
(PID.TID 0000.0001) %MON dynstat_eta_max              =   1.8874790987661E+03
(PID.TID 0000.0001) %MON dynstat_eta_min              =  -1.2547100021273E+03
(PID.TID 0000.0001) %MON dynstat_eta_mean             =   5.0106826378382E+02
(PID.TID 0000.0001) %MON dynstat_eta_sd               =   1.1073260514552E+03
(PID.TID 0000.0001) %MON dynstat_uvel_max             =   6.1056206618486E+00
(PID.TID 0000.0001) %MON dynstat_uvel_min             =  -1.8203978097168E-01
(PID.TID 0000.0001) %MON dynstat_uvel_mean            =   1.7152830665548E+00
(PID.TID 0000.0001) %MON dynstat_uvel_sd              =   1.7758992777049E+00
(PID.TID 0000.0001) %MON dynstat_vvel_max             =   2.1502489659965E+01
(PID.TID 0000.0001) %MON dynstat_vvel_min             =  -2.1502489659965E+01
(PID.TID 0000.0001) %MON dynstat_vvel_mean            =  -2.3565379038818E-16
(PID.TID 0000.0001) %MON dynstat_vvel_sd              =   8.2117593999624E+00
(PID.TID 0000.0001) %MON dynstat_wvel_max             =   4.1393708166861E-01
(PID.TID 0000.0001) %MON dynstat_wvel_min             =  -2.7737967084315E-01
(PID.TID 0000.0001) %MON dynstat_wvel_mean            =   8.2915958077685E-02
(PID.TID 0000.0001) %MON dynstat_wvel_sd              =   2.0210523693143E-01
(PID.TID 0000.0001) %MON dynstat_theta_max            =   4.2162341990656E+02
(PID.TID 0000.0001) %MON dynstat_theta_min            =   2.5503675341597E+02
(PID.TID 0000.0001) %MON dynstat_theta_mean           =   3.1746418102516E+02
(PID.TID 0000.0001) %MON dynstat_theta_sd             =   5.4790137276800E+01
(PID.TID 0000.0001) %MON dynstat_salt_max             =   0.0000000000000E+00
(PID.TID 0000.0001) %MON dynstat_salt_min             =   0.0000000000000E+00
(PID.TID 0000.0001) %MON dynstat_salt_mean            =   0.0000000000000E+00
(PID.TID 0000.0001) %MON dynstat_salt_sd              =   0.0000000000000E+00
(PID.TID 0000.0001) %MON advcfl_uvel_max              =   5.0949194505352E-02
(PID.TID 0000.0001) %MON advcfl_vvel_max              =   8.2520274221391E-02
(PID.TID 0000.0001) %MON advcfl_wvel_max              =   9.9276552690559E-02
(PID.TID 0000.0001) %MON advcfl_W_hf_max              =   9.9344899600467E-02
(PID.TID 0000.0001) %MON ke_max                       =   2.4563164784808E+02
(PID.TID 0000.0001) %MON ke_mean                      =   3.5710862835997E+01
(PID.TID 0000.0001) // =======================================================
(PID.TID 0000.0001) // End MONITOR dynamic field statistics
(PID.TID 0000.0001) // =======================================================
 cg2d: Sum(rhs),rhsMax =  -2.12330153459561E-15  2.87951388466934E+01
(PID.TID 0000.0001)                    cg2d_init_res =    1.07457442695681E+00
(PID.TID 0000.0001)                       cg2d_iters =    32
(PID.TID 0000.0001)                         cg2d_res =    1.44939346772760E-16
(PID.TID 0000.0001) // =======================================================
(PID.TID 0000.0001) // Begin MONITOR dynamic field statistics
(PID.TID 0000.0001) // =======================================================
(PID.TID 0000.0001) %MON time_tsnumber                =                     6
(PID.TID 0000.0001) %MON time_secondsf                =   7.2000000000000E+03
(PID.TID 0000.0001) %MON time_secondsi                =                  7200
(PID.TID 0000.0001) %MON dynstat_eta_max              =   2.4976764838434E+03
(PID.TID 0000.0001) %MON dynstat_eta_min              =  -1.6896226594442E+03
(PID.TID 0000.0001) %MON dynstat_eta_mean             =   6.6908516273428E+02
(PID.TID 0000.0001) %MON dynstat_eta_sd               =   1.4802897903406E+03
(PID.TID 0000.0001) %MON dynstat_uvel_max             =   8.5362191915948E+00
(PID.TID 0000.0001) %MON dynstat_uvel_min             =  -3.6153436443094E-01
(PID.TID 0000.0001) %MON dynstat_uvel_mean            =   2.3935607808944E+00
(PID.TID 0000.0001) %MON dynstat_uvel_sd              =   2.5176565436219E+00
(PID.TID 0000.0001) %MON dynstat_vvel_max             =   2.4250644414811E+01
(PID.TID 0000.0001) %MON dynstat_vvel_min             =  -2.4250644414811E+01
(PID.TID 0000.0001) %MON dynstat_vvel_mean            =   4.7228535015800E-17
(PID.TID 0000.0001) %MON dynstat_vvel_sd              =   9.1907512806310E+00
(PID.TID 0000.0001) %MON dynstat_wvel_max             =   4.7464449318333E-01
(PID.TID 0000.0001) %MON dynstat_wvel_min             =  -3.2833359117796E-01
(PID.TID 0000.0001) %MON dynstat_wvel_mean            =   9.6786548439259E-02
(PID.TID 0000.0001) %MON dynstat_wvel_sd              =   2.3630356714858E-01
(PID.TID 0000.0001) %MON dynstat_theta_max            =   4.2223866669692E+02
(PID.TID 0000.0001) %MON dynstat_theta_min            =   2.5503709584516E+02
(PID.TID 0000.0001) %MON dynstat_theta_mean           =   3.1759635453176E+02
(PID.TID 0000.0001) %MON dynstat_theta_sd             =   5.4813458607819E+01
(PID.TID 0000.0001) %MON dynstat_salt_max             =   0.0000000000000E+00
(PID.TID 0000.0001) %MON dynstat_salt_min             =   0.0000000000000E+00
(PID.TID 0000.0001) %MON dynstat_salt_mean            =   0.0000000000000E+00
(PID.TID 0000.0001) %MON dynstat_salt_sd              =   0.0000000000000E+00
(PID.TID 0000.0001) %MON advcfl_uvel_max              =   7.1843423403522E-02
(PID.TID 0000.0001) %MON advcfl_vvel_max              =   9.3066889406839E-02
(PID.TID 0000.0001) %MON advcfl_wvel_max              =   1.1342248950098E-01
(PID.TID 0000.0001) %MON advcfl_W_hf_max              =   1.1391467836400E-01
(PID.TID 0000.0001) %MON ke_max                       =   3.2140073919145E+02
(PID.TID 0000.0001) %MON ke_mean                      =   4.7608897228086E+01
(PID.TID 0000.0001) // =======================================================
(PID.TID 0000.0001) // End MONITOR dynamic field statistics
(PID.TID 0000.0001) // =======================================================
 cg2d: Sum(rhs),rhsMax =   2.22044604925031E-16  3.67345082347936E+01
(PID.TID 0000.0001)                    cg2d_init_res =    8.91084410642295E-01
(PID.TID 0000.0001)                       cg2d_iters =    32
(PID.TID 0000.0001)                         cg2d_res =    1.00565158161388E-14
(PID.TID 0000.0001) // =======================================================
(PID.TID 0000.0001) // Begin MONITOR dynamic field statistics
(PID.TID 0000.0001) // =======================================================
(PID.TID 0000.0001) %MON time_tsnumber                =                     7
(PID.TID 0000.0001) %MON time_secondsf                =   8.4000000000000E+03
(PID.TID 0000.0001) %MON time_secondsi                =                  8400
(PID.TID 0000.0001) %MON dynstat_eta_max              =   3.1236806488722E+03
(PID.TID 0000.0001) %MON dynstat_eta_min              =  -2.1535953069193E+03
(PID.TID 0000.0001) %MON dynstat_eta_mean             =   8.4523454683459E+02
(PID.TID 0000.0001) %MON dynstat_eta_sd               =   1.8730482853188E+03
(PID.TID 0000.0001) %MON dynstat_uvel_max             =   1.1201155546505E+01
(PID.TID 0000.0001) %MON dynstat_uvel_min             =  -6.2453417285576E-01
(PID.TID 0000.0001) %MON dynstat_uvel_mean            =   3.1248067189938E+00
(PID.TID 0000.0001) %MON dynstat_uvel_sd              =   3.3460714654646E+00
(PID.TID 0000.0001) %MON dynstat_vvel_max             =   2.6344860889084E+01
(PID.TID 0000.0001) %MON dynstat_vvel_min             =  -2.6344860889084E+01
(PID.TID 0000.0001) %MON dynstat_vvel_mean            =   3.8205770117259E-16
(PID.TID 0000.0001) %MON dynstat_vvel_sd              =   9.9816179743997E+00
(PID.TID 0000.0001) %MON dynstat_wvel_max             =   5.1290262472944E-01
(PID.TID 0000.0001) %MON dynstat_wvel_min             =  -3.6859033416957E-01
(PID.TID 0000.0001) %MON dynstat_wvel_mean            =   1.0691488623739E-01
(PID.TID 0000.0001) %MON dynstat_wvel_sd              =   2.6201082053189E-01
(PID.TID 0000.0001) %MON dynstat_theta_max            =   4.2281690882596E+02
(PID.TID 0000.0001) %MON dynstat_theta_min            =   2.5503775763480E+02
(PID.TID 0000.0001) %MON dynstat_theta_mean           =   3.1773884499469E+02
(PID.TID 0000.0001) %MON dynstat_theta_sd             =   5.4839078697933E+01
(PID.TID 0000.0001) %MON dynstat_salt_max             =   0.0000000000000E+00
(PID.TID 0000.0001) %MON dynstat_salt_min             =   0.0000000000000E+00
(PID.TID 0000.0001) %MON dynstat_salt_mean            =   0.0000000000000E+00
(PID.TID 0000.0001) %MON dynstat_salt_sd              =   0.0000000000000E+00
(PID.TID 0000.0001) %MON advcfl_uvel_max              =   9.4675307004747E-02
(PID.TID 0000.0001) %MON advcfl_vvel_max              =   1.0110388049340E-01
(PID.TID 0000.0001) %MON advcfl_wvel_max              =   1.2204117454601E-01
(PID.TID 0000.0001) %MON advcfl_W_hf_max              =   1.2309662993507E-01
(PID.TID 0000.0001) %MON ke_max                       =   3.9475478287160E+02
(PID.TID 0000.0001) %MON ke_mean                      =   5.9518273886628E+01
(PID.TID 0000.0001) // =======================================================
(PID.TID 0000.0001) // End MONITOR dynamic field statistics
(PID.TID 0000.0001) // =======================================================
 cg2d: Sum(rhs),rhsMax =  -1.07552855510562E-15  4.48969547727443E+01
(PID.TID 0000.0001)                    cg2d_init_res =    7.43059651043549E-01
(PID.TID 0000.0001)                       cg2d_iters =    33
(PID.TID 0000.0001)                         cg2d_res =    6.51784644872084E-16
(PID.TID 0000.0001) // =======================================================
(PID.TID 0000.0001) // Begin MONITOR dynamic field statistics
(PID.TID 0000.0001) // =======================================================
(PID.TID 0000.0001) %MON time_tsnumber                =                     8
(PID.TID 0000.0001) %MON time_secondsf                =   9.6000000000000E+03
(PID.TID 0000.0001) %MON time_secondsi                =                  9600
(PID.TID 0000.0001) %MON dynstat_eta_max              =   3.7405103639036E+03
(PID.TID 0000.0001) %MON dynstat_eta_min              =  -2.6296964569102E+03
(PID.TID 0000.0001) %MON dynstat_eta_mean             =   1.0228329001654E+03
(PID.TID 0000.0001) %MON dynstat_eta_sd               =   2.2710401006812E+03
(PID.TID 0000.0001) %MON dynstat_uvel_max             =   1.4029292726199E+01
(PID.TID 0000.0001) %MON dynstat_uvel_min             =  -9.8677418131710E-01
(PID.TID 0000.0001) %MON dynstat_uvel_mean            =   3.8820509738787E+00
(PID.TID 0000.0001) %MON dynstat_uvel_sd              =   4.2409900301903E+00
(PID.TID 0000.0001) %MON dynstat_vvel_max             =   2.7764703427398E+01
(PID.TID 0000.0001) %MON dynstat_vvel_min             =  -2.7764703427398E+01
(PID.TID 0000.0001) %MON dynstat_vvel_mean            =   3.0381341181806E-16
(PID.TID 0000.0001) %MON dynstat_vvel_sd              =   1.0514011038373E+01
(PID.TID 0000.0001) %MON dynstat_wvel_max             =   5.2876544186066E-01
(PID.TID 0000.0001) %MON dynstat_wvel_min             =  -3.9682311410648E-01
(PID.TID 0000.0001) %MON dynstat_wvel_mean            =   1.1309415971170E-01
(PID.TID 0000.0001) %MON dynstat_wvel_sd              =   2.7872170390154E-01
(PID.TID 0000.0001) %MON dynstat_theta_max            =   4.2352592789478E+02
(PID.TID 0000.0001) %MON dynstat_theta_min            =   2.5503885209508E+02
(PID.TID 0000.0001) %MON dynstat_theta_mean           =   3.1788654234665E+02
(PID.TID 0000.0001) %MON dynstat_theta_sd             =   5.4866349894643E+01
(PID.TID 0000.0001) %MON dynstat_salt_max             =   0.0000000000000E+00
(PID.TID 0000.0001) %MON dynstat_salt_min             =   0.0000000000000E+00
(PID.TID 0000.0001) %MON dynstat_salt_mean            =   0.0000000000000E+00
(PID.TID 0000.0001) %MON dynstat_salt_sd              =   0.0000000000000E+00
(PID.TID 0000.0001) %MON advcfl_uvel_max              =   1.1862357500894E-01
(PID.TID 0000.0001) %MON advcfl_vvel_max              =   1.0655282140516E-01
(PID.TID 0000.0001) %MON advcfl_wvel_max              =   1.2520376211989E-01
(PID.TID 0000.0001) %MON advcfl_W_hf_max              =   1.2690370604656E-01
(PID.TID 0000.0001) %MON ke_max                       =   4.6222163373352E+02
(PID.TID 0000.0001) %MON ke_mean                      =   7.0936743812849E+01
(PID.TID 0000.0001) // =======================================================
(PID.TID 0000.0001) // End MONITOR dynamic field statistics
(PID.TID 0000.0001) // =======================================================
 cg2d: Sum(rhs),rhsMax =   2.17187379192296E-15  5.29830474080863E+01
(PID.TID 0000.0001)                    cg2d_init_res =    6.19683313981051E-01
(PID.TID 0000.0001)                       cg2d_iters =    32
(PID.TID 0000.0001)                         cg2d_res =    7.49523552330411E-14
(PID.TID 0000.0001) // =======================================================
(PID.TID 0000.0001) // Begin MONITOR dynamic field statistics
(PID.TID 0000.0001) // =======================================================
(PID.TID 0000.0001) %MON time_tsnumber                =                     9
(PID.TID 0000.0001) %MON time_secondsf                =   1.0800000000000E+04
(PID.TID 0000.0001) %MON time_secondsi                =                 10800
(PID.TID 0000.0001) %MON dynstat_eta_max              =   4.3266940993222E+03
(PID.TID 0000.0001) %MON dynstat_eta_min              =  -3.1006045818051E+03
(PID.TID 0000.0001) %MON dynstat_eta_mean             =   1.1953916573006E+03
(PID.TID 0000.0001) %MON dynstat_eta_sd               =   2.6598861643597E+03
(PID.TID 0000.0001) %MON dynstat_uvel_max             =   1.6948488689501E+01
(PID.TID 0000.0001) %MON dynstat_uvel_min             =  -1.4632155992980E+00
(PID.TID 0000.0001) %MON dynstat_uvel_mean            =   4.6375306621130E+00
(PID.TID 0000.0001) %MON dynstat_uvel_sd              =   5.1807763502185E+00
(PID.TID 0000.0001) %MON dynstat_vvel_max             =   2.8657846991405E+01
(PID.TID 0000.0001) %MON dynstat_vvel_min             =  -2.8657846991405E+01
(PID.TID 0000.0001) %MON dynstat_vvel_mean            =   4.2505681514220E-16
(PID.TID 0000.0001) %MON dynstat_vvel_sd              =   1.0794822873769E+01
(PID.TID 0000.0001) %MON dynstat_wvel_max             =   5.2382263884708E-01
(PID.TID 0000.0001) %MON dynstat_wvel_min             =  -4.1212631579180E-01
(PID.TID 0000.0001) %MON dynstat_wvel_mean            =   1.1527486748429E-01
(PID.TID 0000.0001) %MON dynstat_wvel_sd              =   2.8626799338484E-01
(PID.TID 0000.0001) %MON dynstat_theta_max            =   4.2421551052913E+02
(PID.TID 0000.0001) %MON dynstat_theta_min            =   2.5504043396945E+02
(PID.TID 0000.0001) %MON dynstat_theta_mean           =   3.1803431333714E+02
(PID.TID 0000.0001) %MON dynstat_theta_sd             =   5.4894675413319E+01
(PID.TID 0000.0001) %MON dynstat_salt_max             =   0.0000000000000E+00
(PID.TID 0000.0001) %MON dynstat_salt_min             =   0.0000000000000E+00
(PID.TID 0000.0001) %MON dynstat_salt_mean            =   0.0000000000000E+00
(PID.TID 0000.0001) %MON dynstat_salt_sd              =   0.0000000000000E+00
(PID.TID 0000.0001) %MON advcfl_uvel_max              =   1.4284056608112E-01
(PID.TID 0000.0001) %MON advcfl_vvel_max              =   1.0998044550759E-01
(PID.TID 0000.0001) %MON advcfl_wvel_max              =   1.2337016463661E-01
(PID.TID 0000.0001) %MON advcfl_W_hf_max              =   1.2571743332330E-01
(PID.TID 0000.0001) %MON ke_max                       =   5.2131352763582E+02
(PID.TID 0000.0001) %MON ke_mean                      =   8.1527290985189E+01
(PID.TID 0000.0001) // =======================================================
(PID.TID 0000.0001) // End MONITOR dynamic field statistics
(PID.TID 0000.0001) // =======================================================
 cg2d: Sum(rhs),rhsMax =   1.80411241501588E-15  6.06996367502633E+01
(PID.TID 0000.0001)                    cg2d_init_res =    5.13986785696136E-01
(PID.TID 0000.0001)                       cg2d_iters =    33
(PID.TID 0000.0001)                         cg2d_res =    4.19262170562137E-15
(PID.TID 0000.0001) // =======================================================
(PID.TID 0000.0001) // Begin MONITOR dynamic field statistics
(PID.TID 0000.0001) // =======================================================
(PID.TID 0000.0001) %MON time_tsnumber                =                    10
(PID.TID 0000.0001) %MON time_secondsf                =   1.2000000000000E+04
(PID.TID 0000.0001) %MON time_secondsi                =                 12000
(PID.TID 0000.0001) %MON dynstat_eta_max              =   4.8643630870805E+03
(PID.TID 0000.0001) %MON dynstat_eta_min              =  -3.5495790876902E+03
(PID.TID 0000.0001) %MON dynstat_eta_mean             =   1.3567754688932E+03
(PID.TID 0000.0001) %MON dynstat_eta_sd               =   3.0258119752596E+03
(PID.TID 0000.0001) %MON dynstat_uvel_max             =   1.9887397528898E+01
(PID.TID 0000.0001) %MON dynstat_uvel_min             =  -2.0670564694294E+00
(PID.TID 0000.0001) %MON dynstat_uvel_mean            =   5.3635615805830E+00
(PID.TID 0000.0001) %MON dynstat_uvel_sd              =   6.1430730943304E+00
(PID.TID 0000.0001) %MON dynstat_vvel_max             =   2.9043500521627E+01
(PID.TID 0000.0001) %MON dynstat_vvel_min             =  -2.9043500521627E+01
(PID.TID 0000.0001) %MON dynstat_vvel_mean            =   6.8375640246756E-17
(PID.TID 0000.0001) %MON dynstat_vvel_sd              =   1.0843527932807E+01
(PID.TID 0000.0001) %MON dynstat_wvel_max             =   5.0120368148051E-01
(PID.TID 0000.0001) %MON dynstat_wvel_min             =  -4.2593009396011E-01
(PID.TID 0000.0001) %MON dynstat_wvel_mean            =   1.1353856232243E-01
(PID.TID 0000.0001) %MON dynstat_wvel_sd              =   2.8481198341000E-01
(PID.TID 0000.0001) %MON dynstat_theta_max            =   4.2486260011505E+02
(PID.TID 0000.0001) %MON dynstat_theta_min            =   2.5504247330352E+02
(PID.TID 0000.0001) %MON dynstat_theta_mean           =   3.1817716759029E+02
(PID.TID 0000.0001) %MON dynstat_theta_sd             =   5.4923527612805E+01
(PID.TID 0000.0001) %MON dynstat_salt_max             =   0.0000000000000E+00
(PID.TID 0000.0001) %MON dynstat_salt_min             =   0.0000000000000E+00
(PID.TID 0000.0001) %MON dynstat_salt_mean            =   0.0000000000000E+00
(PID.TID 0000.0001) %MON dynstat_salt_sd              =   0.0000000000000E+00
(PID.TID 0000.0001) %MON advcfl_uvel_max              =   1.6649064195698E-01
(PID.TID 0000.0001) %MON advcfl_vvel_max              =   1.1146047110331E-01
(PID.TID 0000.0001) %MON advcfl_wvel_max              =   1.1779532769390E-01
(PID.TID 0000.0001) %MON advcfl_W_hf_max              =   1.2028888355532E-01
(PID.TID 0000.0001) %MON ke_max                       =   5.7059155420705E+02
(PID.TID 0000.0001) %MON ke_mean                      =   9.1125008809421E+01
(PID.TID 0000.0001) // =======================================================
(PID.TID 0000.0001) // End MONITOR dynamic field statistics
(PID.TID 0000.0001) // =======================================================
(PID.TID 0000.0001)   Seconds in section "ALL                [THE_MODEL_MAIN]":
(PID.TID 0000.0001)           User time:  0.860000014
(PID.TID 0000.0001)         System time:  0.109999999
(PID.TID 0000.0001)     Wall clock time:  0.975104094
(PID.TID 0000.0001)          No. starts: 1
(PID.TID 0000.0001)           No. stops: 1
(PID.TID 0000.0001)   Seconds in section "INITIALISE_FIXED   [THE_MODEL_MAIN]":
(PID.TID 0000.0001)           User time:  0.119999997
(PID.TID 0000.0001)         System time:  0.0399999991
(PID.TID 0000.0001)     Wall clock time:  0.167536974
(PID.TID 0000.0001)          No. starts: 1
(PID.TID 0000.0001)           No. stops: 1
(PID.TID 0000.0001)   Seconds in section "THE_MAIN_LOOP      [THE_MODEL_MAIN]":
(PID.TID 0000.0001)           User time:  0.740000017
(PID.TID 0000.0001)         System time:  0.0399999991
(PID.TID 0000.0001)     Wall clock time:  0.776458979
(PID.TID 0000.0001)          No. starts: 1
(PID.TID 0000.0001)           No. stops: 1
(PID.TID 0000.0001)   Seconds in section "INITIALISE_VARIA    [THE_MAIN_LOOP]":
(PID.TID 0000.0001)           User time:  0.00999999791
(PID.TID 0000.0001)         System time:  0.0199999996
(PID.TID 0000.0001)     Wall clock time:  0.0242729187
(PID.TID 0000.0001)          No. starts: 1
(PID.TID 0000.0001)           No. stops: 1
(PID.TID 0000.0001)   Seconds in section "WRITE_STATE         [THE_MAIN_LOOP]":
(PID.TID 0000.0001)           User time:  0.
(PID.TID 0000.0001)         System time:  0.0100000016
(PID.TID 0000.0001)     Wall clock time:  0.0139659643
(PID.TID 0000.0001)          No. starts: 1
(PID.TID 0000.0001)           No. stops: 1
(PID.TID 0000.0001)   Seconds in section "MONITOR             [THE_MAIN_LOOP]":
(PID.TID 0000.0001)           User time:  0.
(PID.TID 0000.0001)         System time:  0.
(PID.TID 0000.0001)     Wall clock time:  0.00331795216
(PID.TID 0000.0001)          No. starts: 1
(PID.TID 0000.0001)           No. stops: 1
(PID.TID 0000.0001)   Seconds in section "MAIN LOOP           [THE_MAIN_LOOP]":
(PID.TID 0000.0001)           User time:  0.730000019
(PID.TID 0000.0001)         System time:  0.00999999791
(PID.TID 0000.0001)     Wall clock time:  0.734529018
(PID.TID 0000.0001)          No. starts: 1
(PID.TID 0000.0001)           No. stops: 1
(PID.TID 0000.0001)   Seconds in section "FORWARD_STEP        [THE_MAIN_LOOP]":
(PID.TID 0000.0001)           User time:  0.730000019
(PID.TID 0000.0001)         System time:  0.00999999791
(PID.TID 0000.0001)     Wall clock time:  0.733738899
(PID.TID 0000.0001)          No. starts: 10
(PID.TID 0000.0001)           No. stops: 10
(PID.TID 0000.0001)   Seconds in section "EXTERNAL_FIELDS_LOAD[THE_MAIN_LOOP]":
(PID.TID 0000.0001)           User time:  0.
(PID.TID 0000.0001)         System time:  0.
(PID.TID 0000.0001)     Wall clock time:  0.000722885132
(PID.TID 0000.0001)          No. starts: 10
(PID.TID 0000.0001)           No. stops: 10
(PID.TID 0000.0001)   Seconds in section "THERMODYNAMICS      [THE_MAIN_LOOP]":
(PID.TID 0000.0001)           User time:  0.160000101
(PID.TID 0000.0001)         System time:  0.
(PID.TID 0000.0001)     Wall clock time:  0.172180891
(PID.TID 0000.0001)          No. starts: 10
(PID.TID 0000.0001)           No. stops: 10
(PID.TID 0000.0001)   Seconds in section "DYNAMICS            [THE_MAIN_LOOP]":
(PID.TID 0000.0001)           User time:  0.249999955
(PID.TID 0000.0001)         System time:  0.
(PID.TID 0000.0001)     Wall clock time:  0.244180918
(PID.TID 0000.0001)          No. starts: 10
(PID.TID 0000.0001)           No. stops: 10
(PID.TID 0000.0001)   Seconds in section "SOLVE_FOR_PRESSURE  [THE_MAIN_LOOP]":
(PID.TID 0000.0001)           User time:  0.0600000024
(PID.TID 0000.0001)         System time:  0.
(PID.TID 0000.0001)     Wall clock time:  0.0520088673
(PID.TID 0000.0001)          No. starts: 10
(PID.TID 0000.0001)           No. stops: 10
(PID.TID 0000.0001)   Seconds in section "THE_CORRECTION_STEP [THE_MAIN_LOOP]":
(PID.TID 0000.0001)           User time:  0.189999923
(PID.TID 0000.0001)         System time:  0.
(PID.TID 0000.0001)     Wall clock time:  0.189038157
(PID.TID 0000.0001)          No. starts: 10
(PID.TID 0000.0001)           No. stops: 10
(PID.TID 0000.0001)   Seconds in section "BLOCKING_EXCHANGES  [THE_MAIN_LOOP]":
(PID.TID 0000.0001)           User time:  0.0199999809
(PID.TID 0000.0001)         System time:  0.
(PID.TID 0000.0001)     Wall clock time:  0.0180777311
(PID.TID 0000.0001)          No. starts: 10
(PID.TID 0000.0001)           No. stops: 10
(PID.TID 0000.0001)   Seconds in section "DO_THE_MODEL_IO     [THE_MAIN_LOOP]":
(PID.TID 0000.0001)           User time:  0.00999999046
(PID.TID 0000.0001)         System time:  0.
(PID.TID 0000.0001)     Wall clock time:  0.0146222115
(PID.TID 0000.0001)          No. starts: 10
(PID.TID 0000.0001)           No. stops: 10
(PID.TID 0000.0001)   Seconds in section "WRITE_CHECKPOINT    [THE_MAIN_LOOP]":
(PID.TID 0000.0001)           User time:  0.
(PID.TID 0000.0001)         System time:  0.
(PID.TID 0000.0001)     Wall clock time:  0.000720024109
(PID.TID 0000.0001)          No. starts: 10
(PID.TID 0000.0001)           No. stops: 10
(PID.TID 0000.0001)   Seconds in section "WRITE_CHECKPOINT   [THE_MODEL_MAIN]":
(PID.TID 0000.0001)           User time:  0.
(PID.TID 0000.0001)         System time:  0.0300000012
(PID.TID 0000.0001)     Wall clock time:  0.0307650566
(PID.TID 0000.0001)          No. starts: 1
(PID.TID 0000.0001)           No. stops: 1
(PID.TID 0000.0001) // ======================================================
(PID.TID 0000.0001) // Tile <-> Tile communication statistics
(PID.TID 0000.0001) // ======================================================
(PID.TID 0000.0001) // o Tile number: 000001
(PID.TID 0000.0001) //         No. X exchanges =              0
(PID.TID 0000.0001) //            Max. X spins =              0
(PID.TID 0000.0001) //            Min. X spins =     1000000000
(PID.TID 0000.0001) //          Total. X spins =              0
(PID.TID 0000.0001) //            Avg. X spins =       0.00E+00
(PID.TID 0000.0001) //         No. Y exchanges =              0
(PID.TID 0000.0001) //            Max. Y spins =              0
(PID.TID 0000.0001) //            Min. Y spins =     1000000000
(PID.TID 0000.0001) //          Total. Y spins =              0
(PID.TID 0000.0001) //            Avg. Y spins =       0.00E+00
(PID.TID 0000.0001) // o Thread number: 000001
(PID.TID 0000.0001) //            No. barriers =           6332
(PID.TID 0000.0001) //      Max. barrier spins =              1
(PID.TID 0000.0001) //      Min. barrier spins =              1
(PID.TID 0000.0001) //     Total barrier spins =           6332
(PID.TID 0000.0001) //      Avg. barrier spins =       1.00E+00
