(PID.TID 0000.0001) 
(PID.TID 0000.0001) // ======================================================
(PID.TID 0000.0001) //                      MITgcm UV
(PID.TID 0000.0001) //                      =========
(PID.TID 0000.0001) // ======================================================
(PID.TID 0000.0001) // execution environment starting up...
(PID.TID 0000.0001) // Run starting Wed Apr  1 14:19:48 1998
(PID.TID 0000.0001) // on melville.lcs.mit.edu
(PID.TID 0000.0001) // account cnh
(PID.TID 0000.0001) // MITgcm UV Release: $Name:  $
(PID.TID 0000.0001) 
(PID.TID 0000.0001) // =======================================================
(PID.TID 0000.0001) // Execution Environment parameter file "eedata"
(PID.TID 0000.0001) // =======================================================
(PID.TID 0000.0001) ># Example "eedata" file
(PID.TID 0000.0001) ># Lines beginning "#" are comments
(PID.TID 0000.0001) ># nTx - No. threads per process in X
(PID.TID 0000.0001) ># nTy - No. threads per process in Y
(PID.TID 0000.0001) > &EEPARMS
(PID.TID 0000.0001) > &
(PID.TID 0000.0001) ># Note: Some systems use & as the
(PID.TID 0000.0001) ># namelist terminator. Other systems
(PID.TID 0000.0001) ># use a / character (as shown here).
(PID.TID 0000.0001) 
(PID.TID 0000.0001) // =======================================================
(PID.TID 0000.0001) // Computational Grid Specification ( see files "SIZE.h" )
(PID.TID 0000.0001) //                                  ( and "eedata"       )
(PID.TID 0000.0001) // =======================================================
(PID.TID 0000.0001)      nPx =    1 ; /* No. processes in X */
(PID.TID 0000.0001)      nPy =    1 ; /* No. processes in Y */
(PID.TID 0000.0001)      nSx =    1 ; /* No. tiles in X per process */
(PID.TID 0000.0001)      nSy =    2 ; /* No. tiles in Y per process */
(PID.TID 0000.0001)      sNx =    1 ; /* Tile size in X */
(PID.TID 0000.0001)      sNy =   32 ; /* Tile size in Y */
(PID.TID 0000.0001)      OLx =    2 ; /* Tile overlap distance in X */
(PID.TID 0000.0001)      OLy =    2 ; /* Tile overlap distance in Y */
(PID.TID 0000.0001)      nTx =    1 ; /* No. threads in X per process */
(PID.TID 0000.0001)      nTy =    1 ; /* No. threads in Y per process */
(PID.TID 0000.0001)       Nr =    5 ; /* No. levels in the vertical   */
(PID.TID 0000.0001)       nX =    1 ; /* Total domain size in X ( = nPx*nSx*sNx ) */
(PID.TID 0000.0001)       nY =   64 ; /* Total domain size in Y ( = nPy*nSy*sNy ) */
(PID.TID 0000.0001)   nTiles =    2 ; /* Total no. tiles per process ( = nSx*nSy ) */
(PID.TID 0000.0001)   nProcs =    1 ; /* Total no. processes ( = nPx*nPy ) */
(PID.TID 0000.0001) nThreads =    1 ; /* Total no. threads per process ( = nTx*nTy ) */
(PID.TID 0000.0001) usingMPI =    F ; /* Flag used to control whether MPI is in use */
(PID.TID 0000.0001)                   /*  note: To execute a program with MPI calls */
(PID.TID 0000.0001)                   /*  it must be launched appropriately e.g     */
(PID.TID 0000.0001)                   /*  "mpirun -np 64 ......"                    */
(PID.TID 0000.0001) useCoupler=   F ; /* Flag used to control communications with */
(PID.TID 0000.0001)                   /*  other model components, through a coupler */
(PID.TID 0000.0001) 
(PID.TID 0000.0001) // ======================================================
(PID.TID 0000.0001) // Mapping of tiles to threads
(PID.TID 0000.0001) // ======================================================
(PID.TID 0000.0001) // -o- Thread   1, tiles (   1:   1,   1:   2)
(PID.TID 0000.0001) 
(PID.TID 0000.0001) // ======================================================
(PID.TID 0000.0001) // Tile <-> Tile connectvity table
(PID.TID 0000.0001) // ======================================================
(PID.TID 0000.0001) // Tile number: 000001 (process no. = 000001)
(PID.TID 0000.0001) //        WEST: Tile = 000001, Process = 000001, Comm = put
(PID.TID 0000.0001) //                bi = 000001, bj = 000001
(PID.TID 0000.0001) //        EAST: Tile = 000001, Process = 000001, Comm = put
(PID.TID 0000.0001) //                bi = 000001, bj = 000001
(PID.TID 0000.0001) //       SOUTH: Tile = 000002, Process = 000001, Comm = put
(PID.TID 0000.0001) //                bi = 000001, bj = 000002
(PID.TID 0000.0001) //       NORTH: Tile = 000002, Process = 000001, Comm = put
(PID.TID 0000.0001) //                bi = 000001, bj = 000002
(PID.TID 0000.0001) // Tile number: 000002 (process no. = 000001)
(PID.TID 0000.0001) //        WEST: Tile = 000002, Process = 000001, Comm = put
(PID.TID 0000.0001) //                bi = 000001, bj = 000002
(PID.TID 0000.0001) //        EAST: Tile = 000002, Process = 000001, Comm = put
(PID.TID 0000.0001) //                bi = 000001, bj = 000002
(PID.TID 0000.0001) //       SOUTH: Tile = 000001, Process = 000001, Comm = put
(PID.TID 0000.0001) //                bi = 000001, bj = 000001
(PID.TID 0000.0001) //       NORTH: Tile = 000001, Process = 000001, Comm = put
(PID.TID 0000.0001) //                bi = 000001, bj = 000001
(PID.TID 0000.0001) 
(PID.TID 0000.0001) // =======================================================
(PID.TID 0000.0001) // Model parameter file "data"
(PID.TID 0000.0001) // =======================================================
(PID.TID 0000.0001) ># ====================
(PID.TID 0000.0001) ># | Model parameters |
(PID.TID 0000.0001) ># ====================
(PID.TID 0000.0001) >#
(PID.TID 0000.0001) ># Continuous equation parameters
(PID.TID 0000.0001) > &PARM01
(PID.TID 0000.0001) > tRef= 281.089, 289.321, 307.191, 331.377, 432.413,
(PID.TID 0000.0001) > tRef=5*0.,
(PID.TID 0000.0001) > sRef=5*0.,
(PID.TID 0000.0001) > viscAr=0.,
(PID.TID 0000.0001) > viscAh=0.,
(PID.TID 0000.0001) > viscA4=0.,
(PID.TID 0000.0001) > no_slip_sides=.FALSE.,
(PID.TID 0000.0001) > no_slip_bottom=.FALSE.,
(PID.TID 0000.0001) > diffKrT=0.,
(PID.TID 0000.0001) > diffKhT=0.,
(PID.TID 0000.0001) > diffK4T=0.,
(PID.TID 0000.0001) > diffKrS=0.,
(PID.TID 0000.0001) > diffKhS=0.,
(PID.TID 0000.0001) > diffK4S=0.,
(PID.TID 0000.0001) > buoyancyRelation='ATMOSPHERIC',
(PID.TID 0000.0001) > eosType='IDEALGAS',
(PID.TID 0000.0001) > gravity=9.81,
(PID.TID 0000.0001) > gBaro=9.81,
(PID.TID 0000.0001) > rhonil=1.0,
(PID.TID 0000.0001) > rhoConst=1.0,
(PID.TID 0000.0001) > rigidLid=.FALSE.,
(PID.TID 0000.0001) > implicitFreeSurface=.TRUE.,
(PID.TID 0000.0001) > nonHydrostatic=.FALSE.,
(PID.TID 0000.0001) > readBinaryPrec=64,
(PID.TID 0000.0001) > writeBinaryPrec=64,
(PID.TID 0000.0001) > globalFiles=.TRUE.,
(PID.TID 0000.0001) > staggerTimestep=.TRUE.,
(PID.TID 0000.0001) > &
(PID.TID 0000.0001) >
(PID.TID 0000.0001) ># Elliptic solver parameters
(PID.TID 0000.0001) > &PARM02
(PID.TID 0000.0001) > cg2dMaxIters=600,
(PID.TID 0000.0001) > cg2dTargetResidual=1.E-13,
(PID.TID 0000.0001) > &
(PID.TID 0000.0001) >
(PID.TID 0000.0001) ># Time stepping parameters
(PID.TID 0000.0001) > &PARM03
(PID.TID 0000.0001) > niter0=0,
(PID.TID 0000.0001) > nTimeSteps=10,
(PID.TID 0000.0001) > abEps=0.1,
(PID.TID 0000.0001) > deltaT=1200.0,
(PID.TID 0000.0001) > cAdjFreq=0.,
(PID.TID 0000.0001) > pChkptFreq=0.0,
(PID.TID 0000.0001) > chkptFreq=0.0,
(PID.TID 0000.0001) > dumpFreq=2592000.0,
(PID.TID 0000.0001) > taveFreq=2592000.,
(PID.TID 0000.0001) > monitorFreq=1.,
(PID.TID 0000.0001) > &
(PID.TID 0000.0001) >
(PID.TID 0000.0001) ># Gridding parameters
(PID.TID 0000.0001) > &PARM04
(PID.TID 0000.0001) > usingCartesianGrid=.FALSE.,
(PID.TID 0000.0001) > usingSphericalPolarGrid=.TRUE.,
(PID.TID 0000.0001) > delX=1*2.8125,
(PID.TID 0000.0001) > delY=64*2.8125,
(PID.TID 0000.0001) > delR=1.E4, 2.5E4, 3.E4, 2.E4, 1.5E4,
(PID.TID 0000.0001) > Ro_SeaLevel=1.E5,
(PID.TID 0000.0001) > groundAtK1=.TRUE.,
(PID.TID 0000.0001) > phiMin=-90.,
(PID.TID 0000.0001) > &
(PID.TID 0000.0001) >
(PID.TID 0000.0001) ># Input datasets
(PID.TID 0000.0001) > &PARM05
(PID.TID 0000.0001) > &
(PID.TID 0000.0001) 
(PID.TID 0000.0001) S/R INI_PARMS ; read PARM01 : OK
(PID.TID 0000.0001) S/R INI_PARMS ; read PARM02 : OK
(PID.TID 0000.0001) S/R INI_PARMS ; read PARM03 : OK
(PID.TID 0000.0001) S/R INI_PARMS ; read PARM04 : OK
(PID.TID 0000.0001) S/R INI_PARMS ; read PARM05 : OK
(PID.TID 0000.0001) %MON XC_max                       =   1.4062500000000E+00
(PID.TID 0000.0001) %MON XC_min                       =   1.4062500000000E+00
(PID.TID 0000.0001) %MON XC_mean                      =   1.4062500000000E+00
(PID.TID 0000.0001) %MON XC_sd                        =   0.0000000000000E+00
(PID.TID 0000.0001) %MON XG_max                       =   0.0000000000000E+00
(PID.TID 0000.0001) %MON XG_min                       =   0.0000000000000E+00
(PID.TID 0000.0001) %MON XG_mean                      =   0.0000000000000E+00
(PID.TID 0000.0001) %MON XG_sd                        =   0.0000000000000E+00
(PID.TID 0000.0001) %MON DXC_max                      =   3.1259246843155E+05
(PID.TID 0000.0001) %MON DXC_min                      =   7.6737143816223E+03
(PID.TID 0000.0001) %MON DXC_mean                     =   1.9908248704234E+05
(PID.TID 0000.0001) %MON DXC_sd                       =   9.6190602240067E+04
(PID.TID 0000.0001) %MON DXF_max                      =   3.1259246843155E+05
(PID.TID 0000.0001) %MON DXF_min                      =   7.6737143816223E+03
(PID.TID 0000.0001) %MON DXF_mean                     =   1.9908248704234E+05
(PID.TID 0000.0001) %MON DXF_sd                       =   9.6190602240067E+04
(PID.TID 0000.0001) %MON DXG_max                      =   3.1268664380261E+05
(PID.TID 0000.0001) %MON DXG_min                      =   1.5342806404640E+04
(PID.TID 0000.0001) %MON DXG_mean                     =   2.0218161485138E+05
(PID.TID 0000.0001) %MON DXG_sd                       =   9.3728538420913E+04
(PID.TID 0000.0001) %MON DXV_max                      =   3.1268664380261E+05
(PID.TID 0000.0001) %MON DXV_min                      =   1.5342806404640E+04
(PID.TID 0000.0001) %MON DXV_mean                     =   2.0218161485138E+05
(PID.TID 0000.0001) %MON DXV_sd                       =   9.3728538420913E+04
(PID.TID 0000.0001) %MON YC_max                       =   8.8593750000000E+01
(PID.TID 0000.0001) %MON YC_min                       =  -8.8593750000000E+01
(PID.TID 0000.0001) %MON YC_mean                      =   0.0000000000000E+00
(PID.TID 0000.0001) %MON YC_sd                        =   5.1955180880375E+01
(PID.TID 0000.0001) %MON YG_max                       =   8.7187500000000E+01
(PID.TID 0000.0001) %MON YG_min                       =  -9.0000000000000E+01
(PID.TID 0000.0001) %MON YG_mean                      =  -1.4285714285714E+00
(PID.TID 0000.0001) %MON YG_sd                        =   5.2365595692639E+01
(PID.TID 0000.0001) %MON DYC_max                      =   3.1268664380261E+05
(PID.TID 0000.0001) %MON DYC_min                      =   3.1268664380261E+05
(PID.TID 0000.0001) %MON DYC_mean                     =   3.1268664380261E+05
(PID.TID 0000.0001) %MON DYC_sd                       =   1.1641532182693E-10
(PID.TID 0000.0001) %MON DYF_max                      =   3.1268664380261E+05
(PID.TID 0000.0001) %MON DYF_min                      =   3.1268664380261E+05
(PID.TID 0000.0001) %MON DYF_mean                     =   3.1268664380261E+05
(PID.TID 0000.0001) %MON DYF_sd                       =   1.1641532182693E-10
(PID.TID 0000.0001) %MON DYG_max                      =   3.1268664380261E+05
(PID.TID 0000.0001) %MON DYG_min                      =   3.1268664380261E+05
(PID.TID 0000.0001) %MON DYG_mean                     =   3.1268664380261E+05
(PID.TID 0000.0001) %MON DYG_sd                       =   1.1641532182693E-10
(PID.TID 0000.0001) %MON DYU_max                      =   3.1268664380261E+05
(PID.TID 0000.0001) %MON DYU_min                      =   3.1268664380261E+05
(PID.TID 0000.0001) %MON DYU_mean                     =   3.1268664380261E+05
(PID.TID 0000.0001) %MON DYU_sd                       =   1.1641532182693E-10
(PID.TID 0000.0001) %MON RA_max                       =   9.7733676797555E+10
(PID.TID 0000.0001) %MON RA_min                       =   2.3992270990190E+09
(PID.TID 0000.0001) %MON RA_mean                      =   6.2244185031957E+10
(PID.TID 0000.0001) %MON RA_sd                        =   3.0074496923945E+10
(PID.TID 0000.0001) %MON RAW_max                      =   9.7733676797555E+10
(PID.TID 0000.0001) %MON RAW_min                      =   2.3992270990190E+09
(PID.TID 0000.0001) %MON RAW_mean                     =   6.2244185031957E+10
(PID.TID 0000.0001) %MON RAW_sd                       =   3.0074496923945E+10
(PID.TID 0000.0001) %MON RAS_max                      =   9.7763121221868E+10
(PID.TID 0000.0001) %MON RAS_min                      =   4.7970089933465E+09
(PID.TID 0000.0001) %MON RAS_mean                     =   6.3213143616158E+10
(PID.TID 0000.0001) %MON RAS_sd                       =   2.9304719741649E+10
(PID.TID 0000.0001) %MON RAZ_max                      =   9.7763121221868E+10
(PID.TID 0000.0001) %MON RAZ_min                      =   4.7970089933465E+09
(PID.TID 0000.0001) %MON RAZ_mean                     =   6.3213143616158E+10
(PID.TID 0000.0001) %MON RAZ_sd                       =   2.9304719741649E+10
(PID.TID 0000.0001) // =======================================================
(PID.TID 0000.0001) // Field Model R_low (ini_masks_etc) at iteration          1
(PID.TID 0000.0001) // CMIN =          1.000000000000000E+32
(PID.TID 0000.0001) // CMAX =         -1.000000000000000E+32
(PID.TID 0000.0001) // CINT =          0.000000000000000E+00
(PID.TID 0000.0001) // SYMBOLS (CMIN->CMAX): -abcdefghijklmnopqrstuvwxyz+
(PID.TID 0000.0001) //                  0.0: .
(PID.TID 0000.0001) // RANGE I (Lo:Hi:Step):(  -1:   3:   1)
(PID.TID 0000.0001) // RANGE J (Lo:Hi:Step):(  66:  -1:  -1)
(PID.TID 0000.0001) // RANGE K (Lo:Hi:Step):(   1:   1:   1)
(PID.TID 0000.0001) // =======================================================
(PID.TID 0000.0001) // =======================================================
(PID.TID 0000.0001) // END OF FIELD                                          =
(PID.TID 0000.0001) // =======================================================
(PID.TID 0000.0001) 
(PID.TID 0000.0001) // =======================================================
(PID.TID 0000.0001) // Field Model Ro_surf (ini_masks_etc) at iteration          1
(PID.TID 0000.0001) // CMIN =          1.000000000000000E+05
(PID.TID 0000.0001) // CMAX =          1.000000000000000E+05
(PID.TID 0000.0001) // CINT =          0.000000000000000E+00
(PID.TID 0000.0001) // SYMBOLS (CMIN->CMAX): -abcdefghijklmnopqrstuvwxyz+
(PID.TID 0000.0001) //                  0.0: .
(PID.TID 0000.0001) // RANGE I (Lo:Hi:Step):(  -1:   3:   1)
(PID.TID 0000.0001) // RANGE J (Lo:Hi:Step):(  66:  -1:  -1)
(PID.TID 0000.0001) // RANGE K (Lo:Hi:Step):(   1:   1:   1)
(PID.TID 0000.0001) // =======================================================
(PID.TID 0000.0001) // =======================================================
(PID.TID 0000.0001) // END OF FIELD                                          =
(PID.TID 0000.0001) // =======================================================
(PID.TID 0000.0001) 
(PID.TID 0000.0001) // =======================================================
(PID.TID 0000.0001) // Field hFacC at iteration          1
(PID.TID 0000.0001) // CMIN =          1.000000000000000E+00
(PID.TID 0000.0001) // CMAX =          1.000000000000000E+00
(PID.TID 0000.0001) // CINT =          0.000000000000000E+00
(PID.TID 0000.0001) // SYMBOLS (CMIN->CMAX): -abcdefghijklmnopqrstuvwxyz+
(PID.TID 0000.0001) //                  0.0: .
(PID.TID 0000.0001) // RANGE I (Lo:Hi:Step):(  -1:   3:   1)
(PID.TID 0000.0001) // RANGE J (Lo:Hi:Step):(  66:  -1:  -1)
(PID.TID 0000.0001) // RANGE K (Lo:Hi:Step):(   1:   1:   1)
(PID.TID 0000.0001) // =======================================================
(PID.TID 0000.0001) // =======================================================
(PID.TID 0000.0001) // END OF FIELD                                          =
(PID.TID 0000.0001) // =======================================================
(PID.TID 0000.0001) 
(PID.TID 0000.0001) // =======================================================
(PID.TID 0000.0001) // Field hFacW at iteration          1
(PID.TID 0000.0001) // CMIN =          1.000000000000000E+00
(PID.TID 0000.0001) // CMAX =          1.000000000000000E+00
(PID.TID 0000.0001) // CINT =          0.000000000000000E+00
(PID.TID 0000.0001) // SYMBOLS (CMIN->CMAX): -abcdefghijklmnopqrstuvwxyz+
(PID.TID 0000.0001) //                  0.0: .
(PID.TID 0000.0001) // RANGE I (Lo:Hi:Step):(  -1:   3:   1)
(PID.TID 0000.0001) // RANGE J (Lo:Hi:Step):(  66:  -1:  -1)
(PID.TID 0000.0001) // RANGE K (Lo:Hi:Step):(   1:   1:   1)
(PID.TID 0000.0001) // =======================================================
(PID.TID 0000.0001) // =======================================================
(PID.TID 0000.0001) // END OF FIELD                                          =
(PID.TID 0000.0001) // =======================================================
(PID.TID 0000.0001) 
(PID.TID 0000.0001) // =======================================================
(PID.TID 0000.0001) // Field hFacS at iteration          1
(PID.TID 0000.0001) // CMIN =          1.000000000000000E+00
(PID.TID 0000.0001) // CMAX =          1.000000000000000E+00
(PID.TID 0000.0001) // CINT =          0.000000000000000E+00
(PID.TID 0000.0001) // SYMBOLS (CMIN->CMAX): -abcdefghijklmnopqrstuvwxyz+
(PID.TID 0000.0001) //                  0.0: .
(PID.TID 0000.0001) // RANGE I (Lo:Hi:Step):(  -1:   3:   1)
(PID.TID 0000.0001) // RANGE J (Lo:Hi:Step):(  66:  -1:  -1)
(PID.TID 0000.0001) // RANGE K (Lo:Hi:Step):(   1:   1:   1)
(PID.TID 0000.0001) // =======================================================
(PID.TID 0000.0001) // =======================================================
(PID.TID 0000.0001) // END OF FIELD                                          =
(PID.TID 0000.0001) // =======================================================
(PID.TID 0000.0001) 
(PID.TID 0000.0001)  PACKAGES_BOOT: opening data.pkg
(PID.TID 0000.0001)  OPEN_COPY_DATA_FILE: opening file data.pkg
(PID.TID 0000.0001) // =======================================================
(PID.TID 0000.0001) // Parameter file "data.pkg"
(PID.TID 0000.0001) // =======================================================
(PID.TID 0000.0001) ># Packages
(PID.TID 0000.0001) > &PACKAGES
(PID.TID 0000.0001) > useSHAP_FILT=.TRUE.,
(PID.TID 0000.0001) > &
(PID.TID 0000.0001) 
(PID.TID 0000.0001)  PACKAGES_BOOT: finished reading data.pkg
(PID.TID 0000.0001)  SHAP_FILT_READPARMS: opening data.shap
(PID.TID 0000.0001)  OPEN_COPY_DATA_FILE: opening file data.shap
(PID.TID 0000.0001) // =======================================================
(PID.TID 0000.0001) // Parameter file "data.shap"
(PID.TID 0000.0001) // =======================================================
(PID.TID 0000.0001) ># Shapiro Filter parameters
(PID.TID 0000.0001) > &SHAP_PARM01
(PID.TID 0000.0001) > shap_filt_uvStar=.FALSE.,
(PID.TID 0000.0001) > shap_filt_TrStagg=.TRUE.,
(PID.TID 0000.0001) > Shap_funct=4,
(PID.TID 0000.0001) > nShapT=4,
(PID.TID 0000.0001) > nShapUV=4,
(PID.TID 0000.0001) >#nShapTrPhys=4,
(PID.TID 0000.0001) >#nShapUVPhys=4,
(PID.TID 0000.0001) >#Shap_TrLength=115000.,
(PID.TID 0000.0001) >#Shap_uvLength=110000.,
(PID.TID 0000.0001) >#Shap_Trtau=3600.,
(PID.TID 0000.0001) >#Shap_uvtau=3600.,
(PID.TID 0000.0001) > &
(PID.TID 0000.0001) >
(PID.TID 0000.0001) 
(PID.TID 0000.0001)  SHAP_FILT_READPARMS: finished reading data.shap
(PID.TID 0000.0001) Shap_funct =   /* select Shapiro filter function */
(PID.TID 0000.0001)                       4
(PID.TID 0000.0001)     ;
(PID.TID 0000.0001) nShapT =   /* power of Shapiro filter for Temperat */
(PID.TID 0000.0001)                       4
(PID.TID 0000.0001)     ;
(PID.TID 0000.0001) nShapS =   /* power of Shapiro filter for Salinity */
(PID.TID 0000.0001)                       4
(PID.TID 0000.0001)     ;
(PID.TID 0000.0001) nShapUV =   /* power of Shapiro filter for momentum */
(PID.TID 0000.0001)                       4
(PID.TID 0000.0001)     ;
(PID.TID 0000.0001) Shap_Trtau =   /* time scale of Shapiro filter (Tracer) */
(PID.TID 0000.0001)                 1.200000000000000E+03
(PID.TID 0000.0001)     ;
(PID.TID 0000.0001) Shap_TrLength =   /* Length scale of Shapiro filter (Tracer) */
(PID.TID 0000.0001)                 0.000000000000000E+00
(PID.TID 0000.0001)     ;
(PID.TID 0000.0001) Shap_uvtau =   /* time scale of Shapiro filter (Momentum) */
(PID.TID 0000.0001)                 1.200000000000000E+03
(PID.TID 0000.0001)     ;
(PID.TID 0000.0001) Shap_uvLength =   /* Length scale of Shapiro filter (Momentum) */
(PID.TID 0000.0001)                 0.000000000000000E+00
(PID.TID 0000.0001)     ;
(PID.TID 0000.0001) Shap_noSlip =  /* No-slip parameter (0=Free-slip ; 1=No-slip)*/
(PID.TID 0000.0001)                 0.000000000000000E+00
(PID.TID 0000.0001)     ;
(PID.TID 0000.0001) Shap_diagFreq =   /* Frequency^-1 for diagnostic output (s)*/
(PID.TID 0000.0001)                 0.000000000000000E+00
(PID.TID 0000.0001)     ;
(PID.TID 0000.0001) 
(PID.TID 0000.0001) // ===================================
(PID.TID 0000.0001) // GAD parameters :
(PID.TID 0000.0001) // ===================================
(PID.TID 0000.0001) tempAdvScheme =   /* Temp. Horiz.Advection scheme selector */
(PID.TID 0000.0001)                       2
(PID.TID 0000.0001)     ;
(PID.TID 0000.0001) tempVertAdvScheme =   /* Temp. Vert. Advection scheme selector */
(PID.TID 0000.0001)                       2
(PID.TID 0000.0001)     ;
(PID.TID 0000.0001) tempMultiDimAdvec =   /* use Muti-Dim Advec method for Temp */
(PID.TID 0000.0001)                   F
(PID.TID 0000.0001)     ;
(PID.TID 0000.0001) tempAdamsBashforth =   /* use Adams-Bashforth time-stepping for Temp */
(PID.TID 0000.0001)                   T
(PID.TID 0000.0001)     ;
(PID.TID 0000.0001) saltAdvScheme =   /* Salt. Horiz.advection scheme selector */
(PID.TID 0000.0001)                       2
(PID.TID 0000.0001)     ;
(PID.TID 0000.0001) saltVertAdvScheme =   /* Salt. Vert. Advection scheme selector */
(PID.TID 0000.0001)                       2
(PID.TID 0000.0001)     ;
(PID.TID 0000.0001) saltMultiDimAdvec =   /* use Muti-Dim Advec method for Salt */
(PID.TID 0000.0001)                   F
(PID.TID 0000.0001)     ;
(PID.TID 0000.0001) saltAdamsBashforth =   /* use Adams-Bashforth time-stepping for Salt */
(PID.TID 0000.0001)                   T
(PID.TID 0000.0001)     ;
(PID.TID 0000.0001) // ===================================
(PID.TID 0000.0001) %MON fCori_max                    =   1.4540029928789E-04
(PID.TID 0000.0001) %MON fCori_min                    =  -1.4540029928789E-04
(PID.TID 0000.0001) %MON fCori_mean                   =  -6.7762635780344E-21
(PID.TID 0000.0001) %MON fCori_sd                     =   1.0284451245737E-04
(PID.TID 0000.0001) %MON fCoriG_max                   =   1.4526891053949E-04
(PID.TID 0000.0001) %MON fCoriG_min                   =  -1.4544410433286E-04
(PID.TID 0000.0001) %MON fCoriG_mean                  =  -2.3086365767121E-06
(PID.TID 0000.0001) %MON fCoriG_sd                    =   1.0363181330709E-04
(PID.TID 0000.0001) %MON fCoriCos_max                 =   1.4540029928789E-04
(PID.TID 0000.0001) %MON fCoriCos_min                 =   3.5693770017430E-06
(PID.TID 0000.0001) %MON fCoriCos_mean                =   9.2601889431869E-05
(PID.TID 0000.0001) %MON fCoriCos_sd                  =   4.4742416298653E-05
(PID.TID 0000.0001) // CG2D normalisation factor =          0.2454122852291226263129944E-06
(PID.TID 0000.0001) 
(PID.TID 0000.0001) CONFIG_CHECK: OK
(PID.TID 0000.0001) // =======================================================
(PID.TID 0000.0001) // Model configuration
(PID.TID 0000.0001) // =======================================================
(PID.TID 0000.0001) //
(PID.TID 0000.0001) // "Physical" paramters ( PARM01 in namelist )
(PID.TID 0000.0001) //
(PID.TID 0000.0001) buoyancyRelation = ATMOSPHERIC
(PID.TID 0000.0001) tRef =   /* Reference temperature profile ( oC or oK ) */
(PID.TID 0000.0001)     5 @  0.000000000000000E+00              /* K =  1:  5 */
(PID.TID 0000.0001)     ;
(PID.TID 0000.0001) sRef =   /* Reference salinity profile ( ppt ) */
(PID.TID 0000.0001)     5 @  0.000000000000000E+00              /* K =  1:  5 */
(PID.TID 0000.0001)     ;
(PID.TID 0000.0001) viscAh =   /* Lateral eddy viscosity ( m^2/s ) */
(PID.TID 0000.0001)                 0.000000000000000E+00
(PID.TID 0000.0001)     ;
(PID.TID 0000.0001) viscAhMax =   /* Maximum lateral eddy viscosity ( m^2/s ) */
(PID.TID 0000.0001)                 1.000000000000000E+21
(PID.TID 0000.0001)     ;
(PID.TID 0000.0001) viscAhGrid =   /* Grid dependent lateral eddy viscosity ( non-dim. ) */
(PID.TID 0000.0001)                 0.000000000000000E+00
(PID.TID 0000.0001)     ;
(PID.TID 0000.0001) viscC2leith =   /* Leith harmonic viscosity factor ( non-dom. ) */
(PID.TID 0000.0001)                 0.000000000000000E+00
(PID.TID 0000.0001)     ;
(PID.TID 0000.0001) viscA4 =   /* Lateral biharmonic viscosity ( m^4/s ) */
(PID.TID 0000.0001)                 0.000000000000000E+00
(PID.TID 0000.0001)     ;
(PID.TID 0000.0001) viscA4Max =   /* Maximum biharmonic viscosity ( m^2/s ) */
(PID.TID 0000.0001)                 1.000000000000000E+21
(PID.TID 0000.0001)     ;
(PID.TID 0000.0001) viscA4Grid =   /* Grid dependent biharmonic viscosity ( non-dim. ) */
(PID.TID 0000.0001)                 0.000000000000000E+00
(PID.TID 0000.0001)     ;
(PID.TID 0000.0001) viscC4leith =   /* Leith biharmonic viscosity factor ( non-dom. ) */
(PID.TID 0000.0001)                 0.000000000000000E+00
(PID.TID 0000.0001)     ;
(PID.TID 0000.0001) no_slip_sides =  /* Viscous BCs: No-slip sides */
(PID.TID 0000.0001)                   F
(PID.TID 0000.0001)     ;
(PID.TID 0000.0001) viscAr =   /* Vertical eddy viscosity ( units of r^2/s ) */
(PID.TID 0000.0001)                 0.000000000000000E+00
(PID.TID 0000.0001)     ;
(PID.TID 0000.0001) diffKhT =   /* Laplacian diffusion of heat laterally ( m^2/s ) */
(PID.TID 0000.0001)                 0.000000000000000E+00
(PID.TID 0000.0001)     ;
(PID.TID 0000.0001) diffK4T =   /* Bihaarmonic diffusion of heat laterally ( m^4/s ) */
(PID.TID 0000.0001)                 0.000000000000000E+00
(PID.TID 0000.0001)     ;
(PID.TID 0000.0001) diffKrT =   /* Laplacian diffusion of heat vertically ( m^2/s ) */
(PID.TID 0000.0001)                 0.000000000000000E+00
(PID.TID 0000.0001)     ;
(PID.TID 0000.0001) diffKhS =   /* Laplacian diffusion of salt laterally ( m^2/s ) */
(PID.TID 0000.0001)                 0.000000000000000E+00
(PID.TID 0000.0001)     ;
(PID.TID 0000.0001) diffK4S =   /* Bihaarmonic diffusion of salt laterally ( m^4/s ) */
(PID.TID 0000.0001)                 0.000000000000000E+00
(PID.TID 0000.0001)     ;
(PID.TID 0000.0001) diffKrS =   /* Laplacian diffusion of salt vertically ( m^2/s ) */
(PID.TID 0000.0001)                 0.000000000000000E+00
(PID.TID 0000.0001)     ;
(PID.TID 0000.0001) diffKrBL79surf =   /* Surface diffusion for Bryan and Lewis 1979 ( m^2/s ) */
(PID.TID 0000.0001)                 0.000000000000000E+00
(PID.TID 0000.0001)     ;
(PID.TID 0000.0001) diffKrBL79deep =   /* Deep diffusion for Bryan and Lewis 1979 ( m^2/s ) */
(PID.TID 0000.0001)                 0.000000000000000E+00
(PID.TID 0000.0001)     ;
(PID.TID 0000.0001) diffKrBL79scl =   /* Depth scale for Bryan and Lewis 1979 ( m ) */
(PID.TID 0000.0001)                 2.000000000000000E+02
(PID.TID 0000.0001)     ;
(PID.TID 0000.0001) diffKrBL79Ho =   /* Turning depth for Bryan and Lewis 1979 ( m ) */
(PID.TID 0000.0001)                -2.000000000000000E+03
(PID.TID 0000.0001)     ;
(PID.TID 0000.0001)  Equation of State : eosType = IDEALG
(PID.TID 0000.0001) tAlpha =   /* Linear EOS thermal expansion coefficient ( 1/degree ) */
(PID.TID 0000.0001)                 1.234567000000000E+05
(PID.TID 0000.0001)     ;
(PID.TID 0000.0001) sBeta =   /* Linear EOS haline contraction coefficient ( 1/ppt ) */
(PID.TID 0000.0001)                 1.234567000000000E+05
(PID.TID 0000.0001)     ;
(PID.TID 0000.0001) atm_Rd =  /* gas constant for dry air ( J/kg/K ) */
(PID.TID 0000.0001)                 2.868571428571428E+02
(PID.TID 0000.0001)     ;
(PID.TID 0000.0001) atm_Cp =  /* specific heat (Cp) of dry air ( J/kg/K ) */
(PID.TID 0000.0001)                 1.004000000000000E+03
(PID.TID 0000.0001)     ;
(PID.TID 0000.0001) atm_kappa =  /* kappa (=Rd/Cp ) of dry air */
(PID.TID 0000.0001)                 2.857142857142857E-01
(PID.TID 0000.0001)     ;
(PID.TID 0000.0001) atm_Rq = /* water vap. specific vol. anomaly relative to dry air */
(PID.TID 0000.0001)                 0.000000000000000E+00
(PID.TID 0000.0001)     ;
(PID.TID 0000.0001) atm_Po =  /* standard reference pressure ( Pa ) */
(PID.TID 0000.0001)                 1.000000000000000E+05
(PID.TID 0000.0001)     ;
(PID.TID 0000.0001) integr_GeoPot =  /* select how the geopotential is integrated */
(PID.TID 0000.0001)                       2
(PID.TID 0000.0001)     ;
(PID.TID 0000.0001) selectFindRoSurf=  /* select how Surf.Ref. pressure is defined */
(PID.TID 0000.0001)                       0
(PID.TID 0000.0001)     ;
(PID.TID 0000.0001) rhonil =   /* Reference density ( kg/m^3 ) */
(PID.TID 0000.0001)                 1.000000000000000E+00
(PID.TID 0000.0001)     ;
(PID.TID 0000.0001) rhoConst =   /* Reference density ( kg/m^3 ) */
(PID.TID 0000.0001)                 1.000000000000000E+00
(PID.TID 0000.0001)     ;
(PID.TID 0000.0001) rhoConstFresh =   /* Reference density ( kg/m^3 ) */
(PID.TID 0000.0001)                 1.000000000000000E+00
(PID.TID 0000.0001)     ;
(PID.TID 0000.0001) gravity =   /* Gravitational acceleration ( m/s^2 ) */
(PID.TID 0000.0001)                 9.810000000000000E+00
(PID.TID 0000.0001)     ;
(PID.TID 0000.0001) gBaro =   /* Barotropic gravity ( m/s^2 ) */
(PID.TID 0000.0001)                 9.810000000000000E+00
(PID.TID 0000.0001)     ;
(PID.TID 0000.0001) rotationPeriod =   /* Rotation Period ( s ) */
(PID.TID 0000.0001)                 8.640000000000000E+04
(PID.TID 0000.0001)     ;
(PID.TID 0000.0001) omega =   /* Angular velocity ( rad/s ) */
(PID.TID 0000.0001)                 7.272205216643040E-05
(PID.TID 0000.0001)     ;
(PID.TID 0000.0001) f0 =   /* Reference coriolis parameter ( 1/s ) */
(PID.TID 0000.0001)                 1.000000000000000E-04
(PID.TID 0000.0001)     ;
(PID.TID 0000.0001) beta =   /* Beta ( 1/(m.s) ) */
(PID.TID 0000.0001)                 9.999999999999999E-12
(PID.TID 0000.0001)     ;
(PID.TID 0000.0001) freeSurfFac =   /* Implicit free surface factor */
(PID.TID 0000.0001)                 1.000000000000000E+00
(PID.TID 0000.0001)     ;
(PID.TID 0000.0001) implicitFreeSurface =   /* Implicit free surface on/off flag */
(PID.TID 0000.0001)                   T
(PID.TID 0000.0001)     ;
(PID.TID 0000.0001) rigidLid =   /* Rigid lid on/off flag */
(PID.TID 0000.0001)                   F
(PID.TID 0000.0001)     ;
(PID.TID 0000.0001) implicSurfPress =   /* Surface Pressure implicit factor (0-1)*/
(PID.TID 0000.0001)                 1.000000000000000E+00
(PID.TID 0000.0001)     ;
(PID.TID 0000.0001) implicDiv2Dflow =   /* Barot. Flow Div. implicit factor (0-1)*/
(PID.TID 0000.0001)                 1.000000000000000E+00
(PID.TID 0000.0001)     ;
(PID.TID 0000.0001) exactConserv =   /* Exact Volume Conservation on/off flag*/
(PID.TID 0000.0001)                   F
(PID.TID 0000.0001)     ;
(PID.TID 0000.0001) uniformLin_PhiSurf =   /* use uniform Bo_surf on/off flag*/
(PID.TID 0000.0001)                   T
(PID.TID 0000.0001)     ;
(PID.TID 0000.0001) nonlinFreeSurf =   /* Non-linear Free Surf. options (-1,0,1,2,3)*/
(PID.TID 0000.0001)                       0
(PID.TID 0000.0001)     ;
(PID.TID 0000.0001)      -1,0= Off ; 1,2,3= On, 2=+rescale gU,gV, 3=+update cg2d solv.
(PID.TID 0000.0001) hFacInf =   /* lower threshold for hFac (nonlinFreeSurf only)*/
(PID.TID 0000.0001)                 2.000000000000000E-01
(PID.TID 0000.0001)     ;
(PID.TID 0000.0001) hFacSup =   /* upper threshold for hFac (nonlinFreeSurf only)*/
(PID.TID 0000.0001)                 2.000000000000000E+00
(PID.TID 0000.0001)     ;
(PID.TID 0000.0001) select_rStar =   /* r* Coordinate options (not yet implemented)*/
(PID.TID 0000.0001)                       0
(PID.TID 0000.0001)     ;
(PID.TID 0000.0001) useRealFreshWaterFlux =   /* Real Fresh Water Flux on/off flag*/
(PID.TID 0000.0001)                   F
(PID.TID 0000.0001)     ;
(PID.TID 0000.0001) convertFW2Salt = /* convert F.W. Flux to Salt Flux (-1=use local S)(ppt)*/
(PID.TID 0000.0001)                 3.500000000000000E+01
(PID.TID 0000.0001)     ;
(PID.TID 0000.0001) nonHydrostatic =  /* Non-Hydrostatic on/off flag */
(PID.TID 0000.0001)                   F
(PID.TID 0000.0001)     ;
(PID.TID 0000.0001) momStepping =  /* Momentum equation on/off flag */
(PID.TID 0000.0001)                   T
(PID.TID 0000.0001)     ;
(PID.TID 0000.0001) momAdvection =  /* Momentum advection on/off flag */
(PID.TID 0000.0001)                   T
(PID.TID 0000.0001)     ;
(PID.TID 0000.0001) momViscosity =  /* Momentum viscosity on/off flag */
(PID.TID 0000.0001)                   T
(PID.TID 0000.0001)     ;
(PID.TID 0000.0001) momImplVertAdv =/* Momentum implicit vert. advection on/off*/
(PID.TID 0000.0001)                   F
(PID.TID 0000.0001)     ;
(PID.TID 0000.0001) implicitViscosity = /* Implicit viscosity on/off flag */
(PID.TID 0000.0001)                   F
(PID.TID 0000.0001)     ;
(PID.TID 0000.0001) useCoriolis =  /* Coriolis on/off flag */
(PID.TID 0000.0001)                   T
(PID.TID 0000.0001)     ;
(PID.TID 0000.0001) useCDscheme =  /* CD scheme on/off flag */
(PID.TID 0000.0001)                   F
(PID.TID 0000.0001)     ;
(PID.TID 0000.0001) useJamartWetPoints= /* Coriolis WetPoints method flag */
(PID.TID 0000.0001)                   F
(PID.TID 0000.0001)     ;
(PID.TID 0000.0001) useJamartMomAdv= /* V.I. Non-linear terms Jamart flag */
(PID.TID 0000.0001)                   F
(PID.TID 0000.0001)     ;
(PID.TID 0000.0001) SadournyCoriolis= /* Sadourny Coriolis discr. flag */
(PID.TID 0000.0001)                   F
(PID.TID 0000.0001)     ;
(PID.TID 0000.0001) upwindVorticity= /* Upwind bias vorticity flag */
(PID.TID 0000.0001)                   F
(PID.TID 0000.0001)     ;
(PID.TID 0000.0001) useAbsVorticity= /* Work with f+zeta in Coriolis */
(PID.TID 0000.0001)                   F
(PID.TID 0000.0001)     ;
(PID.TID 0000.0001) highOrderVorticity= /* High order interp. of vort. flag */
(PID.TID 0000.0001)                   F
(PID.TID 0000.0001)     ;
(PID.TID 0000.0001) momForcing =  /* Momentum forcing on/off flag */
(PID.TID 0000.0001)                   T
(PID.TID 0000.0001)     ;
(PID.TID 0000.0001) momPressureForcing =  /* Momentum pressure term on/off flag */
(PID.TID 0000.0001)                   T
(PID.TID 0000.0001)     ;
(PID.TID 0000.0001) staggerTimeStep =   /* Stagger time stepping on/off flag */
(PID.TID 0000.0001)                   T
(PID.TID 0000.0001)     ;
(PID.TID 0000.0001) multiDimAdvection =   /* enable/disable Multi-Dim Advection */
(PID.TID 0000.0001)                   T
(PID.TID 0000.0001)     ;
(PID.TID 0000.0001) useMultiDimAdvec =   /* Multi-Dim Advection is/is-not used */
(PID.TID 0000.0001)                   F
(PID.TID 0000.0001)     ;
(PID.TID 0000.0001) implicitDiffusion =/* Implicit Diffusion on/off flag */
(PID.TID 0000.0001)                   F
(PID.TID 0000.0001)     ;
(PID.TID 0000.0001) tempStepping =  /* Temperature equation on/off flag */
(PID.TID 0000.0001)                   T
(PID.TID 0000.0001)     ;
(PID.TID 0000.0001) tempAdvection=  /* Temperature advection on/off flag */
(PID.TID 0000.0001)                   T
(PID.TID 0000.0001)     ;
(PID.TID 0000.0001) tempImplVertAdv =/* Temp. implicit vert. advection on/off */
(PID.TID 0000.0001)                   F
(PID.TID 0000.0001)     ;
(PID.TID 0000.0001) tempForcing  =  /* Temperature forcing on/off flag */
(PID.TID 0000.0001)                   T
(PID.TID 0000.0001)     ;
(PID.TID 0000.0001) saltStepping =  /* Salinity equation on/off flag */
(PID.TID 0000.0001)                   T
(PID.TID 0000.0001)     ;
(PID.TID 0000.0001) saltAdvection=  /* Salinity advection on/off flag */
(PID.TID 0000.0001)                   T
(PID.TID 0000.0001)     ;
(PID.TID 0000.0001) saltImplVertAdv =/* Sali. implicit vert. advection on/off */
(PID.TID 0000.0001)                   F
(PID.TID 0000.0001)     ;
(PID.TID 0000.0001) saltForcing  =  /* Salinity forcing on/off flag */
(PID.TID 0000.0001)                   T
(PID.TID 0000.0001)     ;
(PID.TID 0000.0001) //
(PID.TID 0000.0001) // Elliptic solver(s) paramters ( PARM02 in namelist )
(PID.TID 0000.0001) //
(PID.TID 0000.0001) cg2dMaxIters =   /* Upper limit on 2d con. grad iterations  */
(PID.TID 0000.0001)                     600
(PID.TID 0000.0001)     ;
(PID.TID 0000.0001) cg2dChkResFreq =   /* 2d con. grad convergence test frequency */
(PID.TID 0000.0001)                       1
(PID.TID 0000.0001)     ;
(PID.TID 0000.0001) cg2dTargetResidual =   /* 2d con. grad target residual  */
(PID.TID 0000.0001)                 1.000000000000000E-13
(PID.TID 0000.0001)     ;
(PID.TID 0000.0001) cg2dTargetResWunit =   /* CG2d target residual [W units] */
(PID.TID 0000.0001)                -1.000000000000000E+00
(PID.TID 0000.0001)     ;
(PID.TID 0000.0001) cg2dPreCondFreq =   /* Freq. for updating cg2d preconditioner */
(PID.TID 0000.0001)                       1
(PID.TID 0000.0001)     ;
(PID.TID 0000.0001) //
(PID.TID 0000.0001) // Time stepping paramters ( PARM03 in namelist )
(PID.TID 0000.0001) //
(PID.TID 0000.0001) nIter0 =   /* Base timestep number  */
(PID.TID 0000.0001)                       0
(PID.TID 0000.0001)     ;
(PID.TID 0000.0001) nTimeSteps =   /* Number of timesteps */
(PID.TID 0000.0001)                      10
(PID.TID 0000.0001)     ;
(PID.TID 0000.0001) deltatTmom =   /* Momentum equation timestep ( s ) */
(PID.TID 0000.0001)                 1.200000000000000E+03
(PID.TID 0000.0001)     ;
(PID.TID 0000.0001) deltaTfreesurf =   /* FreeSurface equation timestep ( s ) */
(PID.TID 0000.0001)                 1.200000000000000E+03
(PID.TID 0000.0001)     ;
(PID.TID 0000.0001) deltatTtracer =   /* Tracer equation timestep ( s ) */
(PID.TID 0000.0001)                 1.200000000000000E+03
(PID.TID 0000.0001)     ;
(PID.TID 0000.0001) deltatTClock  =   /* Model clock timestep ( s ) */
(PID.TID 0000.0001)                 1.200000000000000E+03
(PID.TID 0000.0001)     ;
(PID.TID 0000.0001) cAdjFreq =   /* Convective adjustment interval ( s ) */
(PID.TID 0000.0001)                 0.000000000000000E+00
(PID.TID 0000.0001)     ;
(PID.TID 0000.0001) forcing_In_AB =   /* put T,S Forcing in Adams-Bash. stepping */
(PID.TID 0000.0001)                   T
(PID.TID 0000.0001)     ;
(PID.TID 0000.0001) abeps =   /* Adams-Bashforth stabilizing weight */
(PID.TID 0000.0001)                 1.000000000000000E-01
(PID.TID 0000.0001)     ;
(PID.TID 0000.0001) startTime =   /* Run start time ( s ). */
(PID.TID 0000.0001)                 0.000000000000000E+00
(PID.TID 0000.0001)     ;
(PID.TID 0000.0001) endTime =   /* Integration ending time ( s ). */
(PID.TID 0000.0001)                 1.200000000000000E+04
(PID.TID 0000.0001)     ;
(PID.TID 0000.0001) pChkPtFreq =   /* Permanent restart/checkpoint file interval ( s ). */
(PID.TID 0000.0001)                 0.000000000000000E+00
(PID.TID 0000.0001)     ;
(PID.TID 0000.0001) chkPtFreq =   /* Rolling restart/checkpoint file interval ( s ). */
(PID.TID 0000.0001)                 0.000000000000000E+00
(PID.TID 0000.0001)     ;
(PID.TID 0000.0001) dumpFreq =   /* Model state write out interval ( s ). */
(PID.TID 0000.0001)                 2.592000000000000E+06
(PID.TID 0000.0001)     ;
(PID.TID 0000.0001) externForcingPeriod =   /* forcing period (s) */
(PID.TID 0000.0001)                 0.000000000000000E+00
(PID.TID 0000.0001)     ;
(PID.TID 0000.0001) externForcingCycle =   /* period of the cyle (s). */
(PID.TID 0000.0001)                 0.000000000000000E+00
(PID.TID 0000.0001)     ;
(PID.TID 0000.0001) tauThetaClimRelax =   /* relaxation time scale (s) */
(PID.TID 0000.0001)                 0.000000000000000E+00
(PID.TID 0000.0001)     ;
(PID.TID 0000.0001) tauSaltClimRelax =   /* relaxation time scale (s) */
(PID.TID 0000.0001)                 0.000000000000000E+00
(PID.TID 0000.0001)     ;
(PID.TID 0000.0001) latBandClimRelax =   /* max. Lat. where relaxation */
(PID.TID 0000.0001)                 1.800000000000000E+02
(PID.TID 0000.0001)     ;
(PID.TID 0000.0001) //
(PID.TID 0000.0001) // Gridding paramters ( PARM04 in namelist )
(PID.TID 0000.0001) //
(PID.TID 0000.0001) usingCartesianGrid =   /* Cartesian coordinates flag ( True / False ) */
(PID.TID 0000.0001)                   F
(PID.TID 0000.0001)     ;
(PID.TID 0000.0001) usingSphericalPolarGrid =   /* Spherical coordinates flag ( True / False ) */
(PID.TID 0000.0001)                   T
(PID.TID 0000.0001)     ;
(PID.TID 0000.0001) usingCylindricalGrid =   /* Spherical coordinates flag ( True / False ) */
(PID.TID 0000.0001)                   F
(PID.TID 0000.0001)     ;
(PID.TID 0000.0001) groundAtK1 =   /* Lower Boundary (ground) at the surface(k=1) ( T / F ) */
(PID.TID 0000.0001)                   T
(PID.TID 0000.0001)     ;
(PID.TID 0000.0001) Ro_SeaLevel =   /* r(1) ( units of r ) */
(PID.TID 0000.0001)                 1.000000000000000E+05
(PID.TID 0000.0001)     ;
(PID.TID 0000.0001) rkFac =   /* minus Vertical index orientation  */
(PID.TID 0000.0001)                 1.000000000000000E+00
(PID.TID 0000.0001)     ;
(PID.TID 0000.0001) horiVertRatio =   /* Ratio on units : Horiz - Vertical */
(PID.TID 0000.0001)                 9.810000000000000E+00
(PID.TID 0000.0001)     ;
(PID.TID 0000.0001) drC =   /* C spacing ( units of r ) */
(PID.TID 0000.0001)                 5.000000000000000E+03,      /* K =  1 */
(PID.TID 0000.0001)                 1.750000000000000E+04,      /* K =  2 */
(PID.TID 0000.0001)                 2.750000000000000E+04,      /* K =  3 */
(PID.TID 0000.0001)                 2.500000000000000E+04,      /* K =  4 */
(PID.TID 0000.0001)                 1.750000000000000E+04       /* K =  5 */
(PID.TID 0000.0001)     ;
(PID.TID 0000.0001) drF =   /* W spacing ( units of r ) */
(PID.TID 0000.0001)                 1.000000000000000E+04,      /* K =  1 */
(PID.TID 0000.0001)                 2.500000000000000E+04,      /* K =  2 */
(PID.TID 0000.0001)                 3.000000000000000E+04,      /* K =  3 */
(PID.TID 0000.0001)                 2.000000000000000E+04,      /* K =  4 */
(PID.TID 0000.0001)                 1.500000000000000E+04       /* K =  5 */
(PID.TID 0000.0001)     ;
(PID.TID 0000.0001) delX =   /* U spacing ( m - cartesian, degrees - spherical ) */
(PID.TID 0000.0001)                 2.812500000000000E+00       /* I =  1 */
(PID.TID 0000.0001)     ;
(PID.TID 0000.0001) delY =   /* V spacing ( m - cartesian, degrees - spherical ) */
(PID.TID 0000.0001)    64 @  2.812500000000000E+00              /* J =  1: 64 */
(PID.TID 0000.0001)     ;
(PID.TID 0000.0001) phiMin =    /* South edge (ignored - cartesian, degrees - spherical ) */
(PID.TID 0000.0001)                -9.000000000000000E+01
(PID.TID 0000.0001)     ;
(PID.TID 0000.0001) thetaMin =    /* West edge ( ignored - cartesian, degrees - spherical ) */
(PID.TID 0000.0001)                 0.000000000000000E+00
(PID.TID 0000.0001)     ;
(PID.TID 0000.0001) rSphere =    /* Radius ( ignored - cartesian, m - spherical ) */
(PID.TID 0000.0001)                 6.370000000000000E+06
(PID.TID 0000.0001)     ;
(PID.TID 0000.0001) xcoord =   /* P-point X coord ( m - cartesian, degrees - spherical ) */
(PID.TID 0000.0001)                 1.406250000000000E+00       /* I =  1 */
(PID.TID 0000.0001)     ;
(PID.TID 0000.0001) ycoord =   /* P-point Y coord ( m - cartesian, degrees - spherical ) */
(PID.TID 0000.0001)                -8.859375000000000E+01,      /* J =  1 */
(PID.TID 0000.0001)                -8.578125000000000E+01,      /* J =  2 */
(PID.TID 0000.0001)                -8.296875000000000E+01,      /* J =  3 */
(PID.TID 0000.0001)                -8.015625000000000E+01,      /* J =  4 */
(PID.TID 0000.0001)                -7.734375000000000E+01,      /* J =  5 */
(PID.TID 0000.0001)                -7.453125000000000E+01,      /* J =  6 */
(PID.TID 0000.0001)                -7.171875000000000E+01,      /* J =  7 */
(PID.TID 0000.0001)                -6.890625000000000E+01,      /* J =  8 */
(PID.TID 0000.0001)                -6.609375000000000E+01,      /* J =  9 */
(PID.TID 0000.0001)                -6.328125000000000E+01,      /* J = 10 */
(PID.TID 0000.0001)                -6.046875000000000E+01,      /* J = 11 */
(PID.TID 0000.0001)                -5.765625000000000E+01,      /* J = 12 */
(PID.TID 0000.0001)                -5.484375000000000E+01,      /* J = 13 */
(PID.TID 0000.0001)                -5.203125000000000E+01,      /* J = 14 */
(PID.TID 0000.0001)                -4.921875000000000E+01,      /* J = 15 */
(PID.TID 0000.0001)                -4.640625000000000E+01,      /* J = 16 */
(PID.TID 0000.0001)                -4.359375000000000E+01,      /* J = 17 */
(PID.TID 0000.0001)                -4.078125000000000E+01,      /* J = 18 */
(PID.TID 0000.0001)                -3.796875000000000E+01,      /* J = 19 */
(PID.TID 0000.0001)                -3.515625000000000E+01,      /* J = 20 */
(PID.TID 0000.0001)                -3.234375000000000E+01,      /* J = 21 */
(PID.TID 0000.0001)                -2.953125000000000E+01,      /* J = 22 */
(PID.TID 0000.0001)                -2.671875000000000E+01,      /* J = 23 */
(PID.TID 0000.0001)                -2.390625000000000E+01,      /* J = 24 */
(PID.TID 0000.0001)                -2.109375000000000E+01,      /* J = 25 */
(PID.TID 0000.0001)                -1.828125000000000E+01,      /* J = 26 */
(PID.TID 0000.0001)                -1.546875000000000E+01,      /* J = 27 */
(PID.TID 0000.0001)                -1.265625000000000E+01,      /* J = 28 */
(PID.TID 0000.0001)                -9.843750000000000E+00,      /* J = 29 */
(PID.TID 0000.0001)                -7.031250000000000E+00,      /* J = 30 */
(PID.TID 0000.0001)                -4.218750000000000E+00,      /* J = 31 */
(PID.TID 0000.0001)                -1.406250000000000E+00,      /* J = 32 */
(PID.TID 0000.0001)                 1.406250000000000E+00,      /* J = 33 */
(PID.TID 0000.0001)                 4.218750000000000E+00,      /* J = 34 */
(PID.TID 0000.0001)                 7.031250000000000E+00,      /* J = 35 */
(PID.TID 0000.0001)                 9.843750000000000E+00,      /* J = 36 */
(PID.TID 0000.0001)                 1.265625000000000E+01,      /* J = 37 */
(PID.TID 0000.0001)                 1.546875000000000E+01,      /* J = 38 */
(PID.TID 0000.0001)                 1.828125000000000E+01,      /* J = 39 */
(PID.TID 0000.0001)                 2.109375000000000E+01,      /* J = 40 */
(PID.TID 0000.0001)                 2.390625000000000E+01,      /* J = 41 */
(PID.TID 0000.0001)                 2.671875000000000E+01,      /* J = 42 */
(PID.TID 0000.0001)                 2.953125000000000E+01,      /* J = 43 */
(PID.TID 0000.0001)                 3.234375000000000E+01,      /* J = 44 */
(PID.TID 0000.0001)                 3.515625000000000E+01,      /* J = 45 */
(PID.TID 0000.0001)                 3.796875000000000E+01,      /* J = 46 */
(PID.TID 0000.0001)                 4.078125000000000E+01,      /* J = 47 */
(PID.TID 0000.0001)                 4.359375000000000E+01,      /* J = 48 */
(PID.TID 0000.0001)                 4.640625000000000E+01,      /* J = 49 */
(PID.TID 0000.0001)                 4.921875000000000E+01,      /* J = 50 */
(PID.TID 0000.0001)                 5.203125000000000E+01,      /* J = 51 */
(PID.TID 0000.0001)                 5.484375000000000E+01,      /* J = 52 */
(PID.TID 0000.0001)                 5.765625000000000E+01,      /* J = 53 */
(PID.TID 0000.0001)                 6.046875000000000E+01,      /* J = 54 */
(PID.TID 0000.0001)                 6.328125000000000E+01,      /* J = 55 */
(PID.TID 0000.0001)                 6.609375000000000E+01,      /* J = 56 */
(PID.TID 0000.0001)                 6.890625000000000E+01,      /* J = 57 */
(PID.TID 0000.0001)                 7.171875000000000E+01,      /* J = 58 */
(PID.TID 0000.0001)                 7.453125000000000E+01,      /* J = 59 */
(PID.TID 0000.0001)                 7.734375000000000E+01,      /* J = 60 */
(PID.TID 0000.0001)                 8.015625000000000E+01,      /* J = 61 */
(PID.TID 0000.0001)                 8.296875000000000E+01,      /* J = 62 */
(PID.TID 0000.0001)                 8.578125000000000E+01,      /* J = 63 */
(PID.TID 0000.0001)                 8.859375000000000E+01       /* J = 64 */
(PID.TID 0000.0001)     ;
(PID.TID 0000.0001) rcoord =   /* P-point R coordinate (  units of r ) */
(PID.TID 0000.0001)                 9.500000000000000E+04,      /* K =  1 */
(PID.TID 0000.0001)                 7.750000000000000E+04,      /* K =  2 */
(PID.TID 0000.0001)                 5.000000000000000E+04,      /* K =  3 */
(PID.TID 0000.0001)                 2.500000000000000E+04,      /* K =  4 */
(PID.TID 0000.0001)                 7.500000000000000E+03       /* K =  5 */
(PID.TID 0000.0001)     ;
(PID.TID 0000.0001) rF =   /* W-Interf. R coordinate (  units of r ) */
(PID.TID 0000.0001)                 1.000000000000000E+05,      /* K =  1 */
(PID.TID 0000.0001)                 9.000000000000000E+04,      /* K =  2 */
(PID.TID 0000.0001)                 6.500000000000000E+04,      /* K =  3 */
(PID.TID 0000.0001)                 3.500000000000000E+04,      /* K =  4 */
(PID.TID 0000.0001)                 1.500000000000000E+04,      /* K =  5 */
(PID.TID 0000.0001)                 0.000000000000000E+00       /* K =  6 */
(PID.TID 0000.0001)     ;
(PID.TID 0000.0001) dxF =  /* dxF(:,1,:,1) ( m - cartesian, degrees - spherical ) */
(PID.TID 0000.0001)                 7.673714381622298E+03       /* I =  1 */
(PID.TID 0000.0001)     ;
(PID.TID 0000.0001) dxF =  /* dxF(1,:,1,:) ( m - cartesian, degrees - spherical ) */
(PID.TID 0000.0001)                 7.673714381622298E+03,      /* J =  1 */
(PID.TID 0000.0001)                 2.300265649478360E+04,      /* J =  2 */
(PID.TID 0000.0001)                 3.827618319365421E+04,      /* J =  3 */
(PID.TID 0000.0001)                 5.345749921461356E+04,      /* J =  4 */
(PID.TID 0000.0001)                 6.851003143764105E+04,      /* J =  5 */
(PID.TID 0000.0001)                 8.339751699416523E+04,      /* J =  6 */
(PID.TID 0000.0001)                 9.808409062749070E+04,      /* J =  7 */
(PID.TID 0000.0001)                 1.125343710953429E+05,      /* J =  8 */
(PID.TID 0000.0001)                 1.267135464063795E+05,      /* J =  9 */
(PID.TID 0000.0001)                 1.405874576853274E+05,      /* J = 10 */
(PID.TID 0000.0001)                 1.541226814647045E+05,      /* J = 11 */
(PID.TID 0000.0001)                 1.672866102048804E+05,      /* J = 12 */
(PID.TID 0000.0001)                 1.800475308484964E+05,      /* J = 13 */
(PID.TID 0000.0001)                 1.923747012199971E+05,      /* J = 14 */
(PID.TID 0000.0001)                 2.042384240862251E+05,      /* J = 15 */
(PID.TID 0000.0001)                 2.156101186996563E+05,      /* J = 16 */
(PID.TID 0000.0001)                 2.264623896519241E+05,      /* J = 17 */
(PID.TID 0000.0001)                 2.367690928717576E+05,      /* J = 18 */
(PID.TID 0000.0001)                 2.465053986083400E+05,      /* J = 19 */
(PID.TID 0000.0001)                 2.556478512483520E+05,      /* J = 20 */
(PID.TID 0000.0001)                 2.641744258225996E+05,      /* J = 21 */
(PID.TID 0000.0001)                 2.720645810660936E+05,      /* J = 22 */
(PID.TID 0000.0001)                 2.792993089037566E+05,      /* J = 23 */
(PID.TID 0000.0001)                 2.858611802425402E+05,      /* J = 24 */
(PID.TID 0000.0001)                 2.917343869596373E+05,      /* J = 25 */
(PID.TID 0000.0001)                 2.969047799856343E+05,      /* J = 26 */
(PID.TID 0000.0001)                 3.013599033908587E+05,      /* J = 27 */
(PID.TID 0000.0001)                 3.050890243928044E+05,      /* J = 28 */
(PID.TID 0000.0001)                 3.080831592123453E+05,      /* J = 29 */
(PID.TID 0000.0001)                 3.103350947164461E+05,      /* J = 30 */
(PID.TID 0000.0001)                 3.118394057952310E+05,      /* J = 31 */
(PID.TID 0000.0001)     2 @  3.125924684315491E+05,             /* J = 32: 33 */
(PID.TID 0000.0001)                 3.118394057952310E+05,      /* J = 34 */
(PID.TID 0000.0001)                 3.103350947164461E+05,      /* J = 35 */
(PID.TID 0000.0001)                 3.080831592123453E+05,      /* J = 36 */
(PID.TID 0000.0001)                 3.050890243928044E+05,      /* J = 37 */
(PID.TID 0000.0001)                 3.013599033908587E+05,      /* J = 38 */
(PID.TID 0000.0001)                 2.969047799856343E+05,      /* J = 39 */
(PID.TID 0000.0001)                 2.917343869596373E+05,      /* J = 40 */
(PID.TID 0000.0001)                 2.858611802425402E+05,      /* J = 41 */
(PID.TID 0000.0001)                 2.792993089037566E+05,      /* J = 42 */
(PID.TID 0000.0001)                 2.720645810660936E+05,      /* J = 43 */
(PID.TID 0000.0001)                 2.641744258225996E+05,      /* J = 44 */
(PID.TID 0000.0001)                 2.556478512483520E+05,      /* J = 45 */
(PID.TID 0000.0001)                 2.465053986083400E+05,      /* J = 46 */
(PID.TID 0000.0001)                 2.367690928717576E+05,      /* J = 47 */
(PID.TID 0000.0001)                 2.264623896519241E+05,      /* J = 48 */
(PID.TID 0000.0001)                 2.156101186996563E+05,      /* J = 49 */
(PID.TID 0000.0001)                 2.042384240862251E+05,      /* J = 50 */
(PID.TID 0000.0001)                 1.923747012199971E+05,      /* J = 51 */
(PID.TID 0000.0001)                 1.800475308484964E+05,      /* J = 52 */
(PID.TID 0000.0001)                 1.672866102048804E+05,      /* J = 53 */
(PID.TID 0000.0001)                 1.541226814647045E+05,      /* J = 54 */
(PID.TID 0000.0001)                 1.405874576853274E+05,      /* J = 55 */
(PID.TID 0000.0001)                 1.267135464063795E+05,      /* J = 56 */
(PID.TID 0000.0001)                 1.125343710953429E+05,      /* J = 57 */
(PID.TID 0000.0001)                 9.808409062749070E+04,      /* J = 58 */
(PID.TID 0000.0001)                 8.339751699416523E+04,      /* J = 59 */
(PID.TID 0000.0001)                 6.851003143764105E+04,      /* J = 60 */
(PID.TID 0000.0001)                 5.345749921461356E+04,      /* J = 61 */
(PID.TID 0000.0001)                 3.827618319365421E+04,      /* J = 62 */
(PID.TID 0000.0001)                 2.300265649478360E+04,      /* J = 63 */
(PID.TID 0000.0001)                 7.673714381622298E+03       /* J = 64 */
(PID.TID 0000.0001)     ;
(PID.TID 0000.0001) dyF =  /* dyF(:,1,:,1) ( m - cartesian, degrees - spherical ) */
(PID.TID 0000.0001)                 3.126866438026091E+05       /* I =  1 */
(PID.TID 0000.0001)     ;
(PID.TID 0000.0001) dyF =  /* dyF(1,:,1,:) ( m - cartesian, degrees - spherical ) */
(PID.TID 0000.0001)    64 @  3.126866438026091E+05              /* J =  1: 64 */
(PID.TID 0000.0001)     ;
(PID.TID 0000.0001) dxG =  /* dxG(:,1,:,1) ( m - cartesian, degrees - spherical ) */
(PID.TID 0000.0001)                 0.000000000000000E+00       /* I =  1 */
(PID.TID 0000.0001)     ;
(PID.TID 0000.0001) dxG =  /* dxG(1,:,1,:) ( m - cartesian, degrees - spherical ) */
(PID.TID 0000.0001)                 0.000000000000000E+00,      /* J =  1 */
(PID.TID 0000.0001)                 1.534280640463982E+04,      /* J =  2 */
(PID.TID 0000.0001)                 3.064865064477965E+04,      /* J =  3 */
(PID.TID 0000.0001)                 4.588065960101153E+04,      /* J =  4 */
(PID.TID 0000.0001)                 6.100213802959342E+04,      /* J =  5 */
(PID.TID 0000.0001)                 7.597665696450579E+04,      /* J =  6 */
(PID.TID 0000.0001)                 9.076814147802140E+04,      /* J =  7 */
(PID.TID 0000.0001)                 1.053409575883663E+05,      /* J =  8 */
(PID.TID 0000.0001)                 1.196599981051027E+05,      /* J =  9 */
(PID.TID 0000.0001)                 1.336907672054259E+05,      /* J = 10 */
(PID.TID 0000.0001)                 1.473994635376230E+05,      /* J = 11 */
(PID.TID 0000.0001)                 1.607530616514898E+05,      /* J = 12 */
(PID.TID 0000.0001)                 1.737193915595329E+05,      /* J = 13 */
(PID.TID 0000.0001)                 1.862672162372875E+05,      /* J = 14 */
(PID.TID 0000.0001)                 1.983663068760452E+05,      /* J = 15 */
(PID.TID 0000.0001)                 2.099875157067021E+05,      /* J = 16 */
(PID.TID 0000.0001)                 2.211028462192875E+05,      /* J = 17 */
(PID.TID 0000.0001)                 2.316855206090085E+05,      /* J = 18 */
(PID.TID 0000.0001)                 2.417100442863275E+05,      /* J = 19 */
(PID.TID 0000.0001)                 2.511522672956614E+05,      /* J = 20 */
(PID.TID 0000.0001)                 2.599894424947395E+05,      /* J = 21 */
(PID.TID 0000.0001)                 2.682002803544621E+05,      /* J = 22 */
(PID.TID 0000.0001)                 2.757650002472408E+05,      /* J = 23 */
(PID.TID 0000.0001)                 2.826653781002625E+05,      /* J = 24 */
(PID.TID 0000.0001)                 2.888847902988777E+05,      /* J = 25 */
(PID.TID 0000.0001)                 2.944082537343438E+05,      /* J = 26 */
(PID.TID 0000.0001)                 2.992224618994464E+05,      /* J = 27 */
(PID.TID 0000.0001)                 3.033158169450409E+05,      /* J = 28 */
(PID.TID 0000.0001)                 3.066784576202870E+05,      /* J = 29 */
(PID.TID 0000.0001)                 3.093022830292655E+05,      /* J = 30 */
(PID.TID 0000.0001)                 3.111809721467461E+05,      /* J = 31 */
(PID.TID 0000.0001)                 3.123099990460912E+05,      /* J = 32 */
(PID.TID 0000.0001)                 3.126866438026091E+05,      /* J = 33 */
(PID.TID 0000.0001)                 3.123099990460912E+05,      /* J = 34 */
(PID.TID 0000.0001)                 3.111809721467461E+05,      /* J = 35 */
(PID.TID 0000.0001)                 3.093022830292655E+05,      /* J = 36 */
(PID.TID 0000.0001)                 3.066784576202870E+05,      /* J = 37 */
(PID.TID 0000.0001)                 3.033158169450409E+05,      /* J = 38 */
(PID.TID 0000.0001)                 2.992224618994464E+05,      /* J = 39 */
(PID.TID 0000.0001)                 2.944082537343438E+05,      /* J = 40 */
(PID.TID 0000.0001)                 2.888847902988777E+05,      /* J = 41 */
(PID.TID 0000.0001)                 2.826653781002625E+05,      /* J = 42 */
(PID.TID 0000.0001)                 2.757650002472408E+05,      /* J = 43 */
(PID.TID 0000.0001)                 2.682002803544621E+05,      /* J = 44 */
(PID.TID 0000.0001)                 2.599894424947395E+05,      /* J = 45 */
(PID.TID 0000.0001)                 2.511522672956614E+05,      /* J = 46 */
(PID.TID 0000.0001)                 2.417100442863275E+05,      /* J = 47 */
(PID.TID 0000.0001)                 2.316855206090085E+05,      /* J = 48 */
(PID.TID 0000.0001)                 2.211028462192875E+05,      /* J = 49 */
(PID.TID 0000.0001)                 2.099875157067021E+05,      /* J = 50 */
(PID.TID 0000.0001)                 1.983663068760452E+05,      /* J = 51 */
(PID.TID 0000.0001)                 1.862672162372875E+05,      /* J = 52 */
(PID.TID 0000.0001)                 1.737193915595329E+05,      /* J = 53 */
(PID.TID 0000.0001)                 1.607530616514898E+05,      /* J = 54 */
(PID.TID 0000.0001)                 1.473994635376230E+05,      /* J = 55 */
(PID.TID 0000.0001)                 1.336907672054259E+05,      /* J = 56 */
(PID.TID 0000.0001)                 1.196599981051027E+05,      /* J = 57 */
(PID.TID 0000.0001)                 1.053409575883663E+05,      /* J = 58 */
(PID.TID 0000.0001)                 9.076814147802140E+04,      /* J = 59 */
(PID.TID 0000.0001)                 7.597665696450579E+04,      /* J = 60 */
(PID.TID 0000.0001)                 6.100213802959342E+04,      /* J = 61 */
(PID.TID 0000.0001)                 4.588065960101153E+04,      /* J = 62 */
(PID.TID 0000.0001)                 3.064865064477965E+04,      /* J = 63 */
(PID.TID 0000.0001)                 1.534280640463982E+04       /* J = 64 */
(PID.TID 0000.0001)     ;
(PID.TID 0000.0001) dyG =  /* dyG(:,1,:,1) ( m - cartesian, degrees - spherical ) */
(PID.TID 0000.0001)                 3.126866438026091E+05       /* I =  1 */
(PID.TID 0000.0001)     ;
(PID.TID 0000.0001) dyG =  /* dyG(1,:,1,:) ( m - cartesian, degrees - spherical ) */
(PID.TID 0000.0001)    64 @  3.126866438026091E+05              /* J =  1: 64 */
(PID.TID 0000.0001)     ;
(PID.TID 0000.0001) dxC =  /* dxC(:,1,:,1) ( m - cartesian, degrees - spherical ) */
(PID.TID 0000.0001)                 7.673714381622298E+03       /* I =  1 */
(PID.TID 0000.0001)     ;
(PID.TID 0000.0001) dxC =  /* dxC(1,:,1,:) ( m - cartesian, degrees - spherical ) */
(PID.TID 0000.0001)                 7.673714381622298E+03,      /* J =  1 */
(PID.TID 0000.0001)                 2.300265649478360E+04,      /* J =  2 */
(PID.TID 0000.0001)                 3.827618319365421E+04,      /* J =  3 */
(PID.TID 0000.0001)                 5.345749921461356E+04,      /* J =  4 */
(PID.TID 0000.0001)                 6.851003143764105E+04,      /* J =  5 */
(PID.TID 0000.0001)                 8.339751699416523E+04,      /* J =  6 */
(PID.TID 0000.0001)                 9.808409062749070E+04,      /* J =  7 */
(PID.TID 0000.0001)                 1.125343710953429E+05,      /* J =  8 */
(PID.TID 0000.0001)                 1.267135464063795E+05,      /* J =  9 */
(PID.TID 0000.0001)                 1.405874576853274E+05,      /* J = 10 */
(PID.TID 0000.0001)                 1.541226814647045E+05,      /* J = 11 */
(PID.TID 0000.0001)                 1.672866102048804E+05,      /* J = 12 */
(PID.TID 0000.0001)                 1.800475308484964E+05,      /* J = 13 */
(PID.TID 0000.0001)                 1.923747012199971E+05,      /* J = 14 */
(PID.TID 0000.0001)                 2.042384240862251E+05,      /* J = 15 */
(PID.TID 0000.0001)                 2.156101186996563E+05,      /* J = 16 */
(PID.TID 0000.0001)                 2.264623896519241E+05,      /* J = 17 */
(PID.TID 0000.0001)                 2.367690928717576E+05,      /* J = 18 */
(PID.TID 0000.0001)                 2.465053986083400E+05,      /* J = 19 */
(PID.TID 0000.0001)                 2.556478512483520E+05,      /* J = 20 */
(PID.TID 0000.0001)                 2.641744258225996E+05,      /* J = 21 */
(PID.TID 0000.0001)                 2.720645810660936E+05,      /* J = 22 */
(PID.TID 0000.0001)                 2.792993089037566E+05,      /* J = 23 */
(PID.TID 0000.0001)                 2.858611802425402E+05,      /* J = 24 */
(PID.TID 0000.0001)                 2.917343869596373E+05,      /* J = 25 */
(PID.TID 0000.0001)                 2.969047799856343E+05,      /* J = 26 */
(PID.TID 0000.0001)                 3.013599033908587E+05,      /* J = 27 */
(PID.TID 0000.0001)                 3.050890243928044E+05,      /* J = 28 */
(PID.TID 0000.0001)                 3.080831592123453E+05,      /* J = 29 */
(PID.TID 0000.0001)                 3.103350947164461E+05,      /* J = 30 */
(PID.TID 0000.0001)                 3.118394057952310E+05,      /* J = 31 */
(PID.TID 0000.0001)     2 @  3.125924684315491E+05,             /* J = 32: 33 */
(PID.TID 0000.0001)                 3.118394057952310E+05,      /* J = 34 */
(PID.TID 0000.0001)                 3.103350947164461E+05,      /* J = 35 */
(PID.TID 0000.0001)                 3.080831592123453E+05,      /* J = 36 */
(PID.TID 0000.0001)                 3.050890243928044E+05,      /* J = 37 */
(PID.TID 0000.0001)                 3.013599033908587E+05,      /* J = 38 */
(PID.TID 0000.0001)                 2.969047799856343E+05,      /* J = 39 */
(PID.TID 0000.0001)                 2.917343869596373E+05,      /* J = 40 */
(PID.TID 0000.0001)                 2.858611802425402E+05,      /* J = 41 */
(PID.TID 0000.0001)                 2.792993089037566E+05,      /* J = 42 */
(PID.TID 0000.0001)                 2.720645810660936E+05,      /* J = 43 */
(PID.TID 0000.0001)                 2.641744258225996E+05,      /* J = 44 */
(PID.TID 0000.0001)                 2.556478512483520E+05,      /* J = 45 */
(PID.TID 0000.0001)                 2.465053986083400E+05,      /* J = 46 */
(PID.TID 0000.0001)                 2.367690928717576E+05,      /* J = 47 */
(PID.TID 0000.0001)                 2.264623896519241E+05,      /* J = 48 */
(PID.TID 0000.0001)                 2.156101186996563E+05,      /* J = 49 */
(PID.TID 0000.0001)                 2.042384240862251E+05,      /* J = 50 */
(PID.TID 0000.0001)                 1.923747012199971E+05,      /* J = 51 */
(PID.TID 0000.0001)                 1.800475308484964E+05,      /* J = 52 */
(PID.TID 0000.0001)                 1.672866102048804E+05,      /* J = 53 */
(PID.TID 0000.0001)                 1.541226814647045E+05,      /* J = 54 */
(PID.TID 0000.0001)                 1.405874576853274E+05,      /* J = 55 */
(PID.TID 0000.0001)                 1.267135464063795E+05,      /* J = 56 */
(PID.TID 0000.0001)                 1.125343710953429E+05,      /* J = 57 */
(PID.TID 0000.0001)                 9.808409062749070E+04,      /* J = 58 */
(PID.TID 0000.0001)                 8.339751699416523E+04,      /* J = 59 */
(PID.TID 0000.0001)                 6.851003143764105E+04,      /* J = 60 */
(PID.TID 0000.0001)                 5.345749921461356E+04,      /* J = 61 */
(PID.TID 0000.0001)                 3.827618319365421E+04,      /* J = 62 */
(PID.TID 0000.0001)                 2.300265649478360E+04,      /* J = 63 */
(PID.TID 0000.0001)                 7.673714381622298E+03       /* J = 64 */
(PID.TID 0000.0001)     ;
(PID.TID 0000.0001) dyC =  /* dyC(:,1,:,1) ( m - cartesian, degrees - spherical ) */
(PID.TID 0000.0001)                 3.126866438026091E+05       /* I =  1 */
(PID.TID 0000.0001)     ;
(PID.TID 0000.0001) dyC =  /* dyC(1,:,1,:) ( m - cartesian, degrees - spherical ) */
(PID.TID 0000.0001)    64 @  3.126866438026091E+05              /* J =  1: 64 */
(PID.TID 0000.0001)     ;
(PID.TID 0000.0001) dxV =  /* dxV(:,1,:,1) ( m - cartesian, degrees - spherical ) */
(PID.TID 0000.0001)                 0.000000000000000E+00       /* I =  1 */
(PID.TID 0000.0001)     ;
(PID.TID 0000.0001) dxV =  /* dxV(1,:,1,:) ( m - cartesian, degrees - spherical ) */
(PID.TID 0000.0001)                 0.000000000000000E+00,      /* J =  1 */
(PID.TID 0000.0001)                 1.534280640463982E+04,      /* J =  2 */
(PID.TID 0000.0001)                 3.064865064477965E+04,      /* J =  3 */
(PID.TID 0000.0001)                 4.588065960101153E+04,      /* J =  4 */
(PID.TID 0000.0001)                 6.100213802959342E+04,      /* J =  5 */
(PID.TID 0000.0001)                 7.597665696450579E+04,      /* J =  6 */
(PID.TID 0000.0001)                 9.076814147802140E+04,      /* J =  7 */
(PID.TID 0000.0001)                 1.053409575883663E+05,      /* J =  8 */
(PID.TID 0000.0001)                 1.196599981051027E+05,      /* J =  9 */
(PID.TID 0000.0001)                 1.336907672054259E+05,      /* J = 10 */
(PID.TID 0000.0001)                 1.473994635376230E+05,      /* J = 11 */
(PID.TID 0000.0001)                 1.607530616514898E+05,      /* J = 12 */
(PID.TID 0000.0001)                 1.737193915595329E+05,      /* J = 13 */
(PID.TID 0000.0001)                 1.862672162372875E+05,      /* J = 14 */
(PID.TID 0000.0001)                 1.983663068760452E+05,      /* J = 15 */
(PID.TID 0000.0001)                 2.099875157067021E+05,      /* J = 16 */
(PID.TID 0000.0001)                 2.211028462192875E+05,      /* J = 17 */
(PID.TID 0000.0001)                 2.316855206090085E+05,      /* J = 18 */
(PID.TID 0000.0001)                 2.417100442863275E+05,      /* J = 19 */
(PID.TID 0000.0001)                 2.511522672956614E+05,      /* J = 20 */
(PID.TID 0000.0001)                 2.599894424947395E+05,      /* J = 21 */
(PID.TID 0000.0001)                 2.682002803544621E+05,      /* J = 22 */
(PID.TID 0000.0001)                 2.757650002472408E+05,      /* J = 23 */
(PID.TID 0000.0001)                 2.826653781002625E+05,      /* J = 24 */
(PID.TID 0000.0001)                 2.888847902988777E+05,      /* J = 25 */
(PID.TID 0000.0001)                 2.944082537343438E+05,      /* J = 26 */
(PID.TID 0000.0001)                 2.992224618994464E+05,      /* J = 27 */
(PID.TID 0000.0001)                 3.033158169450409E+05,      /* J = 28 */
(PID.TID 0000.0001)                 3.066784576202870E+05,      /* J = 29 */
(PID.TID 0000.0001)                 3.093022830292655E+05,      /* J = 30 */
(PID.TID 0000.0001)                 3.111809721467461E+05,      /* J = 31 */
(PID.TID 0000.0001)                 3.123099990460912E+05,      /* J = 32 */
(PID.TID 0000.0001)                 3.126866438026091E+05,      /* J = 33 */
(PID.TID 0000.0001)                 3.123099990460912E+05,      /* J = 34 */
(PID.TID 0000.0001)                 3.111809721467461E+05,      /* J = 35 */
(PID.TID 0000.0001)                 3.093022830292655E+05,      /* J = 36 */
(PID.TID 0000.0001)                 3.066784576202870E+05,      /* J = 37 */
(PID.TID 0000.0001)                 3.033158169450409E+05,      /* J = 38 */
(PID.TID 0000.0001)                 2.992224618994464E+05,      /* J = 39 */
(PID.TID 0000.0001)                 2.944082537343438E+05,      /* J = 40 */
(PID.TID 0000.0001)                 2.888847902988777E+05,      /* J = 41 */
(PID.TID 0000.0001)                 2.826653781002625E+05,      /* J = 42 */
(PID.TID 0000.0001)                 2.757650002472408E+05,      /* J = 43 */
(PID.TID 0000.0001)                 2.682002803544621E+05,      /* J = 44 */
(PID.TID 0000.0001)                 2.599894424947395E+05,      /* J = 45 */
(PID.TID 0000.0001)                 2.511522672956614E+05,      /* J = 46 */
(PID.TID 0000.0001)                 2.417100442863275E+05,      /* J = 47 */
(PID.TID 0000.0001)                 2.316855206090085E+05,      /* J = 48 */
(PID.TID 0000.0001)                 2.211028462192875E+05,      /* J = 49 */
(PID.TID 0000.0001)                 2.099875157067021E+05,      /* J = 50 */
(PID.TID 0000.0001)                 1.983663068760452E+05,      /* J = 51 */
(PID.TID 0000.0001)                 1.862672162372875E+05,      /* J = 52 */
(PID.TID 0000.0001)                 1.737193915595329E+05,      /* J = 53 */
(PID.TID 0000.0001)                 1.607530616514898E+05,      /* J = 54 */
(PID.TID 0000.0001)                 1.473994635376230E+05,      /* J = 55 */
(PID.TID 0000.0001)                 1.336907672054259E+05,      /* J = 56 */
(PID.TID 0000.0001)                 1.196599981051027E+05,      /* J = 57 */
(PID.TID 0000.0001)                 1.053409575883663E+05,      /* J = 58 */
(PID.TID 0000.0001)                 9.076814147802140E+04,      /* J = 59 */
(PID.TID 0000.0001)                 7.597665696450579E+04,      /* J = 60 */
(PID.TID 0000.0001)                 6.100213802959342E+04,      /* J = 61 */
(PID.TID 0000.0001)                 4.588065960101153E+04,      /* J = 62 */
(PID.TID 0000.0001)                 3.064865064477965E+04,      /* J = 63 */
(PID.TID 0000.0001)                 1.534280640463982E+04       /* J = 64 */
(PID.TID 0000.0001)     ;
(PID.TID 0000.0001) dyU =  /* dyU(:,1,:,1) ( m - cartesian, degrees - spherical ) */
(PID.TID 0000.0001)                 3.126866438026091E+05       /* I =  1 */
(PID.TID 0000.0001)     ;
(PID.TID 0000.0001) dyU =  /* dyU(1,:,1,:) ( m - cartesian, degrees - spherical ) */
(PID.TID 0000.0001)    64 @  3.126866438026091E+05              /* J =  1: 64 */
(PID.TID 0000.0001)     ;
(PID.TID 0000.0001) rA =  /* rA(:,1,:,1) ( m - cartesian, degrees - spherical ) */
(PID.TID 0000.0001)                 2.399227099019018E+09       /* I =  1 */
(PID.TID 0000.0001)     ;
(PID.TID 0000.0001) rA =  /* rA(1,:,1,:) ( m - cartesian, degrees - spherical ) */
(PID.TID 0000.0001)                 2.399227099019018E+09,      /* J =  1 */
(PID.TID 0000.0001)                 7.191901348828021E+09,      /* J =  2 */
(PID.TID 0000.0001)                 1.196724967835163E+10,      /* J =  3 */
(PID.TID 0000.0001)                 1.671376785519291E+10,      /* J =  4 */
(PID.TID 0000.0001)                 2.142002110131773E+10,      /* J =  5 */
(PID.TID 0000.0001)                 2.607467164043702E+10,      /* J =  6 */
(PID.TID 0000.0001)                 3.066650601170339E+10,      /* J =  7 */
(PID.TID 0000.0001)                 3.518446208391876E+10,      /* J =  8 */
(PID.TID 0000.0001)                 3.961765570517892E+10,      /* J =  9 */
(PID.TID 0000.0001)                 4.395540692374851E+10,      /* J = 10 */
(PID.TID 0000.0001)                 4.818726571700002E+10,      /* J = 11 */
(PID.TID 0000.0001)                 5.230303716643325E+10,      /* J = 12 */
(PID.TID 0000.0001)                 5.629280601812737E+10,      /* J = 13 */
(PID.TID 0000.0001)                 6.014696056945654E+10,      /* J = 14 */
(PID.TID 0000.0001)                 6.385621582452226E+10,      /* J = 15 */
(PID.TID 0000.0001)                 6.741163586252304E+10,      /* J = 16 */
(PID.TID 0000.0001)                 7.080465536516855E+10,      /* J = 17 */
(PID.TID 0000.0001)                 7.402710025128447E+10,      /* J = 18 */
(PID.TID 0000.0001)                 7.707120736888655E+10,      /* J = 19 */
(PID.TID 0000.0001)                 7.992964319729686E+10,      /* J = 20 */
(PID.TID 0000.0001)                 8.259552151423448E+10,      /* J = 21 */
(PID.TID 0000.0001)                 8.506241998533156E+10,      /* J = 22 */
(PID.TID 0000.0001)                 8.732439563609563E+10,      /* J = 23 */
(PID.TID 0000.0001)                 8.937599916905870E+10,      /* J = 24 */
(PID.TID 0000.0001)                 9.121228809161061E+10,      /* J = 25 */
(PID.TID 0000.0001)                 9.282883862289702E+10,      /* J = 26 */
(PID.TID 0000.0001)                 9.422175635109479E+10,      /* J = 27 */
(PID.TID 0000.0001)                 9.538768561539166E+10,      /* J = 28 */
(PID.TID 0000.0001)                 9.632381759006653E+10,      /* J = 29 */
(PID.TID 0000.0001)                 9.702789705119698E+10,      /* J = 30 */
(PID.TID 0000.0001)                 9.749822780969104E+10,      /* J = 31 */
(PID.TID 0000.0001)     2 @  9.773367679755542E+10,             /* J = 32: 33 */
(PID.TID 0000.0001)                 9.749822780969106E+10,      /* J = 34 */
(PID.TID 0000.0001)                 9.702789705119699E+10,      /* J = 35 */
(PID.TID 0000.0001)                 9.632381759006651E+10,      /* J = 36 */
(PID.TID 0000.0001)                 9.538768561539162E+10,      /* J = 37 */
(PID.TID 0000.0001)                 9.422175635109473E+10,      /* J = 38 */
(PID.TID 0000.0001)                 9.282883862289699E+10,      /* J = 39 */
(PID.TID 0000.0001)                 9.121228809161069E+10,      /* J = 40 */
(PID.TID 0000.0001)                 8.937599916905876E+10,      /* J = 41 */
(PID.TID 0000.0001)                 8.732439563609566E+10,      /* J = 42 */
(PID.TID 0000.0001)                 8.506241998533160E+10,      /* J = 43 */
(PID.TID 0000.0001)                 8.259552151423447E+10,      /* J = 44 */
(PID.TID 0000.0001)                 7.992964319729677E+10,      /* J = 45 */
(PID.TID 0000.0001)                 7.707120736888655E+10,      /* J = 46 */
(PID.TID 0000.0001)                 7.402710025128453E+10,      /* J = 47 */
(PID.TID 0000.0001)                 7.080465536516850E+10,      /* J = 48 */
(PID.TID 0000.0001)                 6.741163586252296E+10,      /* J = 49 */
(PID.TID 0000.0001)                 6.385621582452237E+10,      /* J = 50 */
(PID.TID 0000.0001)                 6.014696056945670E+10,      /* J = 51 */
(PID.TID 0000.0001)                 5.629280601812745E+10,      /* J = 52 */
(PID.TID 0000.0001)                 5.230303716643337E+10,      /* J = 53 */
(PID.TID 0000.0001)                 4.818726571700008E+10,      /* J = 54 */
(PID.TID 0000.0001)                 4.395540692374858E+10,      /* J = 55 */
(PID.TID 0000.0001)                 3.961765570517902E+10,      /* J = 56 */
(PID.TID 0000.0001)                 3.518446208391881E+10,      /* J = 57 */
(PID.TID 0000.0001)                 3.066650601170354E+10,      /* J = 58 */
(PID.TID 0000.0001)                 2.607467164043715E+10,      /* J = 59 */
(PID.TID 0000.0001)                 2.142002110131773E+10,      /* J = 60 */
(PID.TID 0000.0001)                 1.671376785519297E+10,      /* J = 61 */
(PID.TID 0000.0001)                 1.196724967835179E+10,      /* J = 62 */
(PID.TID 0000.0001)                 7.191901348828131E+09,      /* J = 63 */
(PID.TID 0000.0001)                 2.399227099019054E+09       /* J = 64 */
(PID.TID 0000.0001)     ;
(PID.TID 0000.0001) rAw =  /* rAw(:,1,:,1) ( m - cartesian, degrees - spherical ) */
(PID.TID 0000.0001)                 2.399227099019018E+09       /* I =  1 */
(PID.TID 0000.0001)     ;
(PID.TID 0000.0001) rAw =  /* rAw(1,:,1,:) ( m - cartesian, degrees - spherical ) */
(PID.TID 0000.0001)                 2.399227099019018E+09,      /* J =  1 */
(PID.TID 0000.0001)                 7.191901348828021E+09,      /* J =  2 */
(PID.TID 0000.0001)                 1.196724967835163E+10,      /* J =  3 */
(PID.TID 0000.0001)                 1.671376785519291E+10,      /* J =  4 */
(PID.TID 0000.0001)                 2.142002110131773E+10,      /* J =  5 */
(PID.TID 0000.0001)                 2.607467164043702E+10,      /* J =  6 */
(PID.TID 0000.0001)                 3.066650601170339E+10,      /* J =  7 */
(PID.TID 0000.0001)                 3.518446208391876E+10,      /* J =  8 */
(PID.TID 0000.0001)                 3.961765570517892E+10,      /* J =  9 */
(PID.TID 0000.0001)                 4.395540692374851E+10,      /* J = 10 */
(PID.TID 0000.0001)                 4.818726571700002E+10,      /* J = 11 */
(PID.TID 0000.0001)                 5.230303716643325E+10,      /* J = 12 */
(PID.TID 0000.0001)                 5.629280601812737E+10,      /* J = 13 */
(PID.TID 0000.0001)                 6.014696056945654E+10,      /* J = 14 */
(PID.TID 0000.0001)                 6.385621582452226E+10,      /* J = 15 */
(PID.TID 0000.0001)                 6.741163586252304E+10,      /* J = 16 */
(PID.TID 0000.0001)                 7.080465536516855E+10,      /* J = 17 */
(PID.TID 0000.0001)                 7.402710025128447E+10,      /* J = 18 */
(PID.TID 0000.0001)                 7.707120736888655E+10,      /* J = 19 */
(PID.TID 0000.0001)                 7.992964319729686E+10,      /* J = 20 */
(PID.TID 0000.0001)                 8.259552151423448E+10,      /* J = 21 */
(PID.TID 0000.0001)                 8.506241998533156E+10,      /* J = 22 */
(PID.TID 0000.0001)                 8.732439563609563E+10,      /* J = 23 */
(PID.TID 0000.0001)                 8.937599916905870E+10,      /* J = 24 */
(PID.TID 0000.0001)                 9.121228809161061E+10,      /* J = 25 */
(PID.TID 0000.0001)                 9.282883862289702E+10,      /* J = 26 */
(PID.TID 0000.0001)                 9.422175635109479E+10,      /* J = 27 */
(PID.TID 0000.0001)                 9.538768561539166E+10,      /* J = 28 */
(PID.TID 0000.0001)                 9.632381759006653E+10,      /* J = 29 */
(PID.TID 0000.0001)                 9.702789705119698E+10,      /* J = 30 */
(PID.TID 0000.0001)                 9.749822780969104E+10,      /* J = 31 */
(PID.TID 0000.0001)     2 @  9.773367679755542E+10,             /* J = 32: 33 */
(PID.TID 0000.0001)                 9.749822780969106E+10,      /* J = 34 */
(PID.TID 0000.0001)                 9.702789705119699E+10,      /* J = 35 */
(PID.TID 0000.0001)                 9.632381759006651E+10,      /* J = 36 */
(PID.TID 0000.0001)                 9.538768561539162E+10,      /* J = 37 */
(PID.TID 0000.0001)                 9.422175635109473E+10,      /* J = 38 */
(PID.TID 0000.0001)                 9.282883862289699E+10,      /* J = 39 */
(PID.TID 0000.0001)                 9.121228809161069E+10,      /* J = 40 */
(PID.TID 0000.0001)                 8.937599916905876E+10,      /* J = 41 */
(PID.TID 0000.0001)                 8.732439563609566E+10,      /* J = 42 */
(PID.TID 0000.0001)                 8.506241998533160E+10,      /* J = 43 */
(PID.TID 0000.0001)                 8.259552151423447E+10,      /* J = 44 */
(PID.TID 0000.0001)                 7.992964319729677E+10,      /* J = 45 */
(PID.TID 0000.0001)                 7.707120736888655E+10,      /* J = 46 */
(PID.TID 0000.0001)                 7.402710025128453E+10,      /* J = 47 */
(PID.TID 0000.0001)                 7.080465536516850E+10,      /* J = 48 */
(PID.TID 0000.0001)                 6.741163586252296E+10,      /* J = 49 */
(PID.TID 0000.0001)                 6.385621582452237E+10,      /* J = 50 */
(PID.TID 0000.0001)                 6.014696056945670E+10,      /* J = 51 */
(PID.TID 0000.0001)                 5.629280601812745E+10,      /* J = 52 */
(PID.TID 0000.0001)                 5.230303716643337E+10,      /* J = 53 */
(PID.TID 0000.0001)                 4.818726571700008E+10,      /* J = 54 */
(PID.TID 0000.0001)                 4.395540692374858E+10,      /* J = 55 */
(PID.TID 0000.0001)                 3.961765570517902E+10,      /* J = 56 */
(PID.TID 0000.0001)                 3.518446208391881E+10,      /* J = 57 */
(PID.TID 0000.0001)                 3.066650601170354E+10,      /* J = 58 */
(PID.TID 0000.0001)                 2.607467164043715E+10,      /* J = 59 */
(PID.TID 0000.0001)                 2.142002110131773E+10,      /* J = 60 */
(PID.TID 0000.0001)                 1.671376785519297E+10,      /* J = 61 */
(PID.TID 0000.0001)                 1.196724967835179E+10,      /* J = 62 */
(PID.TID 0000.0001)                 7.191901348828131E+09,      /* J = 63 */
(PID.TID 0000.0001)                 2.399227099019054E+09       /* J = 64 */
(PID.TID 0000.0001)     ;
(PID.TID 0000.0001) rAs =  /* rAs(:,1,:,1) ( m - cartesian, degrees - spherical ) */
(PID.TID 0000.0001)                 0.000000000000000E+00       /* I =  1 */
(PID.TID 0000.0001)     ;
(PID.TID 0000.0001) rAs =  /* rAs(1,:,1,:) ( m - cartesian, degrees - spherical ) */
(PID.TID 0000.0001)                 0.000000000000000E+00,      /* J =  1 */
(PID.TID 0000.0001)                 4.797008993346535E+09,      /* J =  2 */
(PID.TID 0000.0001)                 9.582461571859753E+09,      /* J =  3 */
(PID.TID 0000.0001)                 1.434482916112179E+10,      /* J =  4 */
(PID.TID 0000.0001)                 1.907263880047602E+10,      /* J =  5 */
(PID.TID 0000.0001)                 2.375450078239419E+10,      /* J =  6 */
(PID.TID 0000.0001)                 2.837913609127885E+10,      /* J =  7 */
(PID.TID 0000.0001)                 3.293540357560104E+10,      /* J =  8 */
(PID.TID 0000.0001)                 3.741232678790869E+10,      /* J =  9 */
(PID.TID 0000.0001)                 4.179912042805186E+10,      /* J = 10 */
(PID.TID 0000.0001)                 4.608521632591322E+10,      /* J = 11 */
(PID.TID 0000.0001)                 5.026028890105708E+10,      /* J = 12 */
(PID.TID 0000.0001)                 5.431428003795676E+10,      /* J = 13 */
(PID.TID 0000.0001)                 5.823742331687631E+10,      /* J = 14 */
(PID.TID 0000.0001)                 6.202026754202970E+10,      /* J = 15 */
(PID.TID 0000.0001)                 6.565369951034013E+10,      /* J = 16 */
(PID.TID 0000.0001)                 6.912896596594563E+10,      /* J = 17 */
(PID.TID 0000.0001)                 7.243769468755643E+10,      /* J = 18 */
(PID.TID 0000.0001)                 7.557191465787257E+10,      /* J = 19 */
(PID.TID 0000.0001)                 7.852407526645963E+10,      /* J = 20 */
(PID.TID 0000.0001)                 8.128706449983357E+10,      /* J = 21 */
(PID.TID 0000.0001)                 8.385422607492099E+10,      /* J = 22 */
(PID.TID 0000.0001)                 8.621937547463150E+10,      /* J = 23 */
(PID.TID 0000.0001)                 8.837681484689815E+10,      /* J = 24 */
(PID.TID 0000.0001)                 9.032134673130380E+10,      /* J = 25 */
(PID.TID 0000.0001)                 9.204828658021814E+10,      /* J = 26 */
(PID.TID 0000.0001)                 9.355347404428311E+10,      /* J = 27 */
(PID.TID 0000.0001)                 9.483328299505893E+10,      /* J = 28 */
(PID.TID 0000.0001)                 9.588463026068498E+10,      /* J = 29 */
(PID.TID 0000.0001)                 9.670498305351135E+10,      /* J = 30 */
(PID.TID 0000.0001)                 9.729236507180571E+10,      /* J = 31 */
(PID.TID 0000.0001)                 9.764536126083737E+10,      /* J = 32 */
(PID.TID 0000.0001)                 9.776312122186816E+10,      /* J = 33 */
(PID.TID 0000.0001)                 9.764536126083739E+10,      /* J = 34 */
(PID.TID 0000.0001)                 9.729236507180573E+10,      /* J = 35 */
(PID.TID 0000.0001)                 9.670498305351135E+10,      /* J = 36 */
(PID.TID 0000.0001)                 9.588463026068500E+10,      /* J = 37 */
(PID.TID 0000.0001)                 9.483328299505898E+10,      /* J = 38 */
(PID.TID 0000.0001)                 9.355347404428320E+10,      /* J = 39 */
(PID.TID 0000.0001)                 9.204828658021820E+10,      /* J = 40 */
(PID.TID 0000.0001)                 9.032134673130377E+10,      /* J = 41 */
(PID.TID 0000.0001)                 8.837681484689807E+10,      /* J = 42 */
(PID.TID 0000.0001)                 8.621937547463145E+10,      /* J = 43 */
(PID.TID 0000.0001)                 8.385422607492096E+10,      /* J = 44 */
(PID.TID 0000.0001)                 8.128706449983362E+10,      /* J = 45 */
(PID.TID 0000.0001)                 7.852407526645972E+10,      /* J = 46 */
(PID.TID 0000.0001)                 7.557191465787259E+10,      /* J = 47 */
(PID.TID 0000.0001)                 7.243769468755630E+10,      /* J = 48 */
(PID.TID 0000.0001)                 6.912896596594548E+10,      /* J = 49 */
(PID.TID 0000.0001)                 6.565369951033997E+10,      /* J = 50 */
(PID.TID 0000.0001)                 6.202026754202954E+10,      /* J = 51 */
(PID.TID 0000.0001)                 5.823742331687636E+10,      /* J = 52 */
(PID.TID 0000.0001)                 5.431428003795686E+10,      /* J = 53 */
(PID.TID 0000.0001)                 5.026028890105701E+10,      /* J = 54 */
(PID.TID 0000.0001)                 4.608521632591317E+10,      /* J = 55 */
(PID.TID 0000.0001)                 4.179912042805193E+10,      /* J = 56 */
(PID.TID 0000.0001)                 3.741232678790874E+10,      /* J = 57 */
(PID.TID 0000.0001)                 3.293540357560111E+10,      /* J = 58 */
(PID.TID 0000.0001)                 2.837913609127888E+10,      /* J = 59 */
(PID.TID 0000.0001)                 2.375450078239418E+10,      /* J = 60 */
(PID.TID 0000.0001)                 1.907263880047598E+10,      /* J = 61 */
(PID.TID 0000.0001)                 1.434482916112167E+10,      /* J = 62 */
(PID.TID 0000.0001)                 9.582461571859699E+09,      /* J = 63 */
(PID.TID 0000.0001)                 4.797008993346580E+09       /* J = 64 */
(PID.TID 0000.0001)     ;
(PID.TID 0000.0001) 
(PID.TID 0000.0001) // =======================================================
(PID.TID 0000.0001) // Field Initial Temperature at iteration          1
(PID.TID 0000.0001) // CMIN =          2.550364452389422E+02
(PID.TID 0000.0001) // CMAX =          3.154764877049333E+02
(PID.TID 0000.0001) // CINT =          2.238520091333006E+00
(PID.TID 0000.0001) // SYMBOLS (CMIN->CMAX): -abcdefghijklmnopqrstuvwxyz+
(PID.TID 0000.0001) //                  0.0: .
(PID.TID 0000.0001) // RANGE I (Lo:Hi:Step):(   1:   1:   1)
(PID.TID 0000.0001) // RANGE J (Lo:Hi:Step):(  64:   1:  -1)
(PID.TID 0000.0001) // RANGE K (Lo:Hi:Step):(   1:   1:   1)
(PID.TID 0000.0001) // =======================================================
(PID.TID 0000.0001) K =   1
(PID.TID 0000.0001) 
(PID.TID 0000.0001) |--J--|1
(PID.TID 0000.0001)     64 -
(PID.TID 0000.0001)     63 -
(PID.TID 0000.0001)     62 -
(PID.TID 0000.0001)     61 a
(PID.TID 0000.0001)     60 a
(PID.TID 0000.0001)     59 b
(PID.TID 0000.0001)     58 c
(PID.TID 0000.0001)     57 c
(PID.TID 0000.0001)     56 d
(PID.TID 0000.0001)     55 e
(PID.TID 0000.0001)     54 g
(PID.TID 0000.0001)     53 h
(PID.TID 0000.0001)     52 i
(PID.TID 0000.0001)     51 j
(PID.TID 0000.0001)     50 l
(PID.TID 0000.0001)     49 m
(PID.TID 0000.0001)     48 n
(PID.TID 0000.0001)     47 o
(PID.TID 0000.0001)     46 q
(PID.TID 0000.0001)     45 r
(PID.TID 0000.0001)     44 s
(PID.TID 0000.0001)     43 t
(PID.TID 0000.0001)     42 v
(PID.TID 0000.0001)     41 w
(PID.TID 0000.0001)     40 x
(PID.TID 0000.0001)     39 x
(PID.TID 0000.0001)     38 y
(PID.TID 0000.0001)     37 z
(PID.TID 0000.0001)     36 z
(PID.TID 0000.0001)     35 +
(PID.TID 0000.0001)     34 +
(PID.TID 0000.0001)     33 +
(PID.TID 0000.0001)     32 +
(PID.TID 0000.0001)     31 +
(PID.TID 0000.0001)     30 +
(PID.TID 0000.0001)     29 z
(PID.TID 0000.0001)     28 z
(PID.TID 0000.0001)     27 y
(PID.TID 0000.0001)     26 x
(PID.TID 0000.0001)     25 x
(PID.TID 0000.0001)     24 w
(PID.TID 0000.0001)     23 v
(PID.TID 0000.0001)     22 t
(PID.TID 0000.0001)     21 s
(PID.TID 0000.0001)     20 r
(PID.TID 0000.0001)     19 q
(PID.TID 0000.0001)     18 o
(PID.TID 0000.0001)     17 n
(PID.TID 0000.0001)     16 m
(PID.TID 0000.0001)     15 l
(PID.TID 0000.0001)     14 j
(PID.TID 0000.0001)     13 i
(PID.TID 0000.0001)     12 h
(PID.TID 0000.0001)     11 g
(PID.TID 0000.0001)     10 e
(PID.TID 0000.0001)      9 d
(PID.TID 0000.0001)      8 c
(PID.TID 0000.0001)      7 c
(PID.TID 0000.0001)      6 b
(PID.TID 0000.0001)      5 a
(PID.TID 0000.0001)      4 a
(PID.TID 0000.0001)      3 -
(PID.TID 0000.0001)      2 -
(PID.TID 0000.0001)      1 -
(PID.TID 0000.0001) // =======================================================
(PID.TID 0000.0001) // END OF FIELD                                          =
(PID.TID 0000.0001) // =======================================================
(PID.TID 0000.0001) 
(PID.TID 0000.0001) // =======================================================
(PID.TID 0000.0001) // Field Initial Salinity at iteration          1
(PID.TID 0000.0001) // CMIN =          1.000000000000000E+32
(PID.TID 0000.0001) // CMAX =         -1.000000000000000E+32
(PID.TID 0000.0001) // CINT =          0.000000000000000E+00
(PID.TID 0000.0001) // SYMBOLS (CMIN->CMAX): -abcdefghijklmnopqrstuvwxyz+
(PID.TID 0000.0001) //                  0.0: .
(PID.TID 0000.0001) // RANGE I (Lo:Hi:Step):(   1:   1:   1)
(PID.TID 0000.0001) // RANGE J (Lo:Hi:Step):(  64:   1:  -1)
(PID.TID 0000.0001) // RANGE K (Lo:Hi:Step):(   1:   1:   1)
(PID.TID 0000.0001) // =======================================================
(PID.TID 0000.0001) // =======================================================
(PID.TID 0000.0001) // END OF FIELD                                          =
(PID.TID 0000.0001) // =======================================================
(PID.TID 0000.0001) 
(PID.TID 0000.0001) Start initial hydrostatic pressure computation
(PID.TID 0000.0001) Pressure is predetermined for buoyancyRelation ATMOSPHERIC
(PID.TID 0000.0001) 
(PID.TID 0000.0001) // =======================================================
(PID.TID 0000.0001) // Model current state
(PID.TID 0000.0001) // =======================================================
(PID.TID 0000.0001) 
(PID.TID 0000.0001) // =======================================================
(PID.TID 0000.0001) // Begin MONITOR dynamic field statistics
(PID.TID 0000.0001) // =======================================================
(PID.TID 0000.0001) %MON time_tsnumber                =                     0
(PID.TID 0000.0001) %MON time_secondsf                =   0.0000000000000E+00
(PID.TID 0000.0001) %MON dynstat_eta_max              =   0.0000000000000E+00
(PID.TID 0000.0001) %MON dynstat_eta_min              =   0.0000000000000E+00
(PID.TID 0000.0001) %MON dynstat_eta_mean             =   0.0000000000000E+00
(PID.TID 0000.0001) %MON dynstat_eta_sd               =   0.0000000000000E+00
(PID.TID 0000.0001) %MON dynstat_eta_del2             =   0.0000000000000E+00
(PID.TID 0000.0001) %MON dynstat_uvel_max             =   0.0000000000000E+00
(PID.TID 0000.0001) %MON dynstat_uvel_min             =   0.0000000000000E+00
(PID.TID 0000.0001) %MON dynstat_uvel_mean            =   0.0000000000000E+00
(PID.TID 0000.0001) %MON dynstat_uvel_sd              =   0.0000000000000E+00
(PID.TID 0000.0001) %MON dynstat_uvel_del2            =   0.0000000000000E+00
(PID.TID 0000.0001) %MON dynstat_vvel_max             =   0.0000000000000E+00
(PID.TID 0000.0001) %MON dynstat_vvel_min             =   0.0000000000000E+00
(PID.TID 0000.0001) %MON dynstat_vvel_mean            =   0.0000000000000E+00
(PID.TID 0000.0001) %MON dynstat_vvel_sd              =   0.0000000000000E+00
(PID.TID 0000.0001) %MON dynstat_vvel_del2            =   0.0000000000000E+00
(PID.TID 0000.0001) %MON dynstat_wvel_max             =   0.0000000000000E+00
(PID.TID 0000.0001) %MON dynstat_wvel_min             =   0.0000000000000E+00
(PID.TID 0000.0001) %MON dynstat_wvel_mean            =   0.0000000000000E+00
(PID.TID 0000.0001) %MON dynstat_wvel_sd              =   0.0000000000000E+00
(PID.TID 0000.0001) %MON dynstat_wvel_del2            =   0.0000000000000E+00
(PID.TID 0000.0001) %MON dynstat_theta_max            =   4.1921910192279E+02
(PID.TID 0000.0001) %MON dynstat_theta_min            =   2.5503644523894E+02
(PID.TID 0000.0001) %MON dynstat_theta_mean           =   3.1867742639047E+02
(PID.TID 0000.0001) %MON dynstat_theta_sd             =   4.5642507144469E+01
(PID.TID 0000.0001) %MON dynstat_theta_del2           =   4.0241168714763E-02
(PID.TID 0000.0001) %MON dynstat_salt_max             =   0.0000000000000E+00
(PID.TID 0000.0001) %MON dynstat_salt_min             =   0.0000000000000E+00
(PID.TID 0000.0001) %MON dynstat_salt_mean            =   0.0000000000000E+00
(PID.TID 0000.0001) %MON dynstat_salt_sd              =   0.0000000000000E+00
(PID.TID 0000.0001) %MON dynstat_salt_del2            =   0.0000000000000E+00
(PID.TID 0000.0001) %MON advcfl_uvel_max              =   0.0000000000000E+00
(PID.TID 0000.0001) %MON advcfl_vvel_max              =   0.0000000000000E+00
(PID.TID 0000.0001) %MON advcfl_wvel_max              =   0.0000000000000E+00
(PID.TID 0000.0001) %MON advcfl_W_hf_max              =   0.0000000000000E+00
(PID.TID 0000.0001) %MON pe_b_mean                    =   0.0000000000000E+00
(PID.TID 0000.0001) %MON ke_max                       =   0.0000000000000E+00
(PID.TID 0000.0001) %MON ke_mean                      =   0.0000000000000E+00
(PID.TID 0000.0001) %MON ke_vol                       =   3.9836278420452E+17
(PID.TID 0000.0001) %MON vort_r_min                   =   0.0000000000000E+00
(PID.TID 0000.0001) %MON vort_r_max                   =   0.0000000000000E+00
(PID.TID 0000.0001) %MON vort_a_mean                  =  -4.2495642961465E-20
(PID.TID 0000.0001) %MON vort_a_sd                    =   8.3955319514376E-05
(PID.TID 0000.0001) %MON vort_p_mean                  =  -4.2495642961465E-20
(PID.TID 0000.0001) %MON vort_p_sd                    =   8.3955319514376E-05
(PID.TID 0000.0001) %MON surfExpan_theta_mean         =   0.0000000000000E+00
(PID.TID 0000.0001) %MON surfExpan_salt_mean          =   0.0000000000000E+00
(PID.TID 0000.0001) %MON surfExpan_Heat_mean          =   0.0000000000000E+00
(PID.TID 0000.0001) %MON En_Budget_T2PE_mean          =   0.0000000000000E+00
(PID.TID 0000.0001) // =======================================================
(PID.TID 0000.0001) // End MONITOR dynamic field statistics
(PID.TID 0000.0001) // =======================================================
 cg2d: Sum(rhs),rhsMax =   9.26342336171615E-16  2.88737728247795E+00
(PID.TID 0000.0001)                    cg2d_init_res =    2.65379766255623E+00
(PID.TID 0000.0001)                       cg2d_iters =    32
(PID.TID 0000.0001)                         cg2d_res =    1.01207489177499E-14
(PID.TID 0000.0001) // =======================================================
(PID.TID 0000.0001) // Begin MONITOR dynamic field statistics
(PID.TID 0000.0001) // =======================================================
(PID.TID 0000.0001) %MON time_tsnumber                =                     1
(PID.TID 0000.0001) %MON time_secondsf                =   1.2000000000000E+03
(PID.TID 0000.0001) %MON dynstat_eta_max              =   1.4335929317076E+02
(PID.TID 0000.0001) %MON dynstat_eta_min              =  -9.2440655437748E+01
(PID.TID 0000.0001) %MON dynstat_eta_mean             =  -1.6824417203206E-15
(PID.TID 0000.0001) %MON dynstat_eta_sd               =   7.6638475231188E+01
(PID.TID 0000.0001) %MON dynstat_eta_del2             =   1.4844960295163E+00
(PID.TID 0000.0001) %MON dynstat_uvel_max             =   0.0000000000000E+00
(PID.TID 0000.0001) %MON dynstat_uvel_min             =   0.0000000000000E+00
(PID.TID 0000.0001) %MON dynstat_uvel_mean            =   0.0000000000000E+00
(PID.TID 0000.0001) %MON dynstat_uvel_sd              =   0.0000000000000E+00
(PID.TID 0000.0001) %MON dynstat_uvel_del2            =   0.0000000000000E+00
(PID.TID 0000.0001) %MON dynstat_vvel_max             =   5.2726909686249E+00
(PID.TID 0000.0001) %MON dynstat_vvel_min             =  -5.2726909686249E+00
(PID.TID 0000.0001) %MON dynstat_vvel_mean            =  -3.2141195889310E-16
(PID.TID 0000.0001) %MON dynstat_vvel_sd              =   1.9374164694620E+00
(PID.TID 0000.0001) %MON dynstat_vvel_del2            =   1.5137856527388E-02
(PID.TID 0000.0001) %MON dynstat_wvel_max             =   1.1946607741163E-01
(PID.TID 0000.0001) %MON dynstat_wvel_min             =  -7.7033880492040E-02
(PID.TID 0000.0001) %MON dynstat_wvel_mean            =  -1.0380284284598E-19
(PID.TID 0000.0001) %MON dynstat_wvel_sd              =   5.1844391590185E-02
(PID.TID 0000.0001) %MON dynstat_wvel_del2            =   1.6738623106660E-03
(PID.TID 0000.0001) %MON dynstat_theta_max            =   4.1955348553144E+02
(PID.TID 0000.0001) %MON dynstat_theta_min            =   2.5503646775353E+02
(PID.TID 0000.0001) %MON dynstat_theta_mean           =   3.1869076282457E+02
(PID.TID 0000.0001) %MON dynstat_theta_sd             =   4.5634438533528E+01
(PID.TID 0000.0001) %MON dynstat_theta_del2           =   4.2535946056031E-02
(PID.TID 0000.0001) %MON dynstat_salt_max             =   0.0000000000000E+00
(PID.TID 0000.0001) %MON dynstat_salt_min             =   0.0000000000000E+00
(PID.TID 0000.0001) %MON dynstat_salt_mean            =   0.0000000000000E+00
(PID.TID 0000.0001) %MON dynstat_salt_sd              =   0.0000000000000E+00
(PID.TID 0000.0001) %MON dynstat_salt_del2            =   0.0000000000000E+00
(PID.TID 0000.0001) %MON advcfl_uvel_max              =   0.0000000000000E+00
(PID.TID 0000.0001) %MON advcfl_vvel_max              =   2.0235047731505E-02
(PID.TID 0000.0001) %MON advcfl_wvel_max              =   2.8671858578790E-02
(PID.TID 0000.0001) %MON advcfl_W_hf_max              =   2.8482436520622E-02
(PID.TID 0000.0001) %MON pe_b_mean                    =   2.9367279428807E-02
(PID.TID 0000.0001) %MON ke_max                       =   1.3026538647393E+01
(PID.TID 0000.0001) %MON ke_mean                      =   1.8764144177206E+00
(PID.TID 0000.0001) %MON ke_vol                       =   3.9836278420452E+17
(PID.TID 0000.0001) %MON vort_r_min                   =   0.0000000000000E+00
(PID.TID 0000.0001) %MON vort_r_max                   =   0.0000000000000E+00
(PID.TID 0000.0001) %MON vort_a_mean                  =  -4.2495642961465E-20
(PID.TID 0000.0001) %MON vort_a_sd                    =   8.3955319514376E-05
(PID.TID 0000.0001) %MON vort_p_mean                  =  -4.2495642961465E-20
(PID.TID 0000.0001) %MON vort_p_sd                    =   8.3955319514376E-05
(PID.TID 0000.0001) %MON surfExpan_theta_mean         =  -1.1110637268096E+00
(PID.TID 0000.0001) %MON surfExpan_salt_mean          =   0.0000000000000E+00
(PID.TID 0000.0001) %MON surfExpan_Heat_mean          =  -1.1205699979575E+02
(PID.TID 0000.0001) %MON En_Budget_T2PE_mean          =   3.0624064143493E+01
(PID.TID 0000.0001) // =======================================================
(PID.TID 0000.0001) // End MONITOR dynamic field statistics
(PID.TID 0000.0001) // =======================================================
 cg2d: Sum(rhs),rhsMax =   1.22124532708767E-15  4.64009472466639E+00
(PID.TID 0000.0001)                    cg2d_init_res =    2.91418624571282E+00
(PID.TID 0000.0001)                       cg2d_iters =    33
(PID.TID 0000.0001)                         cg2d_res =    2.45041852589188E-15
(PID.TID 0000.0001) // =======================================================
(PID.TID 0000.0001) // Begin MONITOR dynamic field statistics
(PID.TID 0000.0001) // =======================================================
(PID.TID 0000.0001) %MON time_tsnumber                =                     2
(PID.TID 0000.0001) %MON time_secondsf                =   2.4000000000000E+03
(PID.TID 0000.0001) %MON dynstat_eta_max              =   4.2435987217446E+02
(PID.TID 0000.0001) %MON dynstat_eta_min              =  -2.7278742640990E+02
(PID.TID 0000.0001) %MON dynstat_eta_mean             =  -6.9060254238321E-15
(PID.TID 0000.0001) %MON dynstat_eta_sd               =   2.2415490453273E+02
(PID.TID 0000.0001) %MON dynstat_eta_del2             =   2.0738793759494E+00
(PID.TID 0000.0001) %MON dynstat_uvel_max             =   8.7088691845576E-01
(PID.TID 0000.0001) %MON dynstat_uvel_min             =   3.8323448846856E-05
(PID.TID 0000.0001) %MON dynstat_uvel_mean            =   2.3378367735277E-01
(PID.TID 0000.0001) %MON dynstat_uvel_sd              =   2.2937814499301E-01
(PID.TID 0000.0001) %MON dynstat_uvel_del2            =   2.4522239891531E-03
(PID.TID 0000.0001) %MON dynstat_vvel_max             =   1.0228694100168E+01
(PID.TID 0000.0001) %MON dynstat_vvel_min             =  -1.0228694100168E+01
(PID.TID 0000.0001) %MON dynstat_vvel_mean            =   3.2141195889310E-16
(PID.TID 0000.0001) %MON dynstat_vvel_sd              =   3.8107082402745E+00
(PID.TID 0000.0001) %MON dynstat_vvel_del2            =   2.5136484555073E-02
(PID.TID 0000.0001) %MON dynstat_wvel_max             =   2.3416562159541E-01
(PID.TID 0000.0001) %MON dynstat_wvel_min             =  -1.5028897986106E-01
(PID.TID 0000.0001) %MON dynstat_wvel_mean            =  -4.1578010444980E-18
(PID.TID 0000.0001) %MON dynstat_wvel_sd              =   9.9653358461333E-02
(PID.TID 0000.0001) %MON dynstat_wvel_del2            =   1.8871372177420E-03
(PID.TID 0000.0001) %MON dynstat_theta_max            =   4.2021985866815E+02
(PID.TID 0000.0001) %MON dynstat_theta_min            =   2.5503651425616E+02
(PID.TID 0000.0001) %MON dynstat_theta_mean           =   3.1872449316160E+02
(PID.TID 0000.0001) %MON dynstat_theta_sd             =   4.5614069681527E+01
(PID.TID 0000.0001) %MON dynstat_theta_del2           =   4.3855190176455E-02
(PID.TID 0000.0001) %MON dynstat_salt_max             =   0.0000000000000E+00
(PID.TID 0000.0001) %MON dynstat_salt_min             =   0.0000000000000E+00
(PID.TID 0000.0001) %MON dynstat_salt_mean            =   0.0000000000000E+00
(PID.TID 0000.0001) %MON dynstat_salt_sd              =   0.0000000000000E+00
(PID.TID 0000.0001) %MON dynstat_salt_del2            =   0.0000000000000E+00
(PID.TID 0000.0001) %MON advcfl_uvel_max              =   6.7724361952178E-03
(PID.TID 0000.0001) %MON advcfl_vvel_max              =   3.9254740051992E-02
(PID.TID 0000.0001) %MON advcfl_wvel_max              =   5.6199749182899E-02
(PID.TID 0000.0001) %MON advcfl_W_hf_max              =   5.5934362053615E-02
(PID.TID 0000.0001) %MON pe_b_mean                    =   2.5122710613038E-01
(PID.TID 0000.0001) %MON ke_max                       =   5.0281848239331E+01
(PID.TID 0000.0001) %MON ke_mean                      =   7.3129306025030E+00
(PID.TID 0000.0001) %MON ke_vol                       =   3.9836278420452E+17
(PID.TID 0000.0001) %MON vort_r_min                   =  -5.3346897644865E-07
(PID.TID 0000.0001) %MON vort_r_max                   =   5.3346897644865E-07
(PID.TID 0000.0001) %MON vort_a_mean                  =  -7.2881745599627E-21
(PID.TID 0000.0001) %MON vort_a_sd                    =   8.3999651160573E-05
(PID.TID 0000.0001) %MON vort_p_mean                  =  -7.2881745599627E-21
(PID.TID 0000.0001) %MON vort_p_sd                    =   8.3999651160573E-05
(PID.TID 0000.0001) %MON surfExpan_theta_mean         =  -2.1724094421662E+00
(PID.TID 0000.0001) %MON surfExpan_salt_mean          =   0.0000000000000E+00
(PID.TID 0000.0001) %MON surfExpan_Heat_mean          =  -2.1909965967131E+02
(PID.TID 0000.0001) %MON En_Budget_T2PE_mean          =   5.9772680917591E+01
(PID.TID 0000.0001) // =======================================================
(PID.TID 0000.0001) // End MONITOR dynamic field statistics
(PID.TID 0000.0001) // =======================================================
 cg2d: Sum(rhs),rhsMax =   1.19348975147204E-15  9.07984877941458E+00
(PID.TID 0000.0001)                    cg2d_init_res =    2.11275567450866E+00
(PID.TID 0000.0001)                       cg2d_iters =    32
(PID.TID 0000.0001)                         cg2d_res =    4.56975066821239E-14
(PID.TID 0000.0001) // =======================================================
(PID.TID 0000.0001) // Begin MONITOR dynamic field statistics
(PID.TID 0000.0001) // =======================================================
(PID.TID 0000.0001) %MON time_tsnumber                =                     3
(PID.TID 0000.0001) %MON time_secondsf                =   3.6000000000000E+03
(PID.TID 0000.0001) %MON dynstat_eta_max              =   8.2446632987491E+02
(PID.TID 0000.0001) %MON dynstat_eta_min              =  -5.3368668166243E+02
(PID.TID 0000.0001) %MON dynstat_eta_mean             =   3.4581926048286E-14
(PID.TID 0000.0001) %MON dynstat_eta_sd               =   4.3546550689188E+02
(PID.TID 0000.0001) %MON dynstat_eta_del2             =   2.5639209619010E+00
(PID.TID 0000.0001) %MON dynstat_uvel_max             =   2.2294223909762E+00
(PID.TID 0000.0001) %MON dynstat_uvel_min             =  -1.8618375460223E-02
(PID.TID 0000.0001) %MON dynstat_uvel_mean            =   6.0431494791637E-01
(PID.TID 0000.0001) %MON dynstat_uvel_sd              =   5.9909593280233E-01
(PID.TID 0000.0001) %MON dynstat_uvel_del2            =   6.1770917956024E-03
(PID.TID 0000.0001) %MON dynstat_vvel_max             =   1.4565245919071E+01
(PID.TID 0000.0001) %MON dynstat_vvel_min             =  -1.4565245919071E+01
(PID.TID 0000.0001) %MON dynstat_vvel_mean            =  -9.6423587667931E-16
(PID.TID 0000.0001) %MON dynstat_vvel_sd              =   5.5335225733602E+00
(PID.TID 0000.0001) %MON dynstat_vvel_del2            =   3.0427371418163E-02
(PID.TID 0000.0001) %MON dynstat_wvel_max             =   3.3341911513950E-01
(PID.TID 0000.0001) %MON dynstat_wvel_min             =  -2.1753228024966E-01
(PID.TID 0000.0001) %MON dynstat_wvel_mean            =   2.6796489247041E-18
(PID.TID 0000.0001) %MON dynstat_wvel_sd              =   1.4266619600765E-01
(PID.TID 0000.0001) %MON dynstat_wvel_del2            =   1.9144873137547E-03
(PID.TID 0000.0001) %MON dynstat_theta_max            =   4.2091730076068E+02
(PID.TID 0000.0001) %MON dynstat_theta_min            =   2.5503657555552E+02
(PID.TID 0000.0001) %MON dynstat_theta_mean           =   3.1876890155142E+02
(PID.TID 0000.0001) %MON dynstat_theta_sd             =   4.5587071117933E+01
(PID.TID 0000.0001) %MON dynstat_theta_del2           =   4.5686577505082E-02
(PID.TID 0000.0001) %MON dynstat_salt_max             =   0.0000000000000E+00
(PID.TID 0000.0001) %MON dynstat_salt_min             =   0.0000000000000E+00
(PID.TID 0000.0001) %MON dynstat_salt_mean            =   0.0000000000000E+00
(PID.TID 0000.0001) %MON dynstat_salt_sd              =   0.0000000000000E+00
(PID.TID 0000.0001) %MON dynstat_salt_del2            =   0.0000000000000E+00
(PID.TID 0000.0001) %MON advcfl_uvel_max              =   1.7863103199678E-02
(PID.TID 0000.0001) %MON advcfl_vvel_max              =   5.5897159182529E-02
(PID.TID 0000.0001) %MON advcfl_wvel_max              =   8.0020587633479E-02
(PID.TID 0000.0001) %MON advcfl_W_hf_max              =   7.9835743646760E-02
(PID.TID 0000.0001) %MON pe_b_mean                    =   9.4815103846303E-01
(PID.TID 0000.0001) %MON ke_max                       =   1.0571035085424E+02
(PID.TID 0000.0001) %MON ke_mean                      =   1.5668954311885E+01
(PID.TID 0000.0001) %MON ke_vol                       =   3.9836278420452E+17
(PID.TID 0000.0001) %MON vort_r_min                   =  -1.3968675548988E-06
(PID.TID 0000.0001) %MON vort_r_max                   =   1.3968675548988E-06
(PID.TID 0000.0001) %MON vort_a_mean                  =  -3.1860673077274E-20
(PID.TID 0000.0001) %MON vort_a_sd                    =   8.4070201626427E-05
(PID.TID 0000.0001) %MON vort_p_mean                  =  -3.1860673077274E-20
(PID.TID 0000.0001) %MON vort_p_sd                    =   8.4070201626427E-05
(PID.TID 0000.0001) %MON surfExpan_theta_mean         =  -3.1263867614234E+00
(PID.TID 0000.0001) %MON surfExpan_salt_mean          =   0.0000000000000E+00
(PID.TID 0000.0001) %MON surfExpan_Heat_mean          =  -3.1531361544154E+02
(PID.TID 0000.0001) %MON En_Budget_T2PE_mean          =   8.5968275552543E+01
(PID.TID 0000.0001) // =======================================================
(PID.TID 0000.0001) // End MONITOR dynamic field statistics
(PID.TID 0000.0001) // =======================================================
 cg2d: Sum(rhs),rhsMax =   3.26128013483640E-16  1.47294224247946E+01
(PID.TID 0000.0001)                    cg2d_init_res =    1.63617177978949E+00
(PID.TID 0000.0001)                       cg2d_iters =    33
(PID.TID 0000.0001)                         cg2d_res =    2.90502575444176E-15
(PID.TID 0000.0001) // =======================================================
(PID.TID 0000.0001) // Begin MONITOR dynamic field statistics
(PID.TID 0000.0001) // =======================================================
(PID.TID 0000.0001) %MON time_tsnumber                =                     4
(PID.TID 0000.0001) %MON time_secondsf                =   4.8000000000000E+03
(PID.TID 0000.0001) %MON dynstat_eta_max              =   1.3213003509343E+03
(PID.TID 0000.0001) %MON dynstat_eta_min              =  -8.6541685284225E+02
(PID.TID 0000.0001) %MON dynstat_eta_mean             =   7.9554133836280E-15
(PID.TID 0000.0001) %MON dynstat_eta_sd               =   7.0179755011223E+02
(PID.TID 0000.0001) %MON dynstat_eta_del2             =   3.1132085585166E+00
(PID.TID 0000.0001) %MON dynstat_uvel_max             =   4.0093964286856E+00
(PID.TID 0000.0001) %MON dynstat_uvel_min             =  -7.2579466900777E-02
(PID.TID 0000.0001) %MON dynstat_uvel_mean            =   1.0932711356605E+00
(PID.TID 0000.0001) %MON dynstat_uvel_sd              =   1.0964636719759E+00
(PID.TID 0000.0001) %MON dynstat_uvel_del2            =   1.0567437191037E-02
(PID.TID 0000.0001) %MON dynstat_vvel_max             =   1.8296275651147E+01
(PID.TID 0000.0001) %MON dynstat_vvel_min             =  -1.8296275651147E+01
(PID.TID 0000.0001) %MON dynstat_vvel_mean            =   6.4282391778621E-16
(PID.TID 0000.0001) %MON dynstat_vvel_sd              =   7.0706035503123E+00
(PID.TID 0000.0001) %MON dynstat_vvel_del2            =   3.3581003937017E-02
(PID.TID 0000.0001) %MON dynstat_wvel_max             =   4.1431749654725E-01
(PID.TID 0000.0001) %MON dynstat_wvel_min             =  -2.7771168507082E-01
(PID.TID 0000.0001) %MON dynstat_wvel_mean            =  -3.3285746469393E-18
(PID.TID 0000.0001) %MON dynstat_wvel_sd              =   1.8057776497404E-01
(PID.TID 0000.0001) %MON dynstat_wvel_del2            =   1.7880915489319E-03
(PID.TID 0000.0001) %MON dynstat_theta_max            =   4.2160297531084E+02
(PID.TID 0000.0001) %MON dynstat_theta_min            =   2.5503670911627E+02
(PID.TID 0000.0001) %MON dynstat_theta_mean           =   3.1882219264453E+02
(PID.TID 0000.0001) %MON dynstat_theta_sd             =   4.5554485156494E+01
(PID.TID 0000.0001) %MON dynstat_theta_del2           =   4.6836936484022E-02
(PID.TID 0000.0001) %MON dynstat_salt_max             =   0.0000000000000E+00
(PID.TID 0000.0001) %MON dynstat_salt_min             =   0.0000000000000E+00
(PID.TID 0000.0001) %MON dynstat_salt_mean            =   0.0000000000000E+00
(PID.TID 0000.0001) %MON dynstat_salt_sd              =   0.0000000000000E+00
(PID.TID 0000.0001) %MON dynstat_salt_del2            =   0.0000000000000E+00
(PID.TID 0000.0001) %MON advcfl_uvel_max              =   3.2763915151568E-02
(PID.TID 0000.0001) %MON advcfl_vvel_max              =   7.0215761422915E-02
(PID.TID 0000.0001) %MON advcfl_wvel_max              =   9.9366443194079E-02
(PID.TID 0000.0001) %MON advcfl_W_hf_max              =   9.9436199171341E-02
(PID.TID 0000.0001) %MON pe_b_mean                    =   2.4625990067177E+00
(PID.TID 0000.0001) %MON ke_max                       =   1.7350820999997E+02
(PID.TID 0000.0001) %MON ke_mean                      =   2.6190555340291E+01
(PID.TID 0000.0001) %MON ke_vol                       =   3.9836278420452E+17
(PID.TID 0000.0001) %MON vort_r_min                   =  -2.5431341085337E-06
(PID.TID 0000.0001) %MON vort_r_max                   =   2.5431341085337E-06
(PID.TID 0000.0001) %MON vort_a_mean                  =   6.8560096920045E-21
(PID.TID 0000.0001) %MON vort_a_sd                    =   8.4164030947410E-05
(PID.TID 0000.0001) %MON vort_p_mean                  =   6.8560096920045E-21
(PID.TID 0000.0001) %MON vort_p_sd                    =   8.4164030947410E-05
(PID.TID 0000.0001) %MON surfExpan_theta_mean         =  -3.9465802440812E+00
(PID.TID 0000.0001) %MON surfExpan_salt_mean          =   0.0000000000000E+00
(PID.TID 0000.0001) %MON surfExpan_Heat_mean          =  -3.9803472198201E+02
(PID.TID 0000.0001) %MON En_Budget_T2PE_mean          =   1.0858603843697E+02
(PID.TID 0000.0001) // =======================================================
(PID.TID 0000.0001) // End MONITOR dynamic field statistics
(PID.TID 0000.0001) // =======================================================
 cg2d: Sum(rhs),rhsMax =   2.85882428840978E-15  2.13896565442467E+01
(PID.TID 0000.0001)                    cg2d_init_res =    1.31217728511609E+00
(PID.TID 0000.0001)                       cg2d_iters =    33
(PID.TID 0000.0001)                         cg2d_res =    1.87796309515363E-15
(PID.TID 0000.0001) // =======================================================
(PID.TID 0000.0001) // Begin MONITOR dynamic field statistics
(PID.TID 0000.0001) // =======================================================
(PID.TID 0000.0001) %MON time_tsnumber                =                     5
(PID.TID 0000.0001) %MON time_secondsf                =   6.0000000000000E+03
(PID.TID 0000.0001) %MON dynstat_eta_max              =   1.8889481592802E+03
(PID.TID 0000.0001) %MON dynstat_eta_min              =  -1.2560248001564E+03
(PID.TID 0000.0001) %MON dynstat_eta_mean             =   1.9553078397004E-14
(PID.TID 0000.0001) %MON dynstat_eta_sd               =   1.0127028445576E+03
(PID.TID 0000.0001) %MON dynstat_eta_del2             =   3.7099960613386E+00
(PID.TID 0000.0001) %MON dynstat_uvel_max             =   6.1544665659324E+00
(PID.TID 0000.0001) %MON dynstat_uvel_min             =  -1.8651617067330E-01
(PID.TID 0000.0001) %MON dynstat_uvel_mean            =   1.6817325368859E+00
(PID.TID 0000.0001) %MON dynstat_uvel_sd              =   1.7094970699254E+00
(PID.TID 0000.0001) %MON dynstat_uvel_del2            =   1.5548498283672E-02
(PID.TID 0000.0001) %MON dynstat_vvel_max             =   2.1567475230327E+01
(PID.TID 0000.0001) %MON dynstat_vvel_min             =  -2.1567475230327E+01
(PID.TID 0000.0001) %MON dynstat_vvel_mean            =   1.9284717533586E-15
(PID.TID 0000.0001) %MON dynstat_vvel_sd              =   8.3873313467699E+00
(PID.TID 0000.0001) %MON dynstat_vvel_del2            =   3.5366759566193E-02
(PID.TID 0000.0001) %MON dynstat_wvel_max             =   4.7510504804015E-01
(PID.TID 0000.0001) %MON dynstat_wvel_min             =  -3.2874760857743E-01
(PID.TID 0000.0001) %MON dynstat_wvel_mean            =   4.7183208026161E-18
(PID.TID 0000.0001) %MON dynstat_wvel_sd              =   2.1261940143478E-01
(PID.TID 0000.0001) %MON dynstat_wvel_del2            =   1.6156858110197E-03
(PID.TID 0000.0001) %MON dynstat_theta_max            =   4.2224749514275E+02
(PID.TID 0000.0001) %MON dynstat_theta_min            =   2.5503701841532E+02
(PID.TID 0000.0001) %MON dynstat_theta_mean           =   3.1888226727934E+02
(PID.TID 0000.0001) %MON dynstat_theta_sd             =   4.5517529330134E+01
(PID.TID 0000.0001) %MON dynstat_theta_del2           =   4.7263932370387E-02
(PID.TID 0000.0001) %MON dynstat_salt_max             =   0.0000000000000E+00
(PID.TID 0000.0001) %MON dynstat_salt_min             =   0.0000000000000E+00
(PID.TID 0000.0001) %MON dynstat_salt_mean            =   0.0000000000000E+00
(PID.TID 0000.0001) %MON dynstat_salt_sd              =   0.0000000000000E+00
(PID.TID 0000.0001) %MON dynstat_salt_del2            =   0.0000000000000E+00
(PID.TID 0000.0001) %MON advcfl_uvel_max              =   5.0991552107789E-02
(PID.TID 0000.0001) %MON advcfl_vvel_max              =   8.2769669857503E-02
(PID.TID 0000.0001) %MON advcfl_wvel_max              =   1.1353016486225E-01
(PID.TID 0000.0001) %MON advcfl_W_hf_max              =   1.1402521152964E-01
(PID.TID 0000.0001) %MON pe_b_mean                    =   5.1278352568751E+00
(PID.TID 0000.0001) %MON ke_max                       =   2.4820149735117E+02
(PID.TID 0000.0001) %MON ke_mean                      =   3.8042191464889E+01
(PID.TID 0000.0001) %MON ke_vol                       =   3.9836278420452E+17
(PID.TID 0000.0001) %MON vort_r_min                   =  -3.9286627923771E-06
(PID.TID 0000.0001) %MON vort_r_max                   =   3.9286627923772E-06
(PID.TID 0000.0001) %MON vort_a_mean                  =  -3.1322750615491E-20
(PID.TID 0000.0001) %MON vort_a_sd                    =   8.4278063472800E-05
(PID.TID 0000.0001) %MON vort_p_mean                  =  -3.1322750615491E-20
(PID.TID 0000.0001) %MON vort_p_sd                    =   8.4278063472800E-05
(PID.TID 0000.0001) %MON surfExpan_theta_mean         =  -4.6074907185989E+00
(PID.TID 0000.0001) %MON surfExpan_salt_mean          =   0.0000000000000E+00
(PID.TID 0000.0001) %MON surfExpan_Heat_mean          =  -4.6469124502475E+02
(PID.TID 0000.0001) %MON En_Budget_T2PE_mean          =   1.2705883976135E+02
(PID.TID 0000.0001) // =======================================================
(PID.TID 0000.0001) // End MONITOR dynamic field statistics
(PID.TID 0000.0001) // =======================================================
 cg2d: Sum(rhs),rhsMax =  -3.36536354339501E-15  2.88270839545719E+01
(PID.TID 0000.0001)                    cg2d_init_res =    1.07484188411908E+00
(PID.TID 0000.0001)                       cg2d_iters =    33
(PID.TID 0000.0001)                         cg2d_res =    2.57511017637674E-15
(PID.TID 0000.0001) // =======================================================
(PID.TID 0000.0001) // Begin MONITOR dynamic field statistics
(PID.TID 0000.0001) // =======================================================
(PID.TID 0000.0001) %MON time_tsnumber                =                     6
(PID.TID 0000.0001) %MON time_secondsf                =   7.2000000000000E+03
(PID.TID 0000.0001) %MON dynstat_eta_max              =   2.4997092273041E+03
(PID.TID 0000.0001) %MON dynstat_eta_min              =  -1.6915058467166E+03
(PID.TID 0000.0001) %MON dynstat_eta_mean             =  -4.8011846414550E-14
(PID.TID 0000.0001) %MON dynstat_eta_sd               =   1.3563941367112E+03
(PID.TID 0000.0001) %MON dynstat_eta_del2             =   4.2648477047932E+00
(PID.TID 0000.0001) %MON dynstat_uvel_max             =   8.6004646964282E+00
(PID.TID 0000.0001) %MON dynstat_uvel_min             =  -3.6890506350114E-01
(PID.TID 0000.0001) %MON dynstat_uvel_mean            =   2.3473615990984E+00
(PID.TID 0000.0001) %MON dynstat_uvel_sd              =   2.4231951355232E+00
(PID.TID 0000.0001) %MON dynstat_uvel_del2            =   2.0771163290876E-02
(PID.TID 0000.0001) %MON dynstat_vvel_max             =   2.4351160689483E+01
(PID.TID 0000.0001) %MON dynstat_vvel_min             =  -2.4351160689483E+01
(PID.TID 0000.0001) %MON dynstat_vvel_mean            =   0.0000000000000E+00
(PID.TID 0000.0001) %MON dynstat_vvel_sd              =   9.4576609105391E+00
(PID.TID 0000.0001) %MON dynstat_vvel_del2            =   3.6061305343135E-02
(PID.TID 0000.0001) %MON dynstat_wvel_max             =   5.1339380329143E-01
(PID.TID 0000.0001) %MON dynstat_wvel_min             =  -3.6907332313101E-01
(PID.TID 0000.0001) %MON dynstat_wvel_mean            =   6.1875828287519E-18
(PID.TID 0000.0001) %MON dynstat_wvel_sd              =   2.3810217139505E-01
(PID.TID 0000.0001) %MON dynstat_wvel_del2            =   1.4839539055423E-03
(PID.TID 0000.0001) %MON dynstat_theta_max            =   4.2283844355211E+02
(PID.TID 0000.0001) %MON dynstat_theta_min            =   2.5503763346339E+02
(PID.TID 0000.0001) %MON dynstat_theta_mean           =   3.1894682996868E+02
(PID.TID 0000.0001) %MON dynstat_theta_sd             =   4.5477571673634E+01
(PID.TID 0000.0001) %MON dynstat_theta_del2           =   4.7260265419506E-02
(PID.TID 0000.0001) %MON dynstat_salt_max             =   0.0000000000000E+00
(PID.TID 0000.0001) %MON dynstat_salt_min             =   0.0000000000000E+00
(PID.TID 0000.0001) %MON dynstat_salt_mean            =   0.0000000000000E+00
(PID.TID 0000.0001) %MON dynstat_salt_sd              =   0.0000000000000E+00
(PID.TID 0000.0001) %MON dynstat_salt_del2            =   0.0000000000000E+00
(PID.TID 0000.0001) %MON advcfl_uvel_max              =   7.1910771576600E-02
(PID.TID 0000.0001) %MON advcfl_vvel_max              =   9.3452641507214E-02
(PID.TID 0000.0001) %MON advcfl_wvel_max              =   1.2215399085011E-01
(PID.TID 0000.0001) %MON advcfl_W_hf_max              =   1.2321451278994E-01
(PID.TID 0000.0001) %MON pe_b_mean                    =   9.1990252705223E+00
(PID.TID 0000.0001) %MON ke_max                       =   3.2477777898024E+02
(PID.TID 0000.0001) %MON ke_mean                      =   5.0406256161109E+01
(PID.TID 0000.0001) %MON ke_vol                       =   3.9836278420452E+17
(PID.TID 0000.0001) %MON vort_r_min                   =  -5.4998028020912E-06
(PID.TID 0000.0001) %MON vort_r_max                   =   5.4998028020913E-06
(PID.TID 0000.0001) %MON vort_a_mean                  =  -1.0147305840666E-20
(PID.TID 0000.0001) %MON vort_a_sd                    =   8.4408568786592E-05
(PID.TID 0000.0001) %MON vort_p_mean                  =  -1.0147305840666E-20
(PID.TID 0000.0001) %MON vort_p_sd                    =   8.4408568786592E-05
(PID.TID 0000.0001) %MON surfExpan_theta_mean         =  -5.0893887265737E+00
(PID.TID 0000.0001) %MON surfExpan_salt_mean          =   0.0000000000000E+00
(PID.TID 0000.0001) %MON surfExpan_Heat_mean          =  -5.1329335818731E+02
(PID.TID 0000.0001) %MON En_Budget_T2PE_mean          =   1.4099762489566E+02
(PID.TID 0000.0001) // =======================================================
(PID.TID 0000.0001) // End MONITOR dynamic field statistics
(PID.TID 0000.0001) // =======================================================
 cg2d: Sum(rhs),rhsMax =   4.85722573273506E-17  3.67770523049459E+01
(PID.TID 0000.0001)                    cg2d_init_res =    8.91227009667775E-01
(PID.TID 0000.0001)                       cg2d_iters =    33
(PID.TID 0000.0001)                         cg2d_res =    2.68314174513881E-15
(PID.TID 0000.0001) // =======================================================
(PID.TID 0000.0001) // Begin MONITOR dynamic field statistics
(PID.TID 0000.0001) // =======================================================
(PID.TID 0000.0001) %MON time_tsnumber                =                     7
(PID.TID 0000.0001) %MON time_secondsf                =   8.4000000000000E+03
(PID.TID 0000.0001) %MON dynstat_eta_max              =   3.1262198803780E+03
(PID.TID 0000.0001) %MON dynstat_eta_min              =  -2.1561100283829E+03
(PID.TID 0000.0001) %MON dynstat_eta_mean             =   1.5518655187243E-13
(PID.TID 0000.0001) %MON dynstat_eta_sd               =   1.7201581532273E+03
(PID.TID 0000.0001) %MON dynstat_eta_del2             =   5.1200044377706E+00
(PID.TID 0000.0001) %MON dynstat_uvel_max             =   1.1278496798205E+01
(PID.TID 0000.0001) %MON dynstat_uvel_min             =  -6.3493903756896E-01
(PID.TID 0000.0001) %MON dynstat_uvel_mean            =   3.0654509937765E+00
(PID.TID 0000.0001) %MON dynstat_uvel_sd              =   3.2201768855099E+00
(PID.TID 0000.0001) %MON dynstat_uvel_del2            =   2.6015433201328E-02
(PID.TID 0000.0001) %MON dynstat_vvel_max             =   2.6475546964459E+01
(PID.TID 0000.0001) %MON dynstat_vvel_min             =  -2.6475546964459E+01
(PID.TID 0000.0001) %MON dynstat_vvel_mean            =   1.9284717533586E-15
(PID.TID 0000.0001) %MON dynstat_vvel_sd              =   1.0265791128189E+01
(PID.TID 0000.0001) %MON dynstat_vvel_del2            =   3.6542480873924E-02
(PID.TID 0000.0001) %MON dynstat_wvel_max             =   5.2922226496078E-01
(PID.TID 0000.0001) %MON dynstat_wvel_min             =  -3.9736250732690E-01
(PID.TID 0000.0001) %MON dynstat_wvel_mean            =   2.7726830431106E-18
(PID.TID 0000.0001) %MON dynstat_wvel_sd              =   2.5652801982365E-01
(PID.TID 0000.0001) %MON dynstat_wvel_del2            =   1.4149917062284E-03
(PID.TID 0000.0001) %MON dynstat_theta_max            =   4.2350902199664E+02
(PID.TID 0000.0001) %MON dynstat_theta_min            =   2.5503866896377E+02
(PID.TID 0000.0001) %MON dynstat_theta_mean           =   3.1901347444515E+02
(PID.TID 0000.0001) %MON dynstat_theta_sd             =   4.5436085323749E+01
(PID.TID 0000.0001) %MON dynstat_theta_del2           =   4.7000379599810E-02
(PID.TID 0000.0001) %MON dynstat_salt_max             =   0.0000000000000E+00
(PID.TID 0000.0001) %MON dynstat_salt_min             =   0.0000000000000E+00
(PID.TID 0000.0001) %MON dynstat_salt_mean            =   0.0000000000000E+00
(PID.TID 0000.0001) %MON dynstat_salt_sd              =   0.0000000000000E+00
(PID.TID 0000.0001) %MON dynstat_salt_del2            =   0.0000000000000E+00
(PID.TID 0000.0001) %MON advcfl_uvel_max              =   9.4771340007913E-02
(PID.TID 0000.0001) %MON advcfl_vvel_max              =   1.0160541547597E-01
(PID.TID 0000.0001) %MON advcfl_wvel_max              =   1.2530523087387E-01
(PID.TID 0000.0001) %MON advcfl_W_hf_max              =   1.2701334359059E-01
(PID.TID 0000.0001) %MON pe_b_mean                    =   1.4794720360572E+01
(PID.TID 0000.0001) %MON ke_max                       =   3.9886136049924E+02
(PID.TID 0000.0001) %MON ke_mean                      =   6.2566909465486E+01
(PID.TID 0000.0001) %MON ke_vol                       =   3.9836278420452E+17
(PID.TID 0000.0001) %MON vort_r_min                   =  -7.1963755680546E-06
(PID.TID 0000.0001) %MON vort_r_max                   =   7.1963755680547E-06
(PID.TID 0000.0001) %MON vort_a_mean                  =   8.7731797420967E-21
(PID.TID 0000.0001) %MON vort_a_sd                    =   8.4551287836137E-05
(PID.TID 0000.0001) %MON vort_p_mean                  =   8.7731797420967E-21
(PID.TID 0000.0001) %MON vort_p_sd                    =   8.4551287836137E-05
(PID.TID 0000.0001) %MON surfExpan_theta_mean         =  -5.3791284883890E+00
(PID.TID 0000.0001) %MON surfExpan_salt_mean          =   0.0000000000000E+00
(PID.TID 0000.0001) %MON surfExpan_Heat_mean          =  -5.4251523596725E+02
(PID.TID 0000.0001) %MON En_Budget_T2PE_mean          =   1.5020526689830E+02
(PID.TID 0000.0001) // =======================================================
(PID.TID 0000.0001) // End MONITOR dynamic field statistics
(PID.TID 0000.0001) // =======================================================
 cg2d: Sum(rhs),rhsMax =  -2.56739074444567E-16  4.49509171089784E+01
(PID.TID 0000.0001)                    cg2d_init_res =    7.43142854792564E-01
(PID.TID 0000.0001)                       cg2d_iters =    33
(PID.TID 0000.0001)                         cg2d_res =    2.39979325436928E-15
(PID.TID 0000.0001) // =======================================================
(PID.TID 0000.0001) // Begin MONITOR dynamic field statistics
(PID.TID 0000.0001) // =======================================================
(PID.TID 0000.0001) %MON time_tsnumber                =                     8
(PID.TID 0000.0001) %MON time_secondsf                =   9.6000000000000E+03
(PID.TID 0000.0001) %MON dynstat_eta_max              =   3.7434119347549E+03
(PID.TID 0000.0001) %MON dynstat_eta_min              =  -2.6328835774536E+03
(PID.TID 0000.0001) %MON dynstat_eta_mean             =  -1.5869230731790E-13
(PID.TID 0000.0001) %MON dynstat_eta_sd               =   2.0907968623240E+03
(PID.TID 0000.0001) %MON dynstat_eta_del2             =   5.9711259986131E+00
(PID.TID 0000.0001) %MON dynstat_uvel_max             =   1.4117347971568E+01
(PID.TID 0000.0001) %MON dynstat_uvel_min             =  -1.0001352800587E+00
(PID.TID 0000.0001) %MON dynstat_uvel_mean            =   3.8097545981656E+00
(PID.TID 0000.0001) %MON dynstat_uvel_sd              =   4.0811548922261E+00
(PID.TID 0000.0001) %MON dynstat_uvel_del2            =   3.1303909359711E-02
(PID.TID 0000.0001) %MON dynstat_vvel_max             =   2.7915324502199E+01
(PID.TID 0000.0001) %MON dynstat_vvel_min             =  -2.7915324502199E+01
(PID.TID 0000.0001) %MON dynstat_vvel_mean            =   3.8569435067172E-15
(PID.TID 0000.0001) %MON dynstat_vvel_sd              =   1.0807280325043E+01
(PID.TID 0000.0001) %MON dynstat_vvel_del2            =   3.6944803956574E-02
(PID.TID 0000.0001) %MON dynstat_wvel_max             =   5.2417598541719E-01
(PID.TID 0000.0001) %MON dynstat_wvel_min             =  -4.1270451235452E-01
(PID.TID 0000.0001) %MON dynstat_wvel_mean            =  -2.6662451997972E-18
(PID.TID 0000.0001) %MON dynstat_wvel_sd              =   2.6764378935277E-01
(PID.TID 0000.0001) %MON dynstat_wvel_del2            =   1.3820214008477E-03
(PID.TID 0000.0001) %MON dynstat_theta_max            =   4.2420420566048E+02
(PID.TID 0000.0001) %MON dynstat_theta_min            =   2.5504018243408E+02
(PID.TID 0000.0001) %MON dynstat_theta_mean           =   3.1907976987412E+02
(PID.TID 0000.0001) %MON dynstat_theta_sd             =   4.5394599882437E+01
(PID.TID 0000.0001) %MON dynstat_theta_del2           =   4.7163715635738E-02
(PID.TID 0000.0001) %MON dynstat_salt_max             =   0.0000000000000E+00
(PID.TID 0000.0001) %MON dynstat_salt_min             =   0.0000000000000E+00
(PID.TID 0000.0001) %MON dynstat_salt_mean            =   0.0000000000000E+00
(PID.TID 0000.0001) %MON dynstat_salt_sd              =   0.0000000000000E+00
(PID.TID 0000.0001) %MON dynstat_salt_del2            =   0.0000000000000E+00
(PID.TID 0000.0001) %MON advcfl_uvel_max              =   1.1874975515846E-01
(PID.TID 0000.0001) %MON advcfl_vvel_max              =   1.0713086109231E-01
(PID.TID 0000.0001) %MON advcfl_wvel_max              =   1.2344284084638E-01
(PID.TID 0000.0001) %MON advcfl_W_hf_max              =   1.2580223650013E-01
(PID.TID 0000.0001) %MON pe_b_mean                    =   2.1857157597520E+01
(PID.TID 0000.0001) %MON ke_max                       =   4.6691359048298E+02
(PID.TID 0000.0001) %MON ke_mean                      =   7.3973519735065E+01
(PID.TID 0000.0001) %MON ke_vol                       =   3.9836278420452E+17
(PID.TID 0000.0001) %MON vort_r_min                   =  -8.9550101625718E-06
(PID.TID 0000.0001) %MON vort_r_max                   =   8.9550101625720E-06
(PID.TID 0000.0001) %MON vort_a_mean                  =  -2.0173056981029E-21
(PID.TID 0000.0001) %MON vort_a_sd                    =   8.4701529079747E-05
(PID.TID 0000.0001) %MON vort_p_mean                  =  -2.0173056981029E-21
(PID.TID 0000.0001) %MON vort_p_sd                    =   8.4701529079747E-05
(PID.TID 0000.0001) %MON surfExpan_theta_mean         =  -5.4704816189253E+00
(PID.TID 0000.0001) %MON surfExpan_salt_mean          =   0.0000000000000E+00
(PID.TID 0000.0001) %MON surfExpan_Heat_mean          =  -5.5172871084077E+02
(PID.TID 0000.0001) %MON En_Budget_T2PE_mean          =   1.5467269644831E+02
(PID.TID 0000.0001) // =======================================================
(PID.TID 0000.0001) // End MONITOR dynamic field statistics
(PID.TID 0000.0001) // =======================================================
 cg2d: Sum(rhs),rhsMax =   6.38378239159465E-16  5.30486940122153E+01
(PID.TID 0000.0001)                    cg2d_init_res =    6.19721991112426E-01
(PID.TID 0000.0001)                       cg2d_iters =    33
(PID.TID 0000.0001)                         cg2d_res =    1.11623131548121E-15
(PID.TID 0000.0001) // =======================================================
(PID.TID 0000.0001) // Begin MONITOR dynamic field statistics
(PID.TID 0000.0001) // =======================================================
(PID.TID 0000.0001) %MON time_tsnumber                =                     9
(PID.TID 0000.0001) %MON time_secondsf                =   1.0800000000000E+04
(PID.TID 0000.0001) %MON dynstat_eta_max              =   4.3297537805550E+03
(PID.TID 0000.0001) %MON dynstat_eta_min              =  -3.1044708892286E+03
(PID.TID 0000.0001) %MON dynstat_eta_mean             =  -1.4623291208370E-13
(PID.TID 0000.0001) %MON dynstat_eta_sd               =   2.4550950654221E+03
(PID.TID 0000.0001) %MON dynstat_eta_del2             =   6.8163680331964E+00
(PID.TID 0000.0001) %MON dynstat_uvel_max             =   1.7045337798182E+01
(PID.TID 0000.0001) %MON dynstat_uvel_min             =  -1.4793091437801E+00
(PID.TID 0000.0001) %MON dynstat_uvel_mean            =   4.5533553519004E+00
(PID.TID 0000.0001) %MON dynstat_uvel_sd              =   4.9855339020435E+00
(PID.TID 0000.0001) %MON dynstat_uvel_del2            =   3.6655364189625E-02
(PID.TID 0000.0001) %MON dynstat_vvel_max             =   2.8780890945067E+01
(PID.TID 0000.0001) %MON dynstat_vvel_min             =  -2.8780890945067E+01
(PID.TID 0000.0001) %MON dynstat_vvel_mean            =   1.2856478355724E-15
(PID.TID 0000.0001) %MON dynstat_vvel_sd              =   1.1089991403335E+01
(PID.TID 0000.0001) %MON dynstat_vvel_del2            =   3.7449755059793E-02
(PID.TID 0000.0001) %MON dynstat_wvel_max             =   5.0136022458669E-01
(PID.TID 0000.0001) %MON dynstat_wvel_min             =  -4.2656620085794E-01
(PID.TID 0000.0001) %MON dynstat_wvel_mean            =   7.0086043298275E-18
(PID.TID 0000.0001) %MON dynstat_wvel_sd              =   2.7148172099797E-01
(PID.TID 0000.0001) %MON dynstat_wvel_del2            =   1.3679716469883E-03
(PID.TID 0000.0001) %MON dynstat_theta_max            =   4.2484926385259E+02
(PID.TID 0000.0001) %MON dynstat_theta_min            =   2.5504214755995E+02
(PID.TID 0000.0001) %MON dynstat_theta_mean           =   3.1914334697977E+02
(PID.TID 0000.0001) %MON dynstat_theta_sd             =   4.5354647131610E+01
(PID.TID 0000.0001) %MON dynstat_theta_del2           =   4.7210085544885E-02
(PID.TID 0000.0001) %MON dynstat_salt_max             =   0.0000000000000E+00
(PID.TID 0000.0001) %MON dynstat_salt_min             =   0.0000000000000E+00
(PID.TID 0000.0001) %MON dynstat_salt_mean            =   0.0000000000000E+00
(PID.TID 0000.0001) %MON dynstat_salt_sd              =   0.0000000000000E+00
(PID.TID 0000.0001) %MON dynstat_salt_del2            =   0.0000000000000E+00
(PID.TID 0000.0001) %MON advcfl_uvel_max              =   1.4299570605710E-01
(PID.TID 0000.0001) %MON advcfl_vvel_max              =   1.1045265225937E-01
(PID.TID 0000.0001) %MON advcfl_wvel_max              =   1.1781824428515E-01
(PID.TID 0000.0001) %MON advcfl_W_hf_max              =   1.2032645390080E-01
(PID.TID 0000.0001) %MON pe_b_mean                    =   3.0137458901300E+01
(PID.TID 0000.0001) %MON ke_max                       =   5.2639704536477E+02
(PID.TID 0000.0001) %MON ke_mean                      =   8.4278191633241E+01
(PID.TID 0000.0001) %MON ke_vol                       =   3.9836278420452E+17
(PID.TID 0000.0001) %MON vort_r_min                   =  -1.0712192267617E-05
(PID.TID 0000.0001) %MON vort_r_max                   =   1.0712192267617E-05
(PID.TID 0000.0001) %MON vort_a_mean                  =  -1.3579573917625E-20
(PID.TID 0000.0001) %MON vort_a_sd                    =   8.4854285754401E-05
(PID.TID 0000.0001) %MON vort_p_mean                  =  -1.3579573917625E-20
(PID.TID 0000.0001) %MON vort_p_sd                    =   8.4854285754401E-05
(PID.TID 0000.0001) %MON surfExpan_theta_mean         =  -5.3642563250921E+00
(PID.TID 0000.0001) %MON surfExpan_salt_mean          =   0.0000000000000E+00
(PID.TID 0000.0001) %MON surfExpan_Heat_mean          =  -5.4101529500139E+02
(PID.TID 0000.0001) %MON En_Budget_T2PE_mean          =   1.5456344246617E+02
(PID.TID 0000.0001) // =======================================================
(PID.TID 0000.0001) // End MONITOR dynamic field statistics
(PID.TID 0000.0001) // =======================================================
 cg2d: Sum(rhs),rhsMax =   6.45317133063372E-16  6.07764694343298E+01
(PID.TID 0000.0001)                    cg2d_init_res =    5.13986571899813E-01
(PID.TID 0000.0001)                       cg2d_iters =    33
(PID.TID 0000.0001)                         cg2d_res =    1.33716786112641E-15
(PID.TID 0000.0001) // =======================================================
(PID.TID 0000.0001) // Begin MONITOR dynamic field statistics
(PID.TID 0000.0001) // =======================================================
(PID.TID 0000.0001) %MON time_tsnumber                =                    10
(PID.TID 0000.0001) %MON time_secondsf                =   1.2000000000000E+04
(PID.TID 0000.0001) %MON dynstat_eta_max              =   4.8673833782701E+03
(PID.TID 0000.0001) %MON dynstat_eta_min              =  -3.5540858436640E+03
(PID.TID 0000.0001) %MON dynstat_eta_mean             =   2.7387488697736E-14
(PID.TID 0000.0001) %MON dynstat_eta_sd               =   2.8002959468697E+03
(PID.TID 0000.0001) %MON dynstat_eta_del2             =   7.6466172057569E+00
(PID.TID 0000.0001) %MON dynstat_uvel_max             =   1.9991773055212E+01
(PID.TID 0000.0001) %MON dynstat_uvel_min             =  -2.0855477534443E+00
(PID.TID 0000.0001) %MON dynstat_uvel_mean            =   5.2695857887267E+00
(PID.TID 0000.0001) %MON dynstat_uvel_sd              =   5.9121508435991E+00
(PID.TID 0000.0001) %MON dynstat_uvel_del2            =   4.1813575727438E-02
(PID.TID 0000.0001) %MON dynstat_vvel_max             =   2.9178769505355E+01
(PID.TID 0000.0001) %MON dynstat_vvel_min             =  -2.9178769505355E+01
(PID.TID 0000.0001) %MON dynstat_vvel_mean            =   3.8569435067172E-15
(PID.TID 0000.0001) %MON dynstat_vvel_sd              =   1.1134788030636E+01
(PID.TID 0000.0001) %MON dynstat_vvel_del2            =   3.8285979829361E-02
(PID.TID 0000.0001) %MON dynstat_wvel_max             =   4.7178871478465E-01
(PID.TID 0000.0001) %MON dynstat_wvel_min             =  -4.3072886048443E-01
(PID.TID 0000.0001) %MON dynstat_wvel_mean            =   9.6110737835047E-18
(PID.TID 0000.0001) %MON dynstat_wvel_sd              =   2.6838407327177E-01
(PID.TID 0000.0001) %MON dynstat_wvel_del2            =   1.3996538708431E-03
(PID.TID 0000.0001) %MON dynstat_theta_max            =   4.2545066375405E+02
(PID.TID 0000.0001) %MON dynstat_theta_min            =   2.5504444720402E+02
(PID.TID 0000.0001) %MON dynstat_theta_mean           =   3.1920198089903E+02
(PID.TID 0000.0001) %MON dynstat_theta_sd             =   4.5317701971050E+01
(PID.TID 0000.0001) %MON dynstat_theta_del2           =   4.6966592211196E-02
(PID.TID 0000.0001) %MON dynstat_salt_max             =   0.0000000000000E+00
(PID.TID 0000.0001) %MON dynstat_salt_min             =   0.0000000000000E+00
(PID.TID 0000.0001) %MON dynstat_salt_mean            =   0.0000000000000E+00
(PID.TID 0000.0001) %MON dynstat_salt_sd              =   0.0000000000000E+00
(PID.TID 0000.0001) %MON dynstat_salt_del2            =   0.0000000000000E+00
(PID.TID 0000.0001) %MON advcfl_uvel_max              =   1.6667124990961E-01
(PID.TID 0000.0001) %MON advcfl_vvel_max              =   1.1197959394943E-01
(PID.TID 0000.0001) %MON advcfl_wvel_max              =   1.1035741583927E-01
(PID.TID 0000.0001) %MON advcfl_W_hf_max              =   1.1322929154832E-01
(PID.TID 0000.0001) %MON pe_b_mean                    =   3.9208286950275E+01
(PID.TID 0000.0001) %MON ke_max                       =   5.7586143559429E+02
(PID.TID 0000.0001) %MON ke_mean                      =   9.3343483770163E+01
(PID.TID 0000.0001) %MON ke_vol                       =   3.9836278420452E+17
(PID.TID 0000.0001) %MON vort_r_min                   =  -1.2406332531340E-05
(PID.TID 0000.0001) %MON vort_r_max                   =   1.2406332531340E-05
(PID.TID 0000.0001) %MON vort_a_mean                  =  -5.4255607700661E-20
(PID.TID 0000.0001) %MON vort_a_sd                    =   8.5004384300804E-05
(PID.TID 0000.0001) %MON vort_p_mean                  =  -5.4255607700661E-20
(PID.TID 0000.0001) %MON vort_p_sd                    =   8.5004384300804E-05
(PID.TID 0000.0001) %MON surfExpan_theta_mean         =  -5.0681757096125E+00
(PID.TID 0000.0001) %MON surfExpan_salt_mean          =   0.0000000000000E+00
(PID.TID 0000.0001) %MON surfExpan_Heat_mean          =  -5.1115390661497E+02
(PID.TID 0000.0001) %MON En_Budget_T2PE_mean          =   1.5018885647086E+02
(PID.TID 0000.0001) // =======================================================
(PID.TID 0000.0001) // End MONITOR dynamic field statistics
(PID.TID 0000.0001) // =======================================================
(PID.TID 0000.0001) %CHECKPOINT        10 ckptA
(PID.TID 0000.0001)   Seconds in section "ALL                    [THE_MODEL_MAIN]":
(PID.TID 0000.0001)           User time:  0.24
(PID.TID 0000.0001)         System time:  0.0299999993
(PID.TID 0000.0001)     Wall clock time:  0.275573015
(PID.TID 0000.0001)          No. starts: 1
(PID.TID 0000.0001)           No. stops: 1
(PID.TID 0000.0001)   Seconds in section "INITIALISE_FIXED       [THE_MODEL_MAIN]":
(PID.TID 0000.0001)           User time:  0.040000001
(PID.TID 0000.0001)         System time:  0.00999999978
(PID.TID 0000.0001)     Wall clock time:  0.0495760441
(PID.TID 0000.0001)          No. starts: 1
(PID.TID 0000.0001)           No. stops: 1
(PID.TID 0000.0001)   Seconds in section "THE_MAIN_LOOP          [THE_MODEL_MAIN]":
(PID.TID 0000.0001)           User time:  0.189999994
(PID.TID 0000.0001)         System time:  0.0199999996
(PID.TID 0000.0001)     Wall clock time:  0.211626768
(PID.TID 0000.0001)          No. starts: 1
(PID.TID 0000.0001)           No. stops: 1
(PID.TID 0000.0001)   Seconds in section "INITIALISE_VARIA    [THE_MAIN_LOOP]":
(PID.TID 0000.0001)           User time:  0.
(PID.TID 0000.0001)         System time:  0.
(PID.TID 0000.0001)     Wall clock time:  0.00562810898
(PID.TID 0000.0001)          No. starts: 1
(PID.TID 0000.0001)           No. stops: 1
(PID.TID 0000.0001)   Seconds in section "MONITOR             [THE_MAIN_LOOP]":
(PID.TID 0000.0001)           User time:  0.
(PID.TID 0000.0001)         System time:  0.
(PID.TID 0000.0001)     Wall clock time:  0.00219202042
(PID.TID 0000.0001)          No. starts: 1
(PID.TID 0000.0001)           No. stops: 1
(PID.TID 0000.0001)   Seconds in section "DO_THE_MODEL_IO     [THE_MAIN_LOOP]":
(PID.TID 0000.0001)           User time:  0.
(PID.TID 0000.0001)         System time:  0.00999999978
(PID.TID 0000.0001)     Wall clock time:  0.00928807259
(PID.TID 0000.0001)          No. starts: 1
(PID.TID 0000.0001)           No. stops: 1
(PID.TID 0000.0001)   Seconds in section "MAIN LOOP           [THE_MAIN_LOOP]":
(PID.TID 0000.0001)           User time:  0.189999994
(PID.TID 0000.0001)         System time:  0.00999999978
(PID.TID 0000.0001)     Wall clock time:  0.194366932
(PID.TID 0000.0001)          No. starts: 1
(PID.TID 0000.0001)           No. stops: 1
(PID.TID 0000.0001)   Seconds in section "FORWARD_STEP        [THE_MAIN_LOOP]":
(PID.TID 0000.0001)           User time:  0.189999994
(PID.TID 0000.0001)         System time:  0.00999999978
(PID.TID 0000.0001)     Wall clock time:  0.194047689
(PID.TID 0000.0001)          No. starts: 10
(PID.TID 0000.0001)           No. stops: 10
(PID.TID 0000.0001)   Seconds in section "EXTERNAL_FIELDS_LOAD[FORWARD_STEP]":
(PID.TID 0000.0001)           User time:  0.
(PID.TID 0000.0001)         System time:  0.
(PID.TID 0000.0001)     Wall clock time:  0.000288486481
(PID.TID 0000.0001)          No. starts: 10
(PID.TID 0000.0001)           No. stops: 10
(PID.TID 0000.0001)   Seconds in section "DO_ATMOSPHERIC_PHYS [FORWARD_STEP]":
(PID.TID 0000.0001)           User time:  0.
(PID.TID 0000.0001)         System time:  0.
(PID.TID 0000.0001)     Wall clock time:  0.000287532806
(PID.TID 0000.0001)          No. starts: 10
(PID.TID 0000.0001)           No. stops: 10
(PID.TID 0000.0001)   Seconds in section "DO_OCEANIC_PHYS     [FORWARD_STEP]":
(PID.TID 0000.0001)           User time:  0.
(PID.TID 0000.0001)         System time:  0.
(PID.TID 0000.0001)     Wall clock time:  0.00111865997
(PID.TID 0000.0001)          No. starts: 10
(PID.TID 0000.0001)           No. stops: 10
(PID.TID 0000.0001)   Seconds in section "DYNAMICS            [FORWARD_STEP]":
(PID.TID 0000.0001)           User time:  0.0399999917
(PID.TID 0000.0001)         System time:  0.
(PID.TID 0000.0001)     Wall clock time:  0.0307486057
(PID.TID 0000.0001)          No. starts: 10
(PID.TID 0000.0001)           No. stops: 10
(PID.TID 0000.0001)   Seconds in section "SOLVE_FOR_PRESSURE  [FORWARD_STEP]":
(PID.TID 0000.0001)           User time:  0.0199999884
(PID.TID 0000.0001)         System time:  0.
(PID.TID 0000.0001)     Wall clock time:  0.0283071995
(PID.TID 0000.0001)          No. starts: 10
(PID.TID 0000.0001)           No. stops: 10
(PID.TID 0000.0001)   Seconds in section "UV_CORRECTION_STEP  [FORWARD_STEP]":
(PID.TID 0000.0001)           User time:  0.0300000086
(PID.TID 0000.0001)         System time:  0.
(PID.TID 0000.0001)     Wall clock time:  0.0327310562
(PID.TID 0000.0001)          No. starts: 10
(PID.TID 0000.0001)           No. stops: 10
(PID.TID 0000.0001)   Seconds in section "BLOCKING_EXCHANGES  [FORWARD_STEP]":
(PID.TID 0000.0001)           User time:  0.0200000033
(PID.TID 0000.0001)         System time:  0.
(PID.TID 0000.0001)     Wall clock time:  0.00609779358
(PID.TID 0000.0001)          No. starts: 20
(PID.TID 0000.0001)           No. stops: 20
(PID.TID 0000.0001)   Seconds in section "THERMODYNAMICS      [FORWARD_STEP]":
(PID.TID 0000.0001)           User time:  0.0299999975
(PID.TID 0000.0001)         System time:  0.
(PID.TID 0000.0001)     Wall clock time:  0.0233309269
(PID.TID 0000.0001)          No. starts: 10
(PID.TID 0000.0001)           No. stops: 10
(PID.TID 0000.0001)   Seconds in section "TS_CORRECTION_STEP  [FORWARD_STEP]":
(PID.TID 0000.0001)           User time:  0.0200000107
(PID.TID 0000.0001)         System time:  0.
(PID.TID 0000.0001)     Wall clock time:  0.028162241
(PID.TID 0000.0001)          No. starts: 10
(PID.TID 0000.0001)           No. stops: 10
(PID.TID 0000.0001)   Seconds in section "DO_STATEVARS_DIAGS  [FORWARD_STEP]":
(PID.TID 0000.0001)           User time:  0.
(PID.TID 0000.0001)         System time:  0.
(PID.TID 0000.0001)     Wall clock time:  0.00369119644
(PID.TID 0000.0001)          No. starts: 10
(PID.TID 0000.0001)           No. stops: 10
(PID.TID 0000.0001)   Seconds in section "MONITOR             [FORWARD_STEP]":
(PID.TID 0000.0001)           User time:  0.0199999884
(PID.TID 0000.0001)         System time:  0.
(PID.TID 0000.0001)     Wall clock time:  0.0233201981
(PID.TID 0000.0001)          No. starts: 10
(PID.TID 0000.0001)           No. stops: 10
(PID.TID 0000.0001)   Seconds in section "DO_THE_MODEL_IO     [FORWARD_STEP]":
(PID.TID 0000.0001)           User time:  0.
(PID.TID 0000.0001)         System time:  0.00999999978
(PID.TID 0000.0001)     Wall clock time:  0.0112404823
(PID.TID 0000.0001)          No. starts: 10
(PID.TID 0000.0001)           No. stops: 10
(PID.TID 0000.0001)   Seconds in section "WRITE_CHECKPOINT    [FORWARD_STEP]":
(PID.TID 0000.0001)           User time:  0.
(PID.TID 0000.0001)         System time:  0.
(PID.TID 0000.0001)     Wall clock time:  0.00029540062
(PID.TID 0000.0001)          No. starts: 10
(PID.TID 0000.0001)           No. stops: 10
(PID.TID 0000.0001)   Seconds in section "WRITE_CHECKPOINT       [THE_MODEL_MAIN]":
(PID.TID 0000.0001)           User time:  0.0100000054
(PID.TID 0000.0001)         System time:  0.
(PID.TID 0000.0001)     Wall clock time:  0.0142319202
(PID.TID 0000.0001)          No. starts: 1
(PID.TID 0000.0001)           No. stops: 1
(PID.TID 0000.0001) // ======================================================
(PID.TID 0000.0001) // Tile <-> Tile communication statistics
(PID.TID 0000.0001) // ======================================================
(PID.TID 0000.0001) // o Tile number: 000001
(PID.TID 0000.0001) //         No. X exchanges =              0
(PID.TID 0000.0001) //            Max. X spins =              0
(PID.TID 0000.0001) //            Min. X spins =     1000000000
(PID.TID 0000.0001) //          Total. X spins =              0
(PID.TID 0000.0001) //            Avg. X spins =       0.00E+00
(PID.TID 0000.0001) //         No. Y exchanges =              0
(PID.TID 0000.0001) //            Max. Y spins =              0
(PID.TID 0000.0001) //            Min. Y spins =     1000000000
(PID.TID 0000.0001) //          Total. Y spins =              0
(PID.TID 0000.0001) //            Avg. Y spins =       0.00E+00
(PID.TID 0000.0001) // o Tile number: 000002
(PID.TID 0000.0001) //         No. X exchanges =              0
(PID.TID 0000.0001) //            Max. X spins =              0
(PID.TID 0000.0001) //            Min. X spins =     1000000000
(PID.TID 0000.0001) //          Total. X spins =              0
(PID.TID 0000.0001) //            Avg. X spins =       0.00E+00
(PID.TID 0000.0001) //         No. Y exchanges =              0
(PID.TID 0000.0001) //            Max. Y spins =              0
(PID.TID 0000.0001) //            Min. Y spins =     1000000000
(PID.TID 0000.0001) //          Total. Y spins =              0
(PID.TID 0000.0001) //            Avg. Y spins =       0.00E+00
(PID.TID 0000.0001) // o Thread number: 000001
(PID.TID 0000.0001) //            No. barriers =           8160
(PID.TID 0000.0001) //      Max. barrier spins =              1
(PID.TID 0000.0001) //      Min. barrier spins =              1
(PID.TID 0000.0001) //     Total barrier spins =           8160
(PID.TID 0000.0001) //      Avg. barrier spins =       1.00E+00
