(PID.TID 0000.0001) 
(PID.TID 0000.0001) // ======================================================
(PID.TID 0000.0001) //                      MITgcm UV
(PID.TID 0000.0001) //                      =========
(PID.TID 0000.0001) // ======================================================
(PID.TID 0000.0001) // execution environment starting up...
(PID.TID 0000.0001) 
(PID.TID 0000.0001) // MITgcmUV version:  checkpoint62v
(PID.TID 0000.0001) // Build user:        jmc
(PID.TID 0000.0001) // Build host:        baudelaire
(PID.TID 0000.0001) // Build date:        Mon Apr 25 18:54:04 EDT 2011
(PID.TID 0000.0001) 
(PID.TID 0000.0001) // =======================================================
(PID.TID 0000.0001) // Execution Environment parameter file "eedata"
(PID.TID 0000.0001) // =======================================================
(PID.TID 0000.0001) ># Example "eedata" file
(PID.TID 0000.0001) ># Lines beginning "#" are comments
(PID.TID 0000.0001) ># nTx - No. threads per process in X
(PID.TID 0000.0001) ># nTy - No. threads per process in Y
(PID.TID 0000.0001) > &EEPARMS
(PID.TID 0000.0001) > nTx=1,
(PID.TID 0000.0001) > nTy=1,
(PID.TID 0000.0001) > useSETRLSTK=.TRUE.,
(PID.TID 0000.0001) > /
(PID.TID 0000.0001) ># Note: Some systems use & as the
(PID.TID 0000.0001) ># namelist terminator. Other systems
(PID.TID 0000.0001) ># use a / character (as shown here).
(PID.TID 0000.0001) 
(PID.TID 0000.0001) // =======================================================
(PID.TID 0000.0001) // Computational Grid Specification ( see files "SIZE.h" )
(PID.TID 0000.0001) //                                  ( and "eedata"       )
(PID.TID 0000.0001) // =======================================================
(PID.TID 0000.0001)      nPx =    1 ; /* No. processes in X */
(PID.TID 0000.0001)      nPy =    1 ; /* No. processes in Y */
(PID.TID 0000.0001)      nSx =    2 ; /* No. tiles in X per process */
(PID.TID 0000.0001)      nSy =    2 ; /* No. tiles in Y per process */
(PID.TID 0000.0001)      sNx =   45 ; /* Tile size in X */
(PID.TID 0000.0001)      sNy =   20 ; /* Tile size in Y */
(PID.TID 0000.0001)      OLx =    3 ; /* Tile overlap distance in X */
(PID.TID 0000.0001)      OLy =    3 ; /* Tile overlap distance in Y */
(PID.TID 0000.0001)      nTx =    1 ; /* No. threads in X per process */
(PID.TID 0000.0001)      nTy =    1 ; /* No. threads in Y per process */
(PID.TID 0000.0001)       Nr =   15 ; /* No. levels in the vertical   */
(PID.TID 0000.0001)       Nx =   90 ; /* Total domain size in X ( = nPx*nSx*sNx ) */
(PID.TID 0000.0001)       Ny =   40 ; /* Total domain size in Y ( = nPy*nSy*sNy ) */
(PID.TID 0000.0001)   nTiles =    4 ; /* Total no. tiles per process ( = nSx*nSy ) */
(PID.TID 0000.0001)   nProcs =    1 ; /* Total no. processes ( = nPx*nPy ) */
(PID.TID 0000.0001) nThreads =    1 ; /* Total no. threads per process ( = nTx*nTy ) */
(PID.TID 0000.0001) usingMPI =    F ; /* Flag used to control whether MPI is in use */
(PID.TID 0000.0001)                   /*  note: To execute a program with MPI calls */
(PID.TID 0000.0001)                   /*  it must be launched appropriately e.g     */
(PID.TID 0000.0001)                   /*  "mpirun -np 64 ......"                    */
(PID.TID 0000.0001) useCoupler=    F ;/* Flag used to control communications with   */
(PID.TID 0000.0001)                   /*  other model components, through a coupler */
(PID.TID 0000.0001) printMapIncludesZeros=    F ; /* print zeros in Std.Output maps */
(PID.TID 0000.0001) maxLengthPrt1D=   65 /* maxLength of 1D array printed to StdOut */
(PID.TID 0000.0001) 
(PID.TID 0000.0001) // ======================================================
(PID.TID 0000.0001) // Mapping of tiles to threads
(PID.TID 0000.0001) // ======================================================
(PID.TID 0000.0001) // -o- Thread   1, tiles (   1:   2,   1:   2)
(PID.TID 0000.0001) 
(PID.TID 0000.0001) // ======================================================
(PID.TID 0000.0001) // Tile <-> Tile connectvity table
(PID.TID 0000.0001) // ======================================================
(PID.TID 0000.0001) // Tile number: 000001 (process no. = 000001)
(PID.TID 0000.0001) //        WEST: Tile = 000002, Process = 000001, Comm = put
(PID.TID 0000.0001) //                bi = 000002, bj = 000001
(PID.TID 0000.0001) //        EAST: Tile = 000002, Process = 000001, Comm = put
(PID.TID 0000.0001) //                bi = 000002, bj = 000001
(PID.TID 0000.0001) //       SOUTH: Tile = 000003, Process = 000001, Comm = put
(PID.TID 0000.0001) //                bi = 000001, bj = 000002
(PID.TID 0000.0001) //       NORTH: Tile = 000003, Process = 000001, Comm = put
(PID.TID 0000.0001) //                bi = 000001, bj = 000002
(PID.TID 0000.0001) // Tile number: 000002 (process no. = 000001)
(PID.TID 0000.0001) //        WEST: Tile = 000001, Process = 000001, Comm = put
(PID.TID 0000.0001) //                bi = 000001, bj = 000001
(PID.TID 0000.0001) //        EAST: Tile = 000001, Process = 000001, Comm = put
(PID.TID 0000.0001) //                bi = 000001, bj = 000001
(PID.TID 0000.0001) //       SOUTH: Tile = 000004, Process = 000001, Comm = put
(PID.TID 0000.0001) //                bi = 000002, bj = 000002
(PID.TID 0000.0001) //       NORTH: Tile = 000004, Process = 000001, Comm = put
(PID.TID 0000.0001) //                bi = 000002, bj = 000002
(PID.TID 0000.0001) // Tile number: 000003 (process no. = 000001)
(PID.TID 0000.0001) //        WEST: Tile = 000004, Process = 000001, Comm = put
(PID.TID 0000.0001) //                bi = 000002, bj = 000002
(PID.TID 0000.0001) //        EAST: Tile = 000004, Process = 000001, Comm = put
(PID.TID 0000.0001) //                bi = 000002, bj = 000002
(PID.TID 0000.0001) //       SOUTH: Tile = 000001, Process = 000001, Comm = put
(PID.TID 0000.0001) //                bi = 000001, bj = 000001
(PID.TID 0000.0001) //       NORTH: Tile = 000001, Process = 000001, Comm = put
(PID.TID 0000.0001) //                bi = 000001, bj = 000001
(PID.TID 0000.0001) // Tile number: 000004 (process no. = 000001)
(PID.TID 0000.0001) //        WEST: Tile = 000003, Process = 000001, Comm = put
(PID.TID 0000.0001) //                bi = 000001, bj = 000002
(PID.TID 0000.0001) //        EAST: Tile = 000003, Process = 000001, Comm = put
(PID.TID 0000.0001) //                bi = 000001, bj = 000002
(PID.TID 0000.0001) //       SOUTH: Tile = 000002, Process = 000001, Comm = put
(PID.TID 0000.0001) //                bi = 000002, bj = 000001
(PID.TID 0000.0001) //       NORTH: Tile = 000002, Process = 000001, Comm = put
(PID.TID 0000.0001) //                bi = 000002, bj = 000001
(PID.TID 0000.0001) 
(PID.TID 0000.0001) DEBUG_MSG: ENTERED S/R THE_MODEL_MAIN
(PID.TID 0000.0001) DEBUG_MSG: CALLING S/R INITIALISE_FIXED
(PID.TID 0000.0001)  INI_PARMS: opening model parameter file "data"
(PID.TID 0000.0001)  OPEN_COPY_DATA_FILE: opening file data
(PID.TID 0000.0001) // =======================================================
(PID.TID 0000.0001) // Parameter file "data"
(PID.TID 0000.0001) // =======================================================
(PID.TID 0000.0001) ># ====================
(PID.TID 0000.0001) ># | Model parameters |
(PID.TID 0000.0001) ># ====================
(PID.TID 0000.0001) >#
(PID.TID 0000.0001) ># Continuous equation parameters
(PID.TID 0000.0001) > &PARM01
(PID.TID 0000.0001) > tRef = 15*20.,
(PID.TID 0000.0001) > sRef = 15*35.,
(PID.TID 0000.0001) > viscAr=1.E-3,
(PID.TID 0000.0001) > viscAh=5.E5,
(PID.TID 0000.0001) > viscA4=3.E14,
(PID.TID 0000.0001) > diffKhT=0.,
(PID.TID 0000.0001) > diffKrT=3.E-5,
(PID.TID 0000.0001) > diffKhS=0.,
(PID.TID 0000.0001) > diffKrS=3.E-5,
(PID.TID 0000.0001) > rhoConst=1035.,
(PID.TID 0000.0001) > rhoConstFresh=1000.,
(PID.TID 0000.0001) > gravity=9.81,
(PID.TID 0000.0001) > eosType='JMD95P',
(PID.TID 0000.0001) > ivdc_kappa=10.,
(PID.TID 0000.0001) > implicitDiffusion=.TRUE.,
(PID.TID 0000.0001) > allowFreezing=.TRUE.,
(PID.TID 0000.0001) > exactConserv=.TRUE.,
(PID.TID 0000.0001) > select_rStar=2,
(PID.TID 0000.0001) > nonlinFreeSurf=4,
(PID.TID 0000.0001) > hFacInf=0.2,
(PID.TID 0000.0001) > hFacSup=2.0,
(PID.TID 0000.0001) > useRealFreshWaterFlux=.TRUE.,
(PID.TID 0000.0001) > useCDscheme=.TRUE.,
(PID.TID 0000.0001) > quasiHydrostatic=.TRUE.,
(PID.TID 0000.0001) > useNHMTerms=.TRUE.,
(PID.TID 0000.0001) ># turn on looped cells
(PID.TID 0000.0001) > hFacMin=.05,
(PID.TID 0000.0001) > hFacMindr=50.,
(PID.TID 0000.0001) ># set precision of data files
(PID.TID 0000.0001) > readBinaryPrec=32,
(PID.TID 0000.0001) >#writeBinaryPrec=64,
(PID.TID 0000.0001) >#debugMode=.TRUE.,
(PID.TID 0000.0001) > /
(PID.TID 0000.0001) >
(PID.TID 0000.0001) ># Elliptic solver parameters
(PID.TID 0000.0001) > &PARM02
(PID.TID 0000.0001) > cg2dMaxIters=500,
(PID.TID 0000.0001) > cg2dTargetResidual=1.E-13,
(PID.TID 0000.0001) > /
(PID.TID 0000.0001) >
(PID.TID 0000.0001) ># Time stepping parameters
(PID.TID 0000.0001) > &PARM03
(PID.TID 0000.0001) > nIter0=36000,
(PID.TID 0000.0001) > nTimeSteps=10,
(PID.TID 0000.0001) ># 100 years of integration will yield a reasonable flow field
(PID.TID 0000.0001) ># startTime =          0.,
(PID.TID 0000.0001) ># endTime   = 3110400000.,
(PID.TID 0000.0001) > deltaTmom = 1800.,
(PID.TID 0000.0001) > tauCD =     321428.,
(PID.TID 0000.0001) > deltaTtracer= 86400.,
(PID.TID 0000.0001) > deltaTClock = 86400.,
(PID.TID 0000.0001) > deltaTfreesurf= 86400.,
(PID.TID 0000.0001) > abEps = 0.1,
(PID.TID 0000.0001) > pChkPtFreq= 311040000.,
(PID.TID 0000.0001) > dumpFreq=   311040000.,
(PID.TID 0000.0001) > dumpFreq=   864000.,
(PID.TID 0000.0001) >#monitorFreq=31104000.,
(PID.TID 0000.0001) > monitorFreq=1.,
(PID.TID 0000.0001) ># 2 months restoring timescale for temperature
(PID.TID 0000.0001) > tauThetaClimRelax=  5184000.,
(PID.TID 0000.0001) ># 6 months restoring timescale for salinity
(PID.TID 0000.0001) > tauSaltClimRelax = 15552000.,
(PID.TID 0000.0001) > periodicExternalForcing=.TRUE.,
(PID.TID 0000.0001) > externForcingPeriod=2592000.,
(PID.TID 0000.0001) > externForcingCycle=31104000.,
(PID.TID 0000.0001) > /
(PID.TID 0000.0001) >
(PID.TID 0000.0001) ># Gridding parameters
(PID.TID 0000.0001) > &PARM04
(PID.TID 0000.0001) > usingSphericalPolarGrid=.TRUE.,
(PID.TID 0000.0001) > delR= 50.,  70., 100., 140., 190.,
(PID.TID 0000.0001) >      240., 290., 340., 390., 440.,
(PID.TID 0000.0001) >      490., 540., 590., 640., 690.,
(PID.TID 0000.0001) > ygOrigin=-80.,
(PID.TID 0000.0001) > dySpacing=4.,
(PID.TID 0000.0001) > dxSpacing=4.,
(PID.TID 0000.0001) > /
(PID.TID 0000.0001) >
(PID.TID 0000.0001) ># Input datasets
(PID.TID 0000.0001) > &PARM05
(PID.TID 0000.0001) > bathyFile=      'bathymetry.bin',
(PID.TID 0000.0001) > hydrogThetaFile='lev_t.bin',
(PID.TID 0000.0001) > hydrogSaltFile= 'lev_s.bin',
(PID.TID 0000.0001) > zonalWindFile=  'trenberth_taux.bin',
(PID.TID 0000.0001) > meridWindFile=  'trenberth_tauy.bin',
(PID.TID 0000.0001) > thetaClimFile=  'lev_sst.bin',
(PID.TID 0000.0001) > saltClimFile=   'lev_sss.bin',
(PID.TID 0000.0001) > surfQFile=      'ncep_qnet.bin',
(PID.TID 0000.0001) > the_run_name=   'global_ocean.90x40x15',
(PID.TID 0000.0001) > EmPmRFile=      'ncep_emp.bin',
(PID.TID 0000.0001) > /
(PID.TID 0000.0001) 
(PID.TID 0000.0001)  INI_PARMS ; starts to read PARM01
(PID.TID 0000.0001)  INI_PARMS ; read PARM01 : OK
(PID.TID 0000.0001) S/R INI_PARMS: No request for barotropic solver
(PID.TID 0000.0001) S/R INI_PARMS: => Use implicitFreeSurface as default
(PID.TID 0000.0001)  INI_PARMS ; starts to read PARM02
(PID.TID 0000.0001)  INI_PARMS ; read PARM02 : OK
(PID.TID 0000.0001)  INI_PARMS ; starts to read PARM03
(PID.TID 0000.0001)  INI_PARMS ; read PARM03 : OK
(PID.TID 0000.0001)  INI_PARMS ; starts to read PARM04
(PID.TID 0000.0001)  INI_PARMS ; read PARM04 : OK
(PID.TID 0000.0001)  INI_PARMS ; starts to read PARM05
(PID.TID 0000.0001)  INI_PARMS ; read PARM05 : OK
(PID.TID 0000.0001)  INI_PARMS: finished reading file "data"
(PID.TID 0000.0001)  PACKAGES_BOOT: opening data.pkg
(PID.TID 0000.0001)  OPEN_COPY_DATA_FILE: opening file data.pkg
(PID.TID 0000.0001) // =======================================================
(PID.TID 0000.0001) // Parameter file "data.pkg"
(PID.TID 0000.0001) // =======================================================
(PID.TID 0000.0001) ># Packages (lines beginning "#" are comments)
(PID.TID 0000.0001) > &PACKAGES
(PID.TID 0000.0001) > useGMRedi=.TRUE.,
(PID.TID 0000.0001) > useSBO=.TRUE.,
(PID.TID 0000.0001) > useDiagnostics=.TRUE.,
(PID.TID 0000.0001) > useMNC=.TRUE.,
(PID.TID 0000.0001) > /
(PID.TID 0000.0001) 
(PID.TID 0000.0001)  PACKAGES_BOOT: finished reading data.pkg
(PID.TID 0000.0001)  MNC_READPARMS: opening file 'data.mnc'
(PID.TID 0000.0001)  OPEN_COPY_DATA_FILE: opening file data.mnc
(PID.TID 0000.0001) // =======================================================
(PID.TID 0000.0001) // Parameter file "data.mnc"
(PID.TID 0000.0001) // =======================================================
(PID.TID 0000.0001) ># Example "data.mnc" file
(PID.TID 0000.0001) ># Lines beginning "#" are comments
(PID.TID 0000.0001) > &MNC_01
(PID.TID 0000.0001) ># mnc_echo_gvtypes=.FALSE.,
(PID.TID 0000.0001) ># mnc_use_indir=.FALSE.,
(PID.TID 0000.0001) > mnc_use_outdir=.TRUE.,
(PID.TID 0000.0001) > mnc_outdir_str='mnc_test_',
(PID.TID 0000.0001) >#mnc_outdir_date=.TRUE.,
(PID.TID 0000.0001) > monitor_mnc=.FALSE.,
(PID.TID 0000.0001) >#timeave_mnc=.FALSE.,
(PID.TID 0000.0001) >#snapshot_mnc=.FALSE.,
(PID.TID 0000.0001) > pickup_write_mnc=.FALSE.,
(PID.TID 0000.0001) > pickup_read_mnc=.FALSE.,
(PID.TID 0000.0001) > /
(PID.TID 0000.0001) ># Note: Some systems use & as the
(PID.TID 0000.0001) ># namelist terminator. Other systems
(PID.TID 0000.0001) ># use a / character (as shown here).
(PID.TID 0000.0001) 
(PID.TID 0000.0001)  MNC_READPARMS: finished reading data.mnc
(PID.TID 0000.0001)  GM_READPARMS: opening data.gmredi
(PID.TID 0000.0001)  OPEN_COPY_DATA_FILE: opening file data.gmredi
(PID.TID 0000.0001) // =======================================================
(PID.TID 0000.0001) // Parameter file "data.gmredi"
(PID.TID 0000.0001) // =======================================================
(PID.TID 0000.0001) ># GM+Redi package parameters:
(PID.TID 0000.0001) >
(PID.TID 0000.0001) >#-from MOM :
(PID.TID 0000.0001) ># GM_background_K: 	G & Mc.W  diffusion coefficient
(PID.TID 0000.0001) ># GM_maxSlope    :	max slope of isopycnals
(PID.TID 0000.0001) ># GM_Scrit       :	transition for scaling diffusion coefficient
(PID.TID 0000.0001) ># GM_Sd          :	half width scaling for diffusion coefficient
(PID.TID 0000.0001) ># GM_taper_scheme:	slope clipping or one of the tapering schemes
(PID.TID 0000.0001) ># GM_Kmin_horiz  :	horizontal diffusion minimum value
(PID.TID 0000.0001) >
(PID.TID 0000.0001) >#-Option parameters (needs to "define" options in GMREDI_OPTIONS.h")
(PID.TID 0000.0001) ># GM_isopycK     :	isopycnal diffusion coefficient (default=GM_background_K)
(PID.TID 0000.0001) ># GM_AdvForm     :	turn on GM Advective form       (default=Skew flux form)
(PID.TID 0000.0001) >
(PID.TID 0000.0001) > &GM_PARM01
(PID.TID 0000.0001) >  GM_background_K    = 1.e+3,
(PID.TID 0000.0001) >  GM_taper_scheme    = 'gkw91',
(PID.TID 0000.0001) >  GM_maxSlope        = 1.e-2,
(PID.TID 0000.0001) >  GM_Kmin_horiz      = 50.,
(PID.TID 0000.0001) >  GM_Scrit           = 4.e-3,
(PID.TID 0000.0001) >  GM_Sd              = 1.e-3,
(PID.TID 0000.0001) ># GM_Visbeck_alpha   = 0.,
(PID.TID 0000.0001) ># GM_Visbeck_length  = 2.e+5,
(PID.TID 0000.0001) ># GM_Visbeck_depth   = 1.e+3,
(PID.TID 0000.0001) ># GM_Visbeck_maxval_K= 2.5e+3,
(PID.TID 0000.0001) > /
(PID.TID 0000.0001) >
(PID.TID 0000.0001) >
(PID.TID 0000.0001) 
(PID.TID 0000.0001)  GM_READPARMS: finished reading data.gmredi
(PID.TID 0000.0001)  SBO_READPARMS: opening data.sbo
(PID.TID 0000.0001)  OPEN_COPY_DATA_FILE: opening file data.sbo
(PID.TID 0000.0001) // =======================================================
(PID.TID 0000.0001) // Parameter file "data.sbo"
(PID.TID 0000.0001) // =======================================================
(PID.TID 0000.0001) >#
(PID.TID 0000.0001) > &SBO_PARM01
(PID.TID 0000.0001) > /
(PID.TID 0000.0001) 
(PID.TID 0000.0001)  SBO_READPARMS: finished reading data.sbo
(PID.TID 0000.0001)  DIAGNOSTICS_READPARMS: opening data.diagnostics
(PID.TID 0000.0001)  OPEN_COPY_DATA_FILE: opening file data.diagnostics
(PID.TID 0000.0001) // =======================================================
(PID.TID 0000.0001) // Parameter file "data.diagnostics"
(PID.TID 0000.0001) // =======================================================
(PID.TID 0000.0001) ># Diagnostic Package Choices
(PID.TID 0000.0001) >#--------------------
(PID.TID 0000.0001) >#  dumpAtLast (logical): always write output at the end of simulation (default=F)
(PID.TID 0000.0001) >#  diag_mnc   (logical): write to NetCDF files (default=useMNC)
(PID.TID 0000.0001) >#--for each output-stream:
(PID.TID 0000.0001) >#  fileName(n) : prefix of the output file name (max 80c long) for outp.stream n
(PID.TID 0000.0001) >#  frequency(n):< 0 : write snap-shot output every |frequency| seconds
(PID.TID 0000.0001) >#               > 0 : write time-average output every frequency seconds
(PID.TID 0000.0001) >#  timePhase(n)     : write at time = timePhase + multiple of |frequency|
(PID.TID 0000.0001) >#    averagingFreq  : frequency (in s) for periodic averaging interval
(PID.TID 0000.0001) >#    averagingPhase : phase     (in s) for periodic averaging interval
(PID.TID 0000.0001) >#    repeatCycle    : number of averaging intervals in 1 cycle
(PID.TID 0000.0001) >#  levels(:,n) : list of levels to write to file (Notes: declared as REAL)
(PID.TID 0000.0001) >#                when this entry is missing, select all common levels of this list
(PID.TID 0000.0001) >#  fields(:,n) : list of selected diagnostics fields (8.c) in outp.stream n
(PID.TID 0000.0001) >#                (see "available_diagnostics.log" file for the full list of diags)
(PID.TID 0000.0001) >#  missing_value(n) : missing value for real-type fields in output file "n"
(PID.TID 0000.0001) >#  fileFlags(n)     : specific code (8c string) for output file "n"
(PID.TID 0000.0001) >#--------------------
(PID.TID 0000.0001) > &DIAGNOSTICS_LIST
(PID.TID 0000.0001) ># diag_mnc     = .FALSE.,
(PID.TID 0000.0001) >#--
(PID.TID 0000.0001) >  fields(1:5,1)  = 'ETAN    ','ETANSQ  ','DETADT2 ',
(PID.TID 0000.0001) >                   'PHIBOT  ','PHIBOTSQ',
(PID.TID 0000.0001) >#                  'DSLPuFlw','DSLPvFlw',
(PID.TID 0000.0001) >   fileName(1) = 'surfDiag',
(PID.TID 0000.0001) ># frequency(1) = 311040000.,
(PID.TID 0000.0001) >  frequency(1) = 864000.,
(PID.TID 0000.0001) >
(PID.TID 0000.0001) >  fields(1:6,2)  = 'UVELMASS','VVELMASS','WVEL    ',
(PID.TID 0000.0001) >#                  'UVEL    ','VVEL    ','PHIHYD  ',
(PID.TID 0000.0001) >                   'THETA   ','SALT    ','WVELSQ  ',
(PID.TID 0000.0001) ># do not specify levels => all levels are selected
(PID.TID 0000.0001) >   fileName(2) = 'dynDiag',
(PID.TID 0000.0001) ># frequency(2) = 311040000.,
(PID.TID 0000.0001) >  frequency(2) = 864000.,
(PID.TID 0000.0001) >
(PID.TID 0000.0001) >  fields(1:6,3)  = 'RHOAnoma','DRHODR  ','CONVADJ ',
(PID.TID 0000.0001) >#                  'GM_PsiX ','GM_PsiY ',
(PID.TID 0000.0001) >                   'GM_Kwx  ','GM_Kwy  ','GM_Kwz  ',
(PID.TID 0000.0001) >#                  'GM_Kux  ','GM_Kvy  ',
(PID.TID 0000.0001) >#                  'GM_Kuz  ','GM_Kvz  ',
(PID.TID 0000.0001) >#                  'DSLP_TH ','DSLP_SLT',
(PID.TID 0000.0001) >   fileName(3) = 'oceDiag',
(PID.TID 0000.0001) ># frequency(3) = 311040000.,
(PID.TID 0000.0001) >  frequency(3) = 864000.,
(PID.TID 0000.0001) > /
(PID.TID 0000.0001) >
(PID.TID 0000.0001) >#--------------------
(PID.TID 0000.0001) ># Parameter for Diagnostics of per level statistics:
(PID.TID 0000.0001) >#--------------------
(PID.TID 0000.0001) >#  diagSt_mnc (logical): write stat-diags to NetCDF files (default=diag_mnc)
(PID.TID 0000.0001) >#  diagSt_regMaskFile : file containing the region-mask to read-in
(PID.TID 0000.0001) >#  nSetRegMskFile   : number of region-mask sets within the region-mask file
(PID.TID 0000.0001) >#  set_regMask(i)   : region-mask set-index that identifies the region "i"
(PID.TID 0000.0001) >#  val_regMask(i)   : region "i" identifier value in the region mask
(PID.TID 0000.0001) >#--for each output-stream:
(PID.TID 0000.0001) >#  stat_fName(n) : prefix of the output file name (max 80c long) for outp.stream n
(PID.TID 0000.0001) >#  stat_freq(n):< 0 : write snap-shot output every |stat_freq| seconds
(PID.TID 0000.0001) >#               > 0 : write time-average output every stat_freq seconds
(PID.TID 0000.0001) >#  stat_phase(n)    : write at time = stat_phase + multiple of |stat_freq|
(PID.TID 0000.0001) >#  stat_region(:,n) : list of "regions" (default: 1 region only=global)
(PID.TID 0000.0001) >#  stat_fields(:,n) : list of selected diagnostics fields (8.c) in outp.stream n
(PID.TID 0000.0001) >#                (see "available_diagnostics.log" file for the full list of diags)
(PID.TID 0000.0001) >#--------------------
(PID.TID 0000.0001) > &DIAG_STATIS_PARMS
(PID.TID 0000.0001) >#diagSt_mnc = .FALSE.,
(PID.TID 0000.0001) >#--
(PID.TID 0000.0001) > stat_fields(1:9,1) = 'ETAN    ','ETANSQ  ','DETADT2 ',
(PID.TID 0000.0001) >                      'UVEL    ','VVEL    ','WVEL    ',
(PID.TID 0000.0001) >                      'THETA   ','SALT    ','WVELSQ  ',
(PID.TID 0000.0001) >  stat_fName(1) = 'dynStDiag',
(PID.TID 0000.0001) >   stat_freq(1) = 2592000.,
(PID.TID 0000.0001) >#  stat_freq(1) = 432000.,
(PID.TID 0000.0001) ># stat_phase(1) = 86400.,
(PID.TID 0000.0001) > stat_fields(1:3,2) = 'RHOAnoma','DRHODR  ','CONVADJ ',
(PID.TID 0000.0001) >#                     'DSLPuFlw','DSLPvFlw',
(PID.TID 0000.0001) >#                     'DSLP_TH ','DSLP_SLT',
(PID.TID 0000.0001) >#                     'DSLPTr01','Add2EmP ',
(PID.TID 0000.0001) >  stat_fName(2) = 'oceStDiag',
(PID.TID 0000.0001) >   stat_freq(2) = 2592000.,
(PID.TID 0000.0001) >#  stat_freq(2) = 432000.,
(PID.TID 0000.0001) > /
(PID.TID 0000.0001) >
(PID.TID 0000.0001) 
(PID.TID 0000.0001) S/R DIAGNOSTICS_READPARMS, read namelist "diagnostics_list": start
(PID.TID 0000.0001) S/R DIAGNOSTICS_READPARMS, read namelist "diagnostics_list": OK
(PID.TID 0000.0001) S/R DIAGNOSTICS_READPARMS, read namelist "DIAG_STATIS_PARMS": start
(PID.TID 0000.0001) S/R DIAGNOSTICS_READPARMS, read namelist "DIAG_STATIS_PARMS": OK
(PID.TID 0000.0001) -----------------------------------------------------
(PID.TID 0000.0001)  DIAGNOSTICS_READPARMS: active diagnostics summary:
(PID.TID 0000.0001) -----------------------------------------------------
(PID.TID 0000.0001) Creating Output Stream: surfDiag
(PID.TID 0000.0001) Output Frequency:     864000.000000 ; Phase:           0.000000
(PID.TID 0000.0001)  Averaging Freq.:     864000.000000 , Phase:           0.000000 , Cycle:   1
(PID.TID 0000.0001)  missing value:  1.234567000000E+05 ; for integers:   123456789
(PID.TID 0000.0001)  Levels:    will be set later
(PID.TID 0000.0001)  Fields:    ETAN     ETANSQ   DETADT2  PHIBOT   PHIBOTSQ
(PID.TID 0000.0001) Creating Output Stream: dynDiag
(PID.TID 0000.0001) Output Frequency:     864000.000000 ; Phase:           0.000000
(PID.TID 0000.0001)  Averaging Freq.:     864000.000000 , Phase:           0.000000 , Cycle:   1
(PID.TID 0000.0001)  missing value:  1.234567000000E+05 ; for integers:   123456789
(PID.TID 0000.0001)  Levels:    will be set later
(PID.TID 0000.0001)  Fields:    UVELMASS VVELMASS WVEL     THETA    SALT     WVELSQ
(PID.TID 0000.0001) Creating Output Stream: oceDiag
(PID.TID 0000.0001) Output Frequency:     864000.000000 ; Phase:           0.000000
(PID.TID 0000.0001)  Averaging Freq.:     864000.000000 , Phase:           0.000000 , Cycle:   1
(PID.TID 0000.0001)  missing value:  1.234567000000E+05 ; for integers:   123456789
(PID.TID 0000.0001)  Levels:    will be set later
(PID.TID 0000.0001)  Fields:    RHOAnoma DRHODR   CONVADJ  GM_Kwx   GM_Kwy   GM_Kwz
(PID.TID 0000.0001) -----------------------------------------------------
(PID.TID 0000.0001)  DIAGNOSTICS_READPARMS: statistics diags. summary:
(PID.TID 0000.0001) Creating Stats. Output Stream: dynStDiag
(PID.TID 0000.0001) Output Frequency:    2592000.000000 ; Phase:           0.000000
(PID.TID 0000.0001)  Regions:   0
(PID.TID 0000.0001)  Fields:    ETAN     ETANSQ   DETADT2  UVEL     VVEL     WVEL     THETA    SALT     WVELSQ
(PID.TID 0000.0001) Creating Stats. Output Stream: oceStDiag
(PID.TID 0000.0001) Output Frequency:    2592000.000000 ; Phase:           0.000000
(PID.TID 0000.0001)  Regions:   0
(PID.TID 0000.0001)  Fields:    RHOAnoma DRHODR   CONVADJ
(PID.TID 0000.0001) -----------------------------------------------------
(PID.TID 0000.0001) 
(PID.TID 0000.0001) SET_PARMS: done
(PID.TID 0000.0001) Enter INI_VERTICAL_GRID: setInterFDr=    T ; setCenterDr=    F
(PID.TID 0000.0001) %MON XC_max                       =   3.5800000000000E+02
(PID.TID 0000.0001) %MON XC_min                       =   2.0000000000000E+00
(PID.TID 0000.0001) %MON XC_mean                      =   1.8000000000000E+02
(PID.TID 0000.0001) %MON XC_sd                        =   1.0391663325314E+02
(PID.TID 0000.0001) %MON XG_max                       =   3.5600000000000E+02
(PID.TID 0000.0001) %MON XG_min                       =   0.0000000000000E+00
(PID.TID 0000.0001) %MON XG_mean                      =   1.7800000000000E+02
(PID.TID 0000.0001) %MON XG_sd                        =   1.0391663325314E+02
(PID.TID 0000.0001) %MON DXC_max                      =   4.4443898815675E+05
(PID.TID 0000.0001) %MON DXC_min                      =   9.2460385861875E+04
(PID.TID 0000.0001) %MON DXC_mean                     =   3.1372497618153E+05
(PID.TID 0000.0001) %MON DXC_sd                       =   1.1216447457560E+05
(PID.TID 0000.0001) %MON DXF_max                      =   4.4443898815675E+05
(PID.TID 0000.0001) %MON DXF_min                      =   9.2460385861875E+04
(PID.TID 0000.0001) %MON DXF_mean                     =   3.1372497618153E+05
(PID.TID 0000.0001) %MON DXF_sd                       =   1.1216447457560E+05
(PID.TID 0000.0001) %MON DXG_max                      =   4.4470989340816E+05
(PID.TID 0000.0001) %MON DXG_min                      =   7.7223062580781E+04
(PID.TID 0000.0001) %MON DXG_mean                     =   3.1353386340261E+05
(PID.TID 0000.0001) %MON DXG_sd                       =   1.1256651772502E+05
(PID.TID 0000.0001) %MON DXV_max                      =   4.4470989340816E+05
(PID.TID 0000.0001) %MON DXV_min                      =   7.7223062580781E+04
(PID.TID 0000.0001) %MON DXV_mean                     =   3.1353386340261E+05
(PID.TID 0000.0001) %MON DXV_sd                       =   1.1256651772502E+05
(PID.TID 0000.0001) %MON YC_max                       =   7.8000000000000E+01
(PID.TID 0000.0001) %MON YC_min                       =  -7.8000000000000E+01
(PID.TID 0000.0001) %MON YC_mean                      =   0.0000000000000E+00
(PID.TID 0000.0001) %MON YC_sd                        =   4.6173585522461E+01
(PID.TID 0000.0001) %MON YG_max                       =   7.6000000000000E+01
(PID.TID 0000.0001) %MON YG_min                       =  -8.0000000000000E+01
(PID.TID 0000.0001) %MON YG_mean                      =  -2.0000000000000E+00
(PID.TID 0000.0001) %MON YG_sd                        =   4.6173585522461E+01
(PID.TID 0000.0001) %MON DYC_max                      =   4.4470989340816E+05
(PID.TID 0000.0001) %MON DYC_min                      =   4.4470989340816E+05
(PID.TID 0000.0001) %MON DYC_mean                     =   4.4470989340816E+05
(PID.TID 0000.0001) %MON DYC_sd                       =   5.2968971431255E-09
(PID.TID 0000.0001) %MON DYF_max                      =   4.4470989340816E+05
(PID.TID 0000.0001) %MON DYF_min                      =   4.4470989340816E+05
(PID.TID 0000.0001) %MON DYF_mean                     =   4.4470989340816E+05
(PID.TID 0000.0001) %MON DYF_sd                       =   5.2968971431255E-09
(PID.TID 0000.0001) %MON DYG_max                      =   4.4470989340816E+05
(PID.TID 0000.0001) %MON DYG_min                      =   4.4470989340816E+05
(PID.TID 0000.0001) %MON DYG_mean                     =   4.4470989340816E+05
(PID.TID 0000.0001) %MON DYG_sd                       =   5.2968971431255E-09
(PID.TID 0000.0001) %MON DYU_max                      =   4.4470989340816E+05
(PID.TID 0000.0001) %MON DYU_min                      =   4.4470989340816E+05
(PID.TID 0000.0001) %MON DYU_mean                     =   4.4470989340816E+05
(PID.TID 0000.0001) %MON DYU_sd                       =   5.2968971431255E-09
(PID.TID 0000.0001) %MON RA_max                       =   1.9760627980089E+11
(PID.TID 0000.0001) %MON RA_min                       =   4.1109698667290E+10
(PID.TID 0000.0001) %MON RA_mean                      =   1.3948826965196E+11
(PID.TID 0000.0001) %MON RA_sd                        =   4.9870522472902E+10
(PID.TID 0000.0001) %MON RAW_max                      =   1.9760627980089E+11
(PID.TID 0000.0001) %MON RAW_min                      =   4.1109698667290E+10
(PID.TID 0000.0001) %MON RAW_mean                     =   1.3948826965196E+11
(PID.TID 0000.0001) %MON RAW_sd                       =   4.9870522472902E+10
(PID.TID 0000.0001) %MON RAS_max                      =   1.9772672958215E+11
(PID.TID 0000.0001) %MON RAS_min                      =   3.4334886267983E+10
(PID.TID 0000.0001) %MON RAS_mean                     =   1.3940329716694E+11
(PID.TID 0000.0001) %MON RAS_sd                       =   5.0049278732353E+10
(PID.TID 0000.0001) %MON RAZ_max                      =   1.9772672958215E+11
(PID.TID 0000.0001) %MON RAZ_min                      =   3.4334886267983E+10
(PID.TID 0000.0001) %MON RAZ_mean                     =   1.3940329716694E+11
(PID.TID 0000.0001) %MON RAZ_sd                       =   5.0049278732353E+10
(PID.TID 0000.0001) %MON AngleCS_max                  =   1.0000000000000E+00
(PID.TID 0000.0001) %MON AngleCS_min                  =   1.0000000000000E+00
(PID.TID 0000.0001) %MON AngleCS_mean                 =   1.0000000000000E+00
(PID.TID 0000.0001) %MON AngleCS_sd                   =   0.0000000000000E+00
(PID.TID 0000.0001) %MON AngleSN_max                  =   0.0000000000000E+00
(PID.TID 0000.0001) %MON AngleSN_min                  =   0.0000000000000E+00
(PID.TID 0000.0001) %MON AngleSN_mean                 =   0.0000000000000E+00
(PID.TID 0000.0001) %MON AngleSN_sd                   =   0.0000000000000E+00
(PID.TID 0000.0001)  MDS_READ_FIELD: opening global file: bathymetry.bin
(PID.TID 0000.0001) // =======================================================
(PID.TID 0000.0001) // Field Model R_low (ini_masks_etc) at iteration          1
(PID.TID 0000.0001) // CMIN =         -5.200000000000000E+03
(PID.TID 0000.0001) // CMAX =         -1.200000000000000E+02
(PID.TID 0000.0001) // CINT =          1.881481481481482E+02
(PID.TID 0000.0001) // SYMBOLS (CMIN->CMAX): -abcdefghijklmnopqrstuvwxyz+
(PID.TID 0000.0001) //                  0.0: .
(PID.TID 0000.0001) // RANGE I (Lo:Hi:Step):(    -2:    93:     1)
(PID.TID 0000.0001) // RANGE J (Lo:Hi:Step):(    43:    -2:    -1)
(PID.TID 0000.0001) // RANGE K (Lo:Hi:Step):(   1:   1:   1)
(PID.TID 0000.0001) // =======================================================
(PID.TID 0000.0001) K =   1
(PID.TID 0000.0001) //                I=7       I=17      I=27      I=37      I=47      I=51      I=61      I=71      I=81      I=91
(PID.TID 0000.0001) // |--J--|210123456|890123456|890123456|890123456|890123456|834567890|234567890|234567890|234567890|234567890|23
(PID.TID 0000.0001) //     43 ......................................................................................................
(PID.TID 0000.0001) //     42 .............................................zyxxmgzyxxmgfeeefefgimnpwwwy..+zyy.....yyyyoiiihhz+......
(PID.TID 0000.0001) //     41 ......................................................................................................
(PID.TID 0000.0001) //     40 +qlloqz+.++++zzz++++++........................................................................+++qlloq
(PID.TID 0000.0001) //     39 uslloorzzzzzzzzz+...++...........................................................yxxz........+zvuslloo
(PID.TID 0000.0001) //     38 smqpporzzzzzz+++.................................................................zxxy+......zyyvsmqppo
(PID.TID 0000.0001) //     37 smmmuz........................................................................++...zy+...yttyy.+smmmuz
(PID.TID 0000.0001) //     36 yutt+.........................................mm++..mm++....................+++++++znmm.yoowssvuyutt+.
(PID.TID 0000.0001) //     35 w++++.................................+zzz..rrmmkk+rmmkk+...+gghn...........+++....+nmiijlsoopuww++++.
(PID.TID 0000.0001) //     34 +.....................................+vvy.ggqyxv+yqyxv+y.ccdffhim..................+nihhikkihhm+.....
(PID.TID 0000.0001) //     33 w+.....................................uuz---h-----h------aaabdefin+.................zqvddflifffw+....
(PID.TID 0000.0001) //     32 m+.....................................+t----h-----h---------acdfgnn................+++gdffkofffm+....
(PID.TID 0000.0001) //     31 m......................................-----ad-----d--------abddegil..............qbaafccdhqqgddm.....
(PID.TID 0000.0001) //     30 i.....................................f----b--b-----b------------abd............zfbb--fbcdosjfddi.....
(PID.TID 0000.0001) //     29 i...................................tu----e---fjg---fjg----------abdf...........eaac--abfmijaadgi.....
(PID.TID 0000.0001) //     28 z.................................+xfl-------------------------bdedefi.........qbaa---aemfbbaaejz.....
(PID.TID 0000.0001) //     27 .................xx..............+wfgfpf--------eal---eallc---bbbccefgi...+++x.qb-----akfa---ah.......
(PID.TID 0000.0001) //     26 .................xnn...........+vd---dna------a--ai-a--aicfna---aabdfghku.++xssuy-----bgca---ci.......
(PID.TID 0000.0001) //     25 .................iiik...oo+...+ivd---doaa-bc--ilglf-ilglf--aa---aabcghhkll...ssum+xaaacjbaabdjk.......
(PID.TID 0000.0001) //     24 ...............xnheeft.kkk+...uii.aagdm----aa-----a-----a-------bbbcdefjljjju.zummwwbbchba--abi.......
(PID.TID 0000.0001) //     23 ...............xgheefp.iikw...uuw..fihi----fed-----d-----eaaa--bbbbcdfflkjiiiq....zykccefa--abd.......
(PID.TID 0000.0001) //     22 quss...........bbelffslffkk...zz.wqkeeqoheccdfa----fa-----egabaabcdddegghliiiqq......xeeehheehccquss..
(PID.TID 0000.0001) //     21 cbbeir........nbbcdjhqdddiiz.....wqfeelgghmedea----ea-----bibbcddddddefghklnqoo........ieeflhgcccbbeir
(PID.TID 0000.0001) //     20 cbbder.......ldcccdgkccccidd......z.vkkktqqhegg----gg----aaacddddddddefghkiiijl.........nhfa--gfcbbder
(PID.TID 0000.0001) //     19 hcdaaf.......kddosggpaaaibbccx...+z+.....r+nlec---aec---agaaabcddccddefikfgffff...........d---cjhcdaaf
(PID.TID 0000.0001) //     18 hd---d.......kglggvliaaaibbcaaeaiv++...qqzolhecccfdecccfdgkaabcdfccdeeikgfgffdd+..........d---djhd---d
(PID.TID 0000.0001) //     23 ...............xgheefp.iikw...uuw..fihi----fed-----d-----eaaa--bbbbcdfflkjiiiq....zykccefa--abd.......
(PID.TID 0000.0001) //     22 quss...........bbelffslffkk...zz.wqkeeqoheccdfa----fa-----egabaabcdddegghliiiqq......xeeehheehccquss..
(PID.TID 0000.0001) //     21 cbbeir........nbbcdjhqdddiiz.....wqfeelgghmedea----ea-----bibbcddddddefghklnqoo........ieeflhgcccbbeir
(PID.TID 0000.0001) //     20 cbbder.......ldcccdgkccccidd......z.vkkktqqhegg----gg----aaacddddddddefghkiiijl.........nhfa--gfcbbder
(PID.TID 0000.0001) //     19 hcdaaf.......kddosggpaaaibbccx...+z+.....r+nlec---aec---agaaabcddccddefikfgffff...........d---cjhcdaaf
(PID.TID 0000.0001) //     18 hd---d.......kglggvliaaaibbcaaeaiv++...qqzolhecccfdecccfdgkaabcdfccdeeikgfgffdd+..........d---djhd---d
(PID.TID 0000.0001) //     17 hc---c.......l.feewlfaaaoaa----aiv.....qqnllslmlofclmlofcdbaacceffffhhligfigeddj.........hd---ckhc---c
(PID.TID 0000.0001) //     16 gba--c......tn.ddgnlfdaaqa-----lv.......vnllvllnwv-llnwv--accivomfffhilhgfffeddjf........re--aeigba--c
(PID.TID 0000.0001) //     15 fb--dpz....+ll.ccdfhmdddlc----av.........otsxoomv--oomv---abccddfihgijkhgfffeejfff......+fd---ckfb--dp
(PID.TID 0000.0001) //     14 fc--mcl....weeqbaafilkfend--eagy.........hhstofft--offt----aacdheefijkmjhhjijiffff.....zlfdaaadlfc--mc
(PID.TID 0000.0001) //     13 hcclbbg....nccobaaiddgkffqrqeaal.........eeutqfft--qfft------aaceeffhijlkjhhigfffq....+jgfodccflhcclbb
(PID.TID 0000.0001) //     12 hhgaaacw+iiicclemhdddfliigfdcaabfaaaz....ccsurqpc--rqpc--------abcifffikiiihhggff.....kbbbdfffglhhgaaa
(PID.TID 0000.0001) //     11 kgcaaacbbifccennhbbdefnihgfdccaaaa----..dcccnt.ncabt.ncab-------aabcdfilhggjiggff....l---abcefjlkgcaaa
(PID.TID 0000.0001) //     10 kfcaaccbdaacfrllfbbdegkmmljhfdddba----d.dcccfx.nyrex.nyrebaba----abcdgilhfeegijgi..+w--aa-abcfilkfcaac
(PID.TID 0000.0001) //      9 lffcdcccaaaoqsolfdeehikihhlllgfedcccccdmdcccf.vyfaa.vyfaaaaaaaa--abdehmjhfeeefglv.++w-----abcdfklffcdc
(PID.TID 0000.0001) //      8 liffjklcaafddffeeccvznkfffhhhlkjifgjkkfeeddfsyvcaaayvcaaaaaaccdcccdfgjligedbbceg+.++xffn--cfddefliffjk
(PID.TID 0000.0001) //      7 hmqnnbbkkf--bmbaabbgtykfddeffeeddccdfhlffeelfbaaaaabaaaaaacddeghgjgjlligeddaaabedfiiiiiisvkfkecchmqnnb
(PID.TID 0000.0001) //      6 cca-------------aabcelttdddedddddccccdfkkiiffbaaaabbaaaabcdgimmkmefecaaabbbaaabbdfiiiiispmmregifcca---
(PID.TID 0000.0001) //      5 --------a-------aaccehhhiddeddddddcccdfiikomodddeffdddefffmlmigedccaaaaaaaababbbdfiijsqgeccccbaa------
(PID.TID 0000.0001) //      4 --ahebaabbbbbeihffgijiiiijpywnnpokkomkiiijmmmolkommolkommmgffeeedccaaaaaabbcccefhmz..yjgeccccbaa--aheb
(PID.TID 0000.0001) //      3 gffhhrpjiiwyy............................yxotmjjjjgmjjjjgfeeeeeeddeffffheddeghjkyy..yqjgeddccdbbgffhhr
(PID.TID 0000.0001) //      2 .............................................zyxxmgzyxxmgfeeefefgimnpwwwy..+zyy.....yyyyoiiihhz+......
(PID.TID 0000.0001) //      1 ......................................................................................................
(PID.TID 0000.0001) //      0 +qlloqz+.++++zzz++++++........................................................................+++qlloq
(PID.TID 0000.0001) //     -1 uslloorzzzzzzzzz+...++...........................................................yxxz........+zvuslloo
(PID.TID 0000.0001) //     -2 ......................................................................................................
(PID.TID 0000.0001) // =======================================================
(PID.TID 0000.0001) // END OF FIELD                                          =
(PID.TID 0000.0001) // =======================================================
(PID.TID 0000.0001) 
(PID.TID 0000.0001) // =======================================================
(PID.TID 0000.0001) // Field Model Ro_surf (ini_masks_etc) at iteration          1
(PID.TID 0000.0001) // CMIN =          1.000000000000000E+32
(PID.TID 0000.0001) // CMAX =         -1.000000000000000E+32
(PID.TID 0000.0001) // CINT =          0.000000000000000E+00
(PID.TID 0000.0001) // SYMBOLS (CMIN->CMAX): -abcdefghijklmnopqrstuvwxyz+
(PID.TID 0000.0001) //                  0.0: .
(PID.TID 0000.0001) // RANGE I (Lo:Hi:Step):(    -2:    93:     1)
(PID.TID 0000.0001) // RANGE J (Lo:Hi:Step):(    43:    -2:    -1)
(PID.TID 0000.0001) // RANGE K (Lo:Hi:Step):(   1:   1:   1)
(PID.TID 0000.0001) // =======================================================
(PID.TID 0000.0001) // =======================================================
(PID.TID 0000.0001) // END OF FIELD                                          =
(PID.TID 0000.0001) // =======================================================
(PID.TID 0000.0001) 
(PID.TID 0000.0001) // =======================================================
(PID.TID 0000.0001) // Field hFacC at iteration          1
(PID.TID 0000.0001) // CMIN =          1.000000000000000E+00
(PID.TID 0000.0001) // CMAX =          1.000000000000000E+00
(PID.TID 0000.0001) // CINT =          0.000000000000000E+00
(PID.TID 0000.0001) // SYMBOLS (CMIN->CMAX): -abcdefghijklmnopqrstuvwxyz+
(PID.TID 0000.0001) //                  0.0: .
(PID.TID 0000.0001) // RANGE I (Lo:Hi:Step):(    -2:    93:     1)
(PID.TID 0000.0001) // RANGE J (Lo:Hi:Step):(    43:    -2:    -1)
(PID.TID 0000.0001) // RANGE K (Lo:Hi:Step):(   1:   1:   1)
(PID.TID 0000.0001) // =======================================================
(PID.TID 0000.0001) // =======================================================
(PID.TID 0000.0001) // END OF FIELD                                          =
(PID.TID 0000.0001) // =======================================================
(PID.TID 0000.0001) 
(PID.TID 0000.0001) // =======================================================
(PID.TID 0000.0001) // Field hFacW at iteration          1
(PID.TID 0000.0001) // CMIN =          1.000000000000000E+00
(PID.TID 0000.0001) // CMAX =          1.000000000000000E+00
(PID.TID 0000.0001) // CINT =          0.000000000000000E+00
(PID.TID 0000.0001) // SYMBOLS (CMIN->CMAX): -abcdefghijklmnopqrstuvwxyz+
(PID.TID 0000.0001) //                  0.0: .
(PID.TID 0000.0001) // RANGE I (Lo:Hi:Step):(    -2:    93:     1)
(PID.TID 0000.0001) // RANGE J (Lo:Hi:Step):(    43:    -2:    -1)
(PID.TID 0000.0001) // RANGE K (Lo:Hi:Step):(   1:   1:   1)
(PID.TID 0000.0001) // =======================================================
(PID.TID 0000.0001) // =======================================================
(PID.TID 0000.0001) // END OF FIELD                                          =
(PID.TID 0000.0001) // =======================================================
(PID.TID 0000.0001) 
(PID.TID 0000.0001) // =======================================================
(PID.TID 0000.0001) // Field hFacS at iteration          1
(PID.TID 0000.0001) // CMIN =          1.000000000000000E+00
(PID.TID 0000.0001) // CMAX =          1.000000000000000E+00
(PID.TID 0000.0001) // CINT =          0.000000000000000E+00
(PID.TID 0000.0001) // SYMBOLS (CMIN->CMAX): -abcdefghijklmnopqrstuvwxyz+
(PID.TID 0000.0001) //                  0.0: .
(PID.TID 0000.0001) // RANGE I (Lo:Hi:Step):(    -2:    93:     1)
(PID.TID 0000.0001) // RANGE J (Lo:Hi:Step):(    43:    -2:    -1)
(PID.TID 0000.0001) // RANGE K (Lo:Hi:Step):(   1:   1:   1)
(PID.TID 0000.0001) // =======================================================
(PID.TID 0000.0001) // =======================================================
(PID.TID 0000.0001) // END OF FIELD                                          =
(PID.TID 0000.0001) // =======================================================
(PID.TID 0000.0001) 
(PID.TID 0000.0001) GAD_INIT_FIXED: GAD_OlMinSize=  1  0  1
(PID.TID 0000.0001) 
(PID.TID 0000.0001) // ===================================
(PID.TID 0000.0001) // GAD parameters :
(PID.TID 0000.0001) // ===================================
(PID.TID 0000.0001) tempAdvScheme =   /* Temp. Horiz.Advection scheme selector */
(PID.TID 0000.0001)                       2
(PID.TID 0000.0001)     ;
(PID.TID 0000.0001) tempVertAdvScheme =   /* Temp. Vert. Advection scheme selector */
(PID.TID 0000.0001)                       2
(PID.TID 0000.0001)     ;
(PID.TID 0000.0001) tempMultiDimAdvec =   /* use Muti-Dim Advec method for Temp */
(PID.TID 0000.0001)                   F
(PID.TID 0000.0001)     ;
(PID.TID 0000.0001) tempSOM_Advection = /* use 2nd Order Moment Advection for Temp */
(PID.TID 0000.0001)                   F
(PID.TID 0000.0001)     ;
(PID.TID 0000.0001) AdamsBashforthGt = /* apply Adams-Bashforth extrapolation on Gt */
(PID.TID 0000.0001)                   T
(PID.TID 0000.0001)     ;
(PID.TID 0000.0001) AdamsBashforth_T = /* apply Adams-Bashforth extrapolation on Temp */
(PID.TID 0000.0001)                   F
(PID.TID 0000.0001)     ;
(PID.TID 0000.0001) saltAdvScheme =   /* Salt. Horiz.advection scheme selector */
(PID.TID 0000.0001)                       2
(PID.TID 0000.0001)     ;
(PID.TID 0000.0001) saltVertAdvScheme =   /* Salt. Vert. Advection scheme selector */
(PID.TID 0000.0001)                       2
(PID.TID 0000.0001)     ;
(PID.TID 0000.0001) saltMultiDimAdvec =   /* use Muti-Dim Advec method for Salt */
(PID.TID 0000.0001)                   F
(PID.TID 0000.0001)     ;
(PID.TID 0000.0001) saltSOM_Advection = /* use 2nd Order Moment Advection for Salt */
(PID.TID 0000.0001)                   F
(PID.TID 0000.0001)     ;
(PID.TID 0000.0001) AdamsBashforthGs = /* apply Adams-Bashforth extrapolation on Gs */
(PID.TID 0000.0001)                   T
(PID.TID 0000.0001)     ;
(PID.TID 0000.0001) AdamsBashforth_S = /* apply Adams-Bashforth extrapolation on Salt */
(PID.TID 0000.0001)                   F
(PID.TID 0000.0001)     ;
(PID.TID 0000.0001) // ===================================
(PID.TID 0000.0001) ------------------------------------------------------------
(PID.TID 0000.0001) DIAGNOSTICS_SET_LEVELS: done
(PID.TID 0000.0001)  Total Nb of available Diagnostics: ndiagt=   191
(PID.TID 0000.0001)  write list of available Diagnostics to file: available_diagnostics.log
(PID.TID 0000.0001) SETDIAG: Allocate  1 x  1 Levels for Diagnostic #    23 ETAN
(PID.TID 0000.0001) SETDIAG: Allocate  1 x  1 Levels for Diagnostic #    24 ETANSQ
(PID.TID 0000.0001) SETDIAG: Allocate  1 x  1 Levels for Diagnostic #    25 DETADT2
(PID.TID 0000.0001) SETDIAG: Allocate  1 x  1 Levels for Diagnostic #    69 PHIBOT
(PID.TID 0000.0001) SETDIAG: Allocate  1 x  1 Levels for Diagnostic #    70 PHIBOTSQ
(PID.TID 0000.0001) SETDIAG: Allocate 15 x  1 Levels for Diagnostic #    45 UVELMASS
(PID.TID 0000.0001) SETDIAG: Allocate 15 x  1 Levels for Diagnostic #    46 VVELMASS
(PID.TID 0000.0001) SETDIAG: Allocate 15 x  1 Levels for Diagnostic #    32 WVEL
(PID.TID 0000.0001) SETDIAG: Allocate 15 x  1 Levels for Diagnostic #    26 THETA
(PID.TID 0000.0001) SETDIAG: Allocate 15 x  1 Levels for Diagnostic #    27 SALT
(PID.TID 0000.0001) SETDIAG: Allocate 15 x  1 Levels for Diagnostic #    38 WVELSQ
(PID.TID 0000.0001) SETDIAG: Allocate 15 x  1 Levels for Diagnostic #    62 RHOAnoma
(PID.TID 0000.0001) SETDIAG: Allocate 15 x  1 Levels for Diagnostic #    72 DRHODR
(PID.TID 0000.0001) SETDIAG: Allocate 15 x  1 Levels for Diagnostic #    73 CONVADJ
(PID.TID 0000.0001) SETDIAG: Allocate 15 x  1 Levels for Diagnostic #   181 GM_Kwx
(PID.TID 0000.0001) SETDIAG: Allocate 15 x  1 Levels for Diagnostic #   182 GM_Kwy
(PID.TID 0000.0001) SETDIAG: Allocate 15 x  1 Levels for Diagnostic #   183 GM_Kwz
(PID.TID 0000.0001)   space allocated for all diagnostics:     185 levels
(PID.TID 0000.0001)   set mate pointer for diag #    45  UVELMASS , Parms: UUr     MR , mate:    46
(PID.TID 0000.0001)   set mate pointer for diag #    46  VVELMASS , Parms: VVr     MR , mate:    45
(PID.TID 0000.0001)   set mate pointer for diag #   181  GM_Kwx   , Parms: UM      LR , mate:   182
(PID.TID 0000.0001)   set mate pointer for diag #   182  GM_Kwy   , Parms: VM      LR , mate:   181
(PID.TID 0000.0001) DIAGNOSTICS_SET_POINTERS: Set levels for Outp.Stream: surfDiag
(PID.TID 0000.0001)  Levels:       1.
(PID.TID 0000.0001) DIAGNOSTICS_SET_POINTERS: Set levels for Outp.Stream: dynDiag
(PID.TID 0000.0001)  Levels:       1.   2.   3.   4.   5.   6.   7.   8.   9.  10.  11.  12.  13.  14.  15.
(PID.TID 0000.0001) DIAGNOSTICS_SET_POINTERS: Set levels for Outp.Stream: oceDiag
(PID.TID 0000.0001)  Levels:       1.   2.   3.   4.   5.   6.   7.   8.   9.  10.  11.  12.  13.  14.  15.
(PID.TID 0000.0001) DIAGNOSTICS_SET_POINTERS: done
(PID.TID 0000.0001) ------------------------------------------------------------
(PID.TID 0000.0001) DIAGSTATS_SET_REGIONS: define no region
(PID.TID 0000.0001) ------------------------------------------------------------
(PID.TID 0000.0001) SETDIAG: Allocate  1 Levels for Stats-Diag #    23 ETAN
(PID.TID 0000.0001) SETDIAG: Allocate  1 Levels for Stats-Diag #    24 ETANSQ
(PID.TID 0000.0001) SETDIAG: Allocate  1 Levels for Stats-Diag #    25 DETADT2
(PID.TID 0000.0001) SETDIAG: Allocate 15 Levels for Stats-Diag #    30 UVEL
(PID.TID 0000.0001) SETDIAG: Allocate 15 Levels for Stats-Diag #    31 VVEL
(PID.TID 0000.0001) SETDIAG: Allocate 15 Levels for Stats-Diag #    32 WVEL
(PID.TID 0000.0001) SETDIAG: Allocate 15 Levels for Stats-Diag #    26 THETA
(PID.TID 0000.0001) SETDIAG: Allocate 15 Levels for Stats-Diag #    27 SALT
(PID.TID 0000.0001) SETDIAG: Allocate 15 Levels for Stats-Diag #    38 WVELSQ
(PID.TID 0000.0001) SETDIAG: Allocate 15 Levels for Stats-Diag #    62 RHOAnoma
(PID.TID 0000.0001) SETDIAG: Allocate 15 Levels for Stats-Diag #    72 DRHODR
(PID.TID 0000.0001) SETDIAG: Allocate 15 Levels for Stats-Diag #    73 CONVADJ
(PID.TID 0000.0001)   space allocated for all stats-diags:     138 levels
(PID.TID 0000.0001) DIAGSTATS_SET_POINTERS: done
(PID.TID 0000.0001) ------------------------------------------------------------
(PID.TID 0000.0001) %MON fCori_max                    =   1.4265546244797E-04
(PID.TID 0000.0001) %MON fCori_min                    =  -1.4265546244797E-04
(PID.TID 0000.0001) %MON fCori_mean                   =   4.7801269115805E-19
(PID.TID 0000.0001) %MON fCori_sd                     =   9.6599226301546E-05
(PID.TID 0000.0001) %MON fCoriG_max                   =   1.4151032568025E-04
(PID.TID 0000.0001) %MON fCoriG_min                   =  -1.4362679550910E-04
(PID.TID 0000.0001) %MON fCoriG_mean                  =  -3.5906698877273E-06
(PID.TID 0000.0001) %MON fCoriG_sd                    =   9.6548915696246E-05
(PID.TID 0000.0001) %MON fCoriCos_max                 =   1.4575362704741E-04
(PID.TID 0000.0001) %MON fCoriCos_min                 =   3.0322354601388E-05
(PID.TID 0000.0001) %MON fCoriCos_mean                =   1.0288600773633E-04
(PID.TID 0000.0001) %MON fCoriCos_sd                  =   3.6784304327266E-05
(PID.TID 0000.0001) INI_CG2D: CG2D normalisation factor =  6.5682677425711703E-05
(PID.TID 0000.0001) 
(PID.TID 0000.0001) // =======================================================
(PID.TID 0000.0001) // Model configuration
(PID.TID 0000.0001) // =======================================================
(PID.TID 0000.0001) //
(PID.TID 0000.0001) // "Physical" paramters ( PARM01 in namelist )
(PID.TID 0000.0001) //
(PID.TID 0000.0001) buoyancyRelation = /* Type of relation to get Buoyancy */
(PID.TID 0000.0001)               'OCEANIC'
(PID.TID 0000.0001)     ;
(PID.TID 0000.0001) fluidIsAir   =  /* fluid major constituent is Air */
(PID.TID 0000.0001)                   F
(PID.TID 0000.0001)     ;
(PID.TID 0000.0001) fluidIsWater =  /* fluid major constituent is Water */
(PID.TID 0000.0001)                   T
(PID.TID 0000.0001)     ;
(PID.TID 0000.0001) usingPCoords =  /* use p (or p*) vertical coordinate */
(PID.TID 0000.0001)                   F
(PID.TID 0000.0001)     ;
(PID.TID 0000.0001) usingZCoords =  /* use z (or z*) vertical coordinate */
(PID.TID 0000.0001)                   T
(PID.TID 0000.0001)     ;
(PID.TID 0000.0001) tRef =   /* Reference temperature profile ( oC or K ) */
(PID.TID 0000.0001)    15 @  2.000000000000000E+01              /* K =  1: 15 */
(PID.TID 0000.0001)     ;
(PID.TID 0000.0001) sRef =   /* Reference salinity profile ( psu ) */
(PID.TID 0000.0001)    15 @  3.500000000000000E+01              /* K =  1: 15 */
(PID.TID 0000.0001)     ;
(PID.TID 0000.0001) viscAh  =   /* Lateral eddy viscosity ( m^2/s ) */
(PID.TID 0000.0001)                 5.000000000000000E+05
(PID.TID 0000.0001)     ;
(PID.TID 0000.0001) viscAhMax = /* Maximum lateral eddy viscosity ( m^2/s ) */
(PID.TID 0000.0001)                 1.000000000000000E+21
(PID.TID 0000.0001)     ;
(PID.TID 0000.0001) viscAhGrid = /* Grid dependent lateral eddy viscosity ( non-dim. ) */
(PID.TID 0000.0001)                 0.000000000000000E+00
(PID.TID 0000.0001)     ;
(PID.TID 0000.0001) useFullLeith = /* Use Full Form of Leith Viscosity on/off flag*/
(PID.TID 0000.0001)                   F
(PID.TID 0000.0001)     ;
(PID.TID 0000.0001) useStrainTensionVisc= /* Use StrainTension Form of Viscous Operator flag*/
(PID.TID 0000.0001)                   F
(PID.TID 0000.0001)     ;
(PID.TID 0000.0001) useAreaViscLength = /* Use area for visc length instead of geom. mean*/
(PID.TID 0000.0001)                   F
(PID.TID 0000.0001)     ;
(PID.TID 0000.0001) viscC2leith = /* Leith harmonic visc. factor (on grad(vort),non-dim.) */
(PID.TID 0000.0001)                 0.000000000000000E+00
(PID.TID 0000.0001)     ;
(PID.TID 0000.0001) viscC2leithD = /* Leith harmonic viscosity factor (on grad(div),non-dim.)*/
(PID.TID 0000.0001)                 0.000000000000000E+00
(PID.TID 0000.0001)     ;
(PID.TID 0000.0001) viscC2smag = /* Smagorinsky harmonic viscosity factor (non-dim.) */
(PID.TID 0000.0001)                 0.000000000000000E+00
(PID.TID 0000.0001)     ;
(PID.TID 0000.0001) viscA4  =   /* Lateral biharmonic viscosity ( m^4/s ) */
(PID.TID 0000.0001)                 3.000000000000000E+14
(PID.TID 0000.0001)     ;
(PID.TID 0000.0001) viscA4Max = /* Maximum biharmonic viscosity ( m^2/s ) */
(PID.TID 0000.0001)                 1.000000000000000E+21
(PID.TID 0000.0001)     ;
(PID.TID 0000.0001) viscA4Grid = /* Grid dependent biharmonic viscosity ( non-dim. ) */
(PID.TID 0000.0001)                 0.000000000000000E+00
(PID.TID 0000.0001)     ;
(PID.TID 0000.0001) viscC4leith = /* Leith biharm viscosity factor (on grad(vort), non-dim.)*/
(PID.TID 0000.0001)                 0.000000000000000E+00
(PID.TID 0000.0001)     ;
(PID.TID 0000.0001) viscC4leithD = /* Leith biharm viscosity factor (on grad(div), non-dim.) */
(PID.TID 0000.0001)                 0.000000000000000E+00
(PID.TID 0000.0001)     ;
(PID.TID 0000.0001) viscC4Smag = /* Smagorinsky biharm viscosity factor (non-dim) */
(PID.TID 0000.0001)                 0.000000000000000E+00
(PID.TID 0000.0001)     ;
(PID.TID 0000.0001) no_slip_sides =  /* Viscous BCs: No-slip sides */
(PID.TID 0000.0001)                   T
(PID.TID 0000.0001)     ;
(PID.TID 0000.0001) sideDragFactor = /* side-drag scaling factor (non-dim) */
(PID.TID 0000.0001)                 2.000000000000000E+00
(PID.TID 0000.0001)     ;
(PID.TID 0000.0001) viscArNr = /* vertical profile of vertical viscosity ( m^2/s )*/
(PID.TID 0000.0001)    15 @  1.000000000000000E-03              /* K =  1: 15 */
(PID.TID 0000.0001)     ;
(PID.TID 0000.0001) no_slip_bottom =  /* Viscous BCs: No-slip bottom */
(PID.TID 0000.0001)                   T
(PID.TID 0000.0001)     ;
(PID.TID 0000.0001) bottomDragLinear = /* linear bottom-drag coefficient ( m/s ) */
(PID.TID 0000.0001)                 0.000000000000000E+00
(PID.TID 0000.0001)     ;
(PID.TID 0000.0001) bottomDragQuadratic = /* quadratic bottom-drag coefficient (-) */
(PID.TID 0000.0001)                 0.000000000000000E+00
(PID.TID 0000.0001)     ;
(PID.TID 0000.0001) diffKhT =   /* Laplacian diffusion of heat laterally ( m^2/s ) */
(PID.TID 0000.0001)                 0.000000000000000E+00
(PID.TID 0000.0001)     ;
(PID.TID 0000.0001) diffK4T =   /* Biharmonic diffusion of heat laterally ( m^4/s ) */
(PID.TID 0000.0001)                 0.000000000000000E+00
(PID.TID 0000.0001)     ;
(PID.TID 0000.0001) diffKhS =   /* Laplacian diffusion of salt laterally ( m^2/s ) */
(PID.TID 0000.0001)                 0.000000000000000E+00
(PID.TID 0000.0001)     ;
(PID.TID 0000.0001) diffK4S =   /* Biharmonic diffusion of salt laterally ( m^4/s ) */
(PID.TID 0000.0001)                 0.000000000000000E+00
(PID.TID 0000.0001)     ;
(PID.TID 0000.0001) diffKrNrT = /* vertical profile of vertical diffusion of Temp ( m^2/s )*/
(PID.TID 0000.0001)    15 @  3.000000000000000E-05              /* K =  1: 15 */
(PID.TID 0000.0001)     ;
(PID.TID 0000.0001) diffKrNrS = /* vertical profile of vertical diffusion of Salt ( m^2/s )*/
(PID.TID 0000.0001)    15 @  3.000000000000000E-05              /* K =  1: 15 */
(PID.TID 0000.0001)     ;
(PID.TID 0000.0001) diffKrBL79surf = /* Surface diffusion for Bryan and Lewis 79 ( m^2/s ) */
(PID.TID 0000.0001)                 0.000000000000000E+00
(PID.TID 0000.0001)     ;
(PID.TID 0000.0001) diffKrBL79deep = /* Deep diffusion for Bryan and Lewis 1979 ( m^2/s ) */
(PID.TID 0000.0001)                 0.000000000000000E+00
(PID.TID 0000.0001)     ;
(PID.TID 0000.0001) diffKrBL79scl = /* Depth scale for Bryan and Lewis 1979 ( m ) */
(PID.TID 0000.0001)                 2.000000000000000E+02
(PID.TID 0000.0001)     ;
(PID.TID 0000.0001) diffKrBL79Ho = /* Turning depth for Bryan and Lewis 1979 ( m ) */
(PID.TID 0000.0001)                -2.000000000000000E+03
(PID.TID 0000.0001)     ;
(PID.TID 0000.0001) ivdc_kappa = /* Implicit Vertical Diffusivity for Convection ( m^2/s) */
(PID.TID 0000.0001)                 1.000000000000000E+01
(PID.TID 0000.0001)     ;
(PID.TID 0000.0001) hMixCriteria=  /* Criteria for mixed-layer diagnostic */
(PID.TID 0000.0001)                -8.000000000000000E-01
(PID.TID 0000.0001)     ;
(PID.TID 0000.0001) dRhoSmall =  /* Parameter for mixed-layer diagnostic */
(PID.TID 0000.0001)                 1.000000000000000E-06
(PID.TID 0000.0001)     ;
(PID.TID 0000.0001) hMixSmooth=  /* Smoothing parameter for mixed-layer diagnostic */
(PID.TID 0000.0001)                 0.000000000000000E+00
(PID.TID 0000.0001)     ;
(PID.TID 0000.0001) eosType =  /* Type of Equation of State */
(PID.TID 0000.0001)               'JMD95P'
(PID.TID 0000.0001)     ;
(PID.TID 0000.0001) tAlpha =   /* Linear EOS thermal expansion coefficient ( 1/oC ) */
(PID.TID 0000.0001)                 1.234567000000000E+05
(PID.TID 0000.0001)     ;
(PID.TID 0000.0001) sBeta =   /* Linear EOS haline contraction coefficient ( 1/psu ) */
(PID.TID 0000.0001)                 1.234567000000000E+05
(PID.TID 0000.0001)     ;
(PID.TID 0000.0001) rhonil =   /* Reference density ( kg/m^3 ) */
(PID.TID 0000.0001)                 9.998000000000000E+02
(PID.TID 0000.0001)     ;
(PID.TID 0000.0001) rhoConst =   /* Reference density ( kg/m^3 ) */
(PID.TID 0000.0001)                 1.035000000000000E+03
(PID.TID 0000.0001)     ;
(PID.TID 0000.0001) rhoFacC = /* normalized Reference density @ cell-Center (-) */
(PID.TID 0000.0001)    15 @  1.000000000000000E+00              /* K =  1: 15 */
(PID.TID 0000.0001)     ;
(PID.TID 0000.0001) rhoFacF = /* normalized Reference density @ W-Interface (-) */
(PID.TID 0000.0001)    16 @  1.000000000000000E+00              /* K =  1: 16 */
(PID.TID 0000.0001)     ;
(PID.TID 0000.0001) rhoConstFresh =   /* Reference density ( kg/m^3 ) */
(PID.TID 0000.0001)                 1.000000000000000E+03
(PID.TID 0000.0001)     ;
(PID.TID 0000.0001) gravity =   /* Gravitational acceleration ( m/s^2 ) */
(PID.TID 0000.0001)                 9.810000000000000E+00
(PID.TID 0000.0001)     ;
(PID.TID 0000.0001) gBaro =   /* Barotropic gravity ( m/s^2 ) */
(PID.TID 0000.0001)                 9.810000000000000E+00
(PID.TID 0000.0001)     ;
(PID.TID 0000.0001) rotationPeriod =   /* Rotation Period ( s ) */
(PID.TID 0000.0001)                 8.616400000000000E+04
(PID.TID 0000.0001)     ;
(PID.TID 0000.0001) omega =   /* Angular velocity ( rad/s ) */
(PID.TID 0000.0001)                 7.292123516990375E-05
(PID.TID 0000.0001)     ;
(PID.TID 0000.0001) f0 =   /* Reference coriolis parameter ( 1/s ) */
(PID.TID 0000.0001)                 1.000000000000000E-04
(PID.TID 0000.0001)     ;
(PID.TID 0000.0001) beta =   /* Beta ( 1/(m.s) ) */
(PID.TID 0000.0001)                 9.999999999999999E-12
(PID.TID 0000.0001)     ;
(PID.TID 0000.0001) fPrime =   /* Second coriolis parameter ( 1/s ) */
(PID.TID 0000.0001)                 0.000000000000000E+00
(PID.TID 0000.0001)     ;
(PID.TID 0000.0001) rigidLid =   /* Rigid lid on/off flag */
(PID.TID 0000.0001)                   F
(PID.TID 0000.0001)     ;
(PID.TID 0000.0001) implicitFreeSurface =   /* Implicit free surface on/off flag */
(PID.TID 0000.0001)                   T
(PID.TID 0000.0001)     ;
(PID.TID 0000.0001) freeSurfFac =   /* Implicit free surface factor */
(PID.TID 0000.0001)                 1.000000000000000E+00
(PID.TID 0000.0001)     ;
(PID.TID 0000.0001) implicSurfPress =  /* Surface Pressure implicit factor (0-1)*/
(PID.TID 0000.0001)                 1.000000000000000E+00
(PID.TID 0000.0001)     ;
(PID.TID 0000.0001) implicDiv2Dflow =  /* Barot. Flow Div. implicit factor (0-1)*/
(PID.TID 0000.0001)                 1.000000000000000E+00
(PID.TID 0000.0001)     ;
(PID.TID 0000.0001) exactConserv =  /* Exact Volume Conservation on/off flag*/
(PID.TID 0000.0001)                   T
(PID.TID 0000.0001)     ;
(PID.TID 0000.0001) linFSConserveTr = /* Tracer correction for Lin Free Surface on/off flag*/
(PID.TID 0000.0001)                   F
(PID.TID 0000.0001)     ;
(PID.TID 0000.0001) uniformLin_PhiSurf = /* use uniform Bo_surf on/off flag*/
(PID.TID 0000.0001)                   T
(PID.TID 0000.0001)     ;
(PID.TID 0000.0001) hFacMin =   /* minimum partial cell factor (hFac) */
(PID.TID 0000.0001)                 5.000000000000000E-02
(PID.TID 0000.0001)     ;
(PID.TID 0000.0001) hFacMinDr = /* minimum partial cell thickness ( m) */
(PID.TID 0000.0001)                 5.000000000000000E-02
(PID.TID 0000.0001)     ;
(PID.TID 0000.0001) nonlinFreeSurf = /* Non-linear Free Surf. options (-1,0,1,2,3)*/
(PID.TID 0000.0001)                       4
(PID.TID 0000.0001)      -1,0= Off ; 1,2,3= On, 2=+rescale gU,gV, 3=+update cg2d solv.
(PID.TID 0000.0001)     ;
(PID.TID 0000.0001) hFacInf =   /* lower threshold for hFac (nonlinFreeSurf only)*/
(PID.TID 0000.0001)                 2.000000000000000E-01
(PID.TID 0000.0001)     ;
(PID.TID 0000.0001) hFacSup =   /* upper threshold for hFac (nonlinFreeSurf only)*/
(PID.TID 0000.0001)                 2.000000000000000E+00
(PID.TID 0000.0001)     ;
(PID.TID 0000.0001) select_rStar = /* r* Vertical coord. options (=0 r coord.; >0 uses r*)*/
(PID.TID 0000.0001)                       2
(PID.TID 0000.0001)     ;
(PID.TID 0000.0001) selectAddFluid = /* option for mass source/sink of fluid (=0: off) */
(PID.TID 0000.0001)                       0
(PID.TID 0000.0001)     ;
(PID.TID 0000.0001) useRealFreshWaterFlux = /* Real Fresh Water Flux on/off flag*/
(PID.TID 0000.0001)                   T
(PID.TID 0000.0001)     ;
(PID.TID 0000.0001) temp_EvPrRn = /* Temp. of Evap/Prec/R (UNSET=use local T)(oC)*/
(PID.TID 0000.0001)                 1.234567000000000E+05
(PID.TID 0000.0001)     ;
(PID.TID 0000.0001) salt_EvPrRn = /* Salin. of Evap/Prec/R (UNSET=use local S)(psu)*/
(PID.TID 0000.0001)                 0.000000000000000E+00
(PID.TID 0000.0001)     ;
(PID.TID 0000.0001) temp_addMass = /* Temp. of addMass array (UNSET=use local T)(oC)*/
(PID.TID 0000.0001)                 1.234567000000000E+05
(PID.TID 0000.0001)     ;
(PID.TID 0000.0001) salt_addMass = /* Salin. of addMass array (UNSET=use local S)(psu)*/
(PID.TID 0000.0001)                 0.000000000000000E+00
(PID.TID 0000.0001)     ;
(PID.TID 0000.0001) use3Dsolver = /* use 3-D pressure solver on/off flag */
(PID.TID 0000.0001)                   F
(PID.TID 0000.0001)     ;
(PID.TID 0000.0001) nonHydrostatic =  /* Non-Hydrostatic on/off flag */
(PID.TID 0000.0001)                   F
(PID.TID 0000.0001)     ;
(PID.TID 0000.0001) nh_Am2 = /* Non-Hydrostatic terms scaling factor */
(PID.TID 0000.0001)                 1.000000000000000E+00
(PID.TID 0000.0001)     ;
(PID.TID 0000.0001) implicitNHPress = /* Non-Hyd Pressure implicit factor (0-1)*/
(PID.TID 0000.0001)                 1.000000000000000E+00
(PID.TID 0000.0001)     ;
(PID.TID 0000.0001) selectNHfreeSurf = /* Non-Hyd (free-)Surface option */
(PID.TID 0000.0001)                       0
(PID.TID 0000.0001)     ;
(PID.TID 0000.0001) quasiHydrostatic = /* Quasi-Hydrostatic on/off flag */
(PID.TID 0000.0001)                   T
(PID.TID 0000.0001)     ;
(PID.TID 0000.0001) momStepping =  /* Momentum equation on/off flag */
(PID.TID 0000.0001)                   T
(PID.TID 0000.0001)     ;
(PID.TID 0000.0001) vectorInvariantMomentum= /* Vector-Invariant Momentum on/off */
(PID.TID 0000.0001)                   F
(PID.TID 0000.0001)     ;
(PID.TID 0000.0001) momAdvection =  /* Momentum advection on/off flag */
(PID.TID 0000.0001)                   T
(PID.TID 0000.0001)     ;
(PID.TID 0000.0001) momViscosity =  /* Momentum viscosity on/off flag */
(PID.TID 0000.0001)                   T
(PID.TID 0000.0001)     ;
(PID.TID 0000.0001) momImplVertAdv= /* Momentum implicit vert. advection on/off*/
(PID.TID 0000.0001)                   F
(PID.TID 0000.0001)     ;
(PID.TID 0000.0001) implicitViscosity = /* Implicit viscosity on/off flag */
(PID.TID 0000.0001)                   F
(PID.TID 0000.0001)     ;
(PID.TID 0000.0001) metricTerms =  /* metric-Terms on/off flag */
(PID.TID 0000.0001)                   T
(PID.TID 0000.0001)     ;
(PID.TID 0000.0001) useNHMTerms = /* Non-Hydrostatic Metric-Terms on/off */
(PID.TID 0000.0001)                   T
(PID.TID 0000.0001)     ;
(PID.TID 0000.0001) selectCoriMap = /* Coriolis Map options (0,1,2,3)*/
(PID.TID 0000.0001)                       2
(PID.TID 0000.0001)     0= f-Plane ; 1= Beta-Plane ; 2= Spherical ; 3= read from file
(PID.TID 0000.0001)     ;
(PID.TID 0000.0001) use3dCoriolis = /* 3-D Coriolis on/off flag */
(PID.TID 0000.0001)                   T
(PID.TID 0000.0001)     ;
(PID.TID 0000.0001) useCoriolis =  /* Coriolis on/off flag */
(PID.TID 0000.0001)                   T
(PID.TID 0000.0001)     ;
(PID.TID 0000.0001) useCDscheme =  /* CD scheme on/off flag */
(PID.TID 0000.0001)                   T
(PID.TID 0000.0001)     ;
(PID.TID 0000.0001) useJamartWetPoints= /* Coriolis WetPoints method flag */
(PID.TID 0000.0001)                   F
(PID.TID 0000.0001)     ;
(PID.TID 0000.0001) useJamartMomAdv= /* V.I. Non-linear terms Jamart flag */
(PID.TID 0000.0001)                   F
(PID.TID 0000.0001)     ;
(PID.TID 0000.0001) useAbsVorticity= /* Work with f+zeta in Coriolis */
(PID.TID 0000.0001)                   F
(PID.TID 0000.0001)     ;
(PID.TID 0000.0001) selectVortScheme= /* Scheme selector for Vorticity-Term */
(PID.TID 0000.0001)               123456789
(PID.TID 0000.0001)    = 0 : enstrophy (Shallow-Water Eq.) conserving scheme by Sadourny, JAS 75
(PID.TID 0000.0001)    = 1 : same as 0 with modified hFac
(PID.TID 0000.0001)    = 2 : energy conserving scheme (used by Sadourny in JAS 75 paper)
(PID.TID 0000.0001)    = 3 : energy (general) and enstrophy (2D, nonDiv.) conserving scheme
(PID.TID 0000.0001)          from Sadourny (Burridge & Haseler, ECMWF Rep.4, 1977)
(PID.TID 0000.0001)     ;
(PID.TID 0000.0001) upwindVorticity= /* Upwind bias vorticity flag */
(PID.TID 0000.0001)                   F
(PID.TID 0000.0001)     ;
(PID.TID 0000.0001) highOrderVorticity= /* High order interp. of vort. flag */
(PID.TID 0000.0001)                   F
(PID.TID 0000.0001)     ;
(PID.TID 0000.0001) upwindShear= /* Upwind vertical Shear advection flag */
(PID.TID 0000.0001)                   F
(PID.TID 0000.0001)     ;
(PID.TID 0000.0001) selectKEscheme= /* Kinetic Energy scheme selector */
(PID.TID 0000.0001)                       0
(PID.TID 0000.0001)     ;
(PID.TID 0000.0001) momForcing =  /* Momentum forcing on/off flag */
(PID.TID 0000.0001)                   T
(PID.TID 0000.0001)     ;
(PID.TID 0000.0001) momPressureForcing =  /* Momentum pressure term on/off flag */
(PID.TID 0000.0001)                   T
(PID.TID 0000.0001)     ;
(PID.TID 0000.0001) implicitIntGravWave= /* Implicit Internal Gravity Wave flag */
(PID.TID 0000.0001)                   F
(PID.TID 0000.0001)     ;
(PID.TID 0000.0001) staggerTimeStep =   /* Stagger time stepping on/off flag */
(PID.TID 0000.0001)                   F
(PID.TID 0000.0001)     ;
(PID.TID 0000.0001) multiDimAdvection =   /* enable/disable Multi-Dim Advection */
(PID.TID 0000.0001)                   T
(PID.TID 0000.0001)     ;
(PID.TID 0000.0001) useMultiDimAdvec =   /* Multi-Dim Advection is/is-not used */
(PID.TID 0000.0001)                   F
(PID.TID 0000.0001)     ;
(PID.TID 0000.0001) implicitDiffusion = /* Implicit Diffusion on/off flag */
(PID.TID 0000.0001)                   T
(PID.TID 0000.0001)     ;
(PID.TID 0000.0001) tempStepping =  /* Temperature equation on/off flag */
(PID.TID 0000.0001)                   T
(PID.TID 0000.0001)     ;
(PID.TID 0000.0001) tempAdvection=  /* Temperature advection on/off flag */
(PID.TID 0000.0001)                   T
(PID.TID 0000.0001)     ;
(PID.TID 0000.0001) tempImplVertAdv = /* Temp. implicit vert. advection on/off */
(PID.TID 0000.0001)                   F
(PID.TID 0000.0001)     ;
(PID.TID 0000.0001) tempForcing  =  /* Temperature forcing on/off flag */
(PID.TID 0000.0001)                   T
(PID.TID 0000.0001)     ;
(PID.TID 0000.0001) tempIsActiveTr = /* Temp. is a dynamically Active Tracer */
(PID.TID 0000.0001)                   T
(PID.TID 0000.0001)     ;
(PID.TID 0000.0001) saltStepping =  /* Salinity equation on/off flag */
(PID.TID 0000.0001)                   T
(PID.TID 0000.0001)     ;
(PID.TID 0000.0001) saltAdvection=  /* Salinity advection on/off flag */
(PID.TID 0000.0001)                   T
(PID.TID 0000.0001)     ;
(PID.TID 0000.0001) saltImplVertAdv = /* Sali. implicit vert. advection on/off */
(PID.TID 0000.0001)                   F
(PID.TID 0000.0001)     ;
(PID.TID 0000.0001) saltForcing  =  /* Salinity forcing on/off flag */
(PID.TID 0000.0001)                   T
(PID.TID 0000.0001)     ;
(PID.TID 0000.0001) saltIsActiveTr = /* Salt  is a dynamically Active Tracer */
(PID.TID 0000.0001)                   T
(PID.TID 0000.0001)     ;
(PID.TID 0000.0001)  readBinaryPrec = /* Precision used for reading binary files */
(PID.TID 0000.0001)                      32
(PID.TID 0000.0001)     ;
(PID.TID 0000.0001) writeBinaryPrec = /* Precision used for writing binary files */
(PID.TID 0000.0001)                      32
(PID.TID 0000.0001)     ;
(PID.TID 0000.0001)  globalFiles = /* write "global" (=not per tile) files */
(PID.TID 0000.0001)                   F
(PID.TID 0000.0001)     ;
(PID.TID 0000.0001)  useSingleCpuIO = /* only master MPI process does I/O */
(PID.TID 0000.0001)                   F
(PID.TID 0000.0001)     ;
(PID.TID 0000.0001)  debugMode  =  /* Debug Mode on/off flag */
(PID.TID 0000.0001)                   F
(PID.TID 0000.0001)     ;
(PID.TID 0000.0001)    debLevA  =  /* 1rst level of debugging */
(PID.TID 0000.0001)                       1
(PID.TID 0000.0001)     ;
(PID.TID 0000.0001)    debLevB  =  /* 2nd  level of debugging */
(PID.TID 0000.0001)                       2
(PID.TID 0000.0001)     ;
(PID.TID 0000.0001)  debugLevel =  /* select debugging level */
(PID.TID 0000.0001)                       1
(PID.TID 0000.0001)     ;
(PID.TID 0000.0001) //
(PID.TID 0000.0001) // Elliptic solver(s) paramters ( PARM02 in namelist )
(PID.TID 0000.0001) //
(PID.TID 0000.0001) cg2dMaxIters =   /* Upper limit on 2d con. grad iterations  */
(PID.TID 0000.0001)                     500
(PID.TID 0000.0001)     ;
(PID.TID 0000.0001) cg2dChkResFreq =   /* 2d con. grad convergence test frequency */
(PID.TID 0000.0001)                       1
(PID.TID 0000.0001)     ;
(PID.TID 0000.0001) cg2dTargetResidual =   /* 2d con. grad target residual  */
(PID.TID 0000.0001)                 1.000000000000000E-13
(PID.TID 0000.0001)     ;
(PID.TID 0000.0001) cg2dTargetResWunit =   /* CG2d target residual [W units] */
(PID.TID 0000.0001)                -1.000000000000000E+00
(PID.TID 0000.0001)     ;
(PID.TID 0000.0001) cg2dPreCondFreq =   /* Freq. for updating cg2d preconditioner */
(PID.TID 0000.0001)                       1
(PID.TID 0000.0001)     ;
(PID.TID 0000.0001) useSRCGSolver =  /* use single reduction CG solver(s) */
(PID.TID 0000.0001)                   F
(PID.TID 0000.0001)     ;
(PID.TID 0000.0001) //
(PID.TID 0000.0001) // Time stepping paramters ( PARM03 in namelist )
(PID.TID 0000.0001) //
(PID.TID 0000.0001) deltaTmom =   /* Momentum equation timestep ( s ) */
(PID.TID 0000.0001)                 1.800000000000000E+03
(PID.TID 0000.0001)     ;
(PID.TID 0000.0001) deltaTfreesurf = /* FreeSurface equation timestep ( s ) */
(PID.TID 0000.0001)                 8.640000000000000E+04
(PID.TID 0000.0001)     ;
(PID.TID 0000.0001) dTtracerLev =  /* Tracer equation timestep ( s ) */
(PID.TID 0000.0001)    15 @  8.640000000000000E+04              /* K =  1: 15 */
(PID.TID 0000.0001)     ;
(PID.TID 0000.0001) deltaTClock  =   /* Model clock timestep ( s ) */
(PID.TID 0000.0001)                 8.640000000000000E+04
(PID.TID 0000.0001)     ;
(PID.TID 0000.0001) cAdjFreq =   /* Convective adjustment interval ( s ) */
(PID.TID 0000.0001)                 0.000000000000000E+00
(PID.TID 0000.0001)     ;
(PID.TID 0000.0001) momForcingOutAB = /* =1: take Momentum Forcing out of Adams-Bash. stepping */
(PID.TID 0000.0001)                       0
(PID.TID 0000.0001)     ;
(PID.TID 0000.0001) tracForcingOutAB = /* =1: take T,S,pTr Forcing out of Adams-Bash. stepping */
(PID.TID 0000.0001)                       0
(PID.TID 0000.0001)     ;
(PID.TID 0000.0001) momDissip_In_AB = /* put Dissipation Tendency in Adams-Bash. stepping */
(PID.TID 0000.0001)                   T
(PID.TID 0000.0001)     ;
(PID.TID 0000.0001) doAB_onGtGs = /* apply AB on Tendencies (rather than on T,S)*/
(PID.TID 0000.0001)                   T
(PID.TID 0000.0001)     ;
(PID.TID 0000.0001) abEps =   /* Adams-Bashforth-2 stabilizing weight */
(PID.TID 0000.0001)                 1.000000000000000E-01
(PID.TID 0000.0001)     ;
(PID.TID 0000.0001) tauCD =   /* CD coupling time-scale ( s ) */
(PID.TID 0000.0001)                 3.214280000000000E+05
(PID.TID 0000.0001)     ;
(PID.TID 0000.0001) rCD =   /* Normalised CD coupling parameter */
(PID.TID 0000.0001)                 9.943999900444267E-01
(PID.TID 0000.0001)     ;
(PID.TID 0000.0001) epsAB_CD = /* AB-2 stabilizing weight for CD-scheme*/
(PID.TID 0000.0001)                 1.000000000000000E-01
(PID.TID 0000.0001)     ;
(PID.TID 0000.0001) pickupStrictlyMatch= /* stop if pickup do not strictly match */
(PID.TID 0000.0001)                   T
(PID.TID 0000.0001)     ;
(PID.TID 0000.0001) nIter0   =   /* Run starting timestep number */
(PID.TID 0000.0001)                   36000
(PID.TID 0000.0001)     ;
(PID.TID 0000.0001) nTimeSteps = /* Number of timesteps */
(PID.TID 0000.0001)                      10
(PID.TID 0000.0001)     ;
(PID.TID 0000.0001) nEndIter =   /* Run ending timestep number */
(PID.TID 0000.0001)                   36010
(PID.TID 0000.0001)     ;
(PID.TID 0000.0001) baseTime =   /* Model base time ( s ) */
(PID.TID 0000.0001)                 0.000000000000000E+00
(PID.TID 0000.0001)     ;
(PID.TID 0000.0001) startTime =  /* Run start time ( s ) */
(PID.TID 0000.0001)                 3.110400000000000E+09
(PID.TID 0000.0001)     ;
(PID.TID 0000.0001) endTime  =   /* Integration ending time ( s ) */
(PID.TID 0000.0001)                 3.111264000000000E+09
(PID.TID 0000.0001)     ;
(PID.TID 0000.0001) pChkPtFreq = /* Permanent restart/pickup file interval ( s ) */
(PID.TID 0000.0001)                 3.110400000000000E+08
(PID.TID 0000.0001)     ;
(PID.TID 0000.0001) chkPtFreq  = /* Rolling restart/pickup file interval ( s ) */
(PID.TID 0000.0001)                 0.000000000000000E+00
(PID.TID 0000.0001)     ;
(PID.TID 0000.0001) pickup_write_mdsio =   /* Model IO flag. */
(PID.TID 0000.0001)                   T
(PID.TID 0000.0001)     ;
(PID.TID 0000.0001) pickup_read_mdsio =   /* Model IO flag. */
(PID.TID 0000.0001)                   T
(PID.TID 0000.0001)     ;
(PID.TID 0000.0001) pickup_write_mnc =   /* Model IO flag. */
(PID.TID 0000.0001)                   F
(PID.TID 0000.0001)     ;
(PID.TID 0000.0001) pickup_read_mnc =   /* Model IO flag. */
(PID.TID 0000.0001)                   F
(PID.TID 0000.0001)     ;
(PID.TID 0000.0001) pickup_write_immed =   /* Model IO flag. */
(PID.TID 0000.0001)                   F
(PID.TID 0000.0001)     ;
(PID.TID 0000.0001) writePickupAtEnd =   /* Model IO flag. */
(PID.TID 0000.0001)                   T
(PID.TID 0000.0001)     ;
(PID.TID 0000.0001) dumpFreq =   /* Model state write out interval ( s ). */
(PID.TID 0000.0001)                 8.640000000000000E+05
(PID.TID 0000.0001)     ;
(PID.TID 0000.0001) dumpInitAndLast= /* write out Initial & Last iter. model state */
(PID.TID 0000.0001)                   T
(PID.TID 0000.0001)     ;
(PID.TID 0000.0001) snapshot_mdsio =   /* Model IO flag. */
(PID.TID 0000.0001)                   F
(PID.TID 0000.0001)     ;
(PID.TID 0000.0001) snapshot_mnc =   /* Model IO flag. */
(PID.TID 0000.0001)                   T
(PID.TID 0000.0001)     ;
(PID.TID 0000.0001) monitorFreq =   /* Monitor output interval ( s ). */
(PID.TID 0000.0001)                 1.000000000000000E+00
(PID.TID 0000.0001)     ;
(PID.TID 0000.0001) monitorSelect = /* select group of variables to monitor */
(PID.TID 0000.0001)                       3
(PID.TID 0000.0001)     ;
(PID.TID 0000.0001) monitor_stdio =   /* Model IO flag. */
(PID.TID 0000.0001)                   T
(PID.TID 0000.0001)     ;
(PID.TID 0000.0001) monitor_mnc =   /* Model IO flag. */
(PID.TID 0000.0001)                   F
(PID.TID 0000.0001)     ;
(PID.TID 0000.0001) externForcingPeriod =   /* forcing period (s) */
(PID.TID 0000.0001)                 2.592000000000000E+06
(PID.TID 0000.0001)     ;
(PID.TID 0000.0001) externForcingCycle =   /* period of the cyle (s). */
(PID.TID 0000.0001)                 3.110400000000000E+07
(PID.TID 0000.0001)     ;
(PID.TID 0000.0001) tauThetaClimRelax =   /* relaxation time scale (s) */
(PID.TID 0000.0001)                 5.184000000000000E+06
(PID.TID 0000.0001)     ;
(PID.TID 0000.0001) tauSaltClimRelax =   /* relaxation time scale (s) */
(PID.TID 0000.0001)                 1.555200000000000E+07
(PID.TID 0000.0001)     ;
(PID.TID 0000.0001) latBandClimRelax =   /* max. Lat. where relaxation */
(PID.TID 0000.0001)                 1.800000000000000E+02
(PID.TID 0000.0001)     ;
(PID.TID 0000.0001) //
(PID.TID 0000.0001) // Gridding paramters ( PARM04 in namelist )
(PID.TID 0000.0001) //
(PID.TID 0000.0001) usingCartesianGrid = /* Cartesian coordinates flag ( True/False ) */
(PID.TID 0000.0001)                   F
(PID.TID 0000.0001)     ;
(PID.TID 0000.0001) usingCylindricalGrid = /* Cylindrical coordinates flag ( True/False ) */
(PID.TID 0000.0001)                   F
(PID.TID 0000.0001)     ;
(PID.TID 0000.0001) usingSphericalPolarGrid = /* Spherical coordinates flag ( True/False ) */
(PID.TID 0000.0001)                   T
(PID.TID 0000.0001)     ;
(PID.TID 0000.0001) usingCurvilinearGrid = /* Curvilinear coordinates flag ( True/False ) */
(PID.TID 0000.0001)                   F
(PID.TID 0000.0001)     ;
(PID.TID 0000.0001) selectSigmaCoord = /* Hybrid-Sigma Vert. Coordinate option */
(PID.TID 0000.0001)                       0
(PID.TID 0000.0001)     ;
(PID.TID 0000.0001) Ro_SeaLevel = /* r(1) ( units of r ==  m ) */
(PID.TID 0000.0001)                 0.000000000000000E+00
(PID.TID 0000.0001)     ;
(PID.TID 0000.0001) rSigmaBnd = /* r/sigma transition ( units of r ==  m ) */
(PID.TID 0000.0001)                 1.234567000000000E+05
(PID.TID 0000.0001)     ;
(PID.TID 0000.0001) rkSign =   /* index orientation relative to vertical coordinate */
(PID.TID 0000.0001)                -1.000000000000000E+00
(PID.TID 0000.0001)     ;
(PID.TID 0000.0001) gravitySign = /* gravity orientation relative to vertical coordinate */
(PID.TID 0000.0001)                -1.000000000000000E+00
(PID.TID 0000.0001)     ;
(PID.TID 0000.0001) mass2rUnit = /* convert mass per unit area [kg/m2] to r-units [m] */
(PID.TID 0000.0001)                 9.661835748792270E-04
(PID.TID 0000.0001)     ;
(PID.TID 0000.0001) rUnit2mass = /* convert r-units [m] to mass per unit area [kg/m2] */
(PID.TID 0000.0001)                 1.035000000000000E+03
(PID.TID 0000.0001)     ;
(PID.TID 0000.0001) drC =   /* C spacing ( units of r ) */
(PID.TID 0000.0001)                 2.500000000000000E+01,      /* K =  1 */
(PID.TID 0000.0001)                 6.000000000000000E+01,      /* K =  2 */
(PID.TID 0000.0001)                 8.500000000000000E+01,      /* K =  3 */
(PID.TID 0000.0001)                 1.200000000000000E+02,      /* K =  4 */
(PID.TID 0000.0001)                 1.650000000000000E+02,      /* K =  5 */
(PID.TID 0000.0001)                 2.150000000000000E+02,      /* K =  6 */
(PID.TID 0000.0001)                 2.650000000000000E+02,      /* K =  7 */
(PID.TID 0000.0001)                 3.150000000000000E+02,      /* K =  8 */
(PID.TID 0000.0001)                 3.650000000000000E+02,      /* K =  9 */
(PID.TID 0000.0001)                 4.150000000000000E+02,      /* K = 10 */
(PID.TID 0000.0001)                 4.650000000000000E+02,      /* K = 11 */
(PID.TID 0000.0001)                 5.150000000000000E+02,      /* K = 12 */
(PID.TID 0000.0001)                 5.650000000000000E+02,      /* K = 13 */
(PID.TID 0000.0001)                 6.150000000000000E+02,      /* K = 14 */
(PID.TID 0000.0001)                 6.650000000000000E+02       /* K = 15 */
(PID.TID 0000.0001)     ;
(PID.TID 0000.0001) drF =   /* W spacing ( units of r ) */
(PID.TID 0000.0001)                 5.000000000000000E+01,      /* K =  1 */
(PID.TID 0000.0001)                 7.000000000000000E+01,      /* K =  2 */
(PID.TID 0000.0001)                 1.000000000000000E+02,      /* K =  3 */
(PID.TID 0000.0001)                 1.400000000000000E+02,      /* K =  4 */
(PID.TID 0000.0001)                 1.900000000000000E+02,      /* K =  5 */
(PID.TID 0000.0001)                 2.400000000000000E+02,      /* K =  6 */
(PID.TID 0000.0001)                 2.900000000000000E+02,      /* K =  7 */
(PID.TID 0000.0001)                 3.400000000000000E+02,      /* K =  8 */
(PID.TID 0000.0001)                 3.900000000000000E+02,      /* K =  9 */
(PID.TID 0000.0001)                 4.400000000000000E+02,      /* K = 10 */
(PID.TID 0000.0001)                 4.900000000000000E+02,      /* K = 11 */
(PID.TID 0000.0001)                 5.400000000000000E+02,      /* K = 12 */
(PID.TID 0000.0001)                 5.900000000000000E+02,      /* K = 13 */
(PID.TID 0000.0001)                 6.400000000000000E+02,      /* K = 14 */
(PID.TID 0000.0001)                 6.900000000000000E+02       /* K = 15 */
(PID.TID 0000.0001)     ;
(PID.TID 0000.0001) delX = /* U spacing ( m - cartesian, degrees - spherical ) */
(PID.TID 0000.0001)    90 @  4.000000000000000E+00              /* I =  1: 90 */
(PID.TID 0000.0001)     ;
(PID.TID 0000.0001) delY = /* V spacing ( m - cartesian, degrees - spherical ) */
(PID.TID 0000.0001)    40 @  4.000000000000000E+00              /* J =  1: 40 */
(PID.TID 0000.0001)     ;
(PID.TID 0000.0001) xgOrigin = /* X-axis origin of West  edge (cartesian: m, lat-lon: deg.) */
(PID.TID 0000.0001)                 0.000000000000000E+00
(PID.TID 0000.0001)     ;
(PID.TID 0000.0001) ygOrigin = /* Y-axis origin of South edge (cartesian: m, lat-lon: deg.) */
(PID.TID 0000.0001)                -8.000000000000000E+01
(PID.TID 0000.0001)     ;
(PID.TID 0000.0001) rSphere =  /* Radius ( ignored - cartesian, m - spherical ) */
(PID.TID 0000.0001)                 6.370000000000000E+06
(PID.TID 0000.0001)     ;
(PID.TID 0000.0001) deepAtmosphere = /* Deep/Shallow Atmosphere flag (True/False) */
(PID.TID 0000.0001)                   F
(PID.TID 0000.0001)     ;
(PID.TID 0000.0001) xC =  /* xC(:,1,:,1) : P-point X coord ( deg. or m if cartesian) */
(PID.TID 0000.0001)                 2.000000000000000E+00,      /* I =  1 */
(PID.TID 0000.0001)                 6.000000000000000E+00,      /* I =  2 */
(PID.TID 0000.0001)                 1.000000000000000E+01,      /* I =  3 */
(PID.TID 0000.0001)      . . .
(PID.TID 0000.0001)                 8.200000000000000E+01,      /* I = 21 */
(PID.TID 0000.0001)                 8.600000000000000E+01,      /* I = 22 */
(PID.TID 0000.0001)                 9.000000000000000E+01,      /* I = 23 */
(PID.TID 0000.0001)                 9.400000000000000E+01,      /* I = 24 */
(PID.TID 0000.0001)                 9.800000000000000E+01,      /* I = 25 */
(PID.TID 0000.0001)                 1.020000000000000E+02,      /* I = 26 */
(PID.TID 0000.0001)      . . .
(PID.TID 0000.0001)                 1.700000000000000E+02,      /* I = 43 */
(PID.TID 0000.0001)                 1.740000000000000E+02,      /* I = 44 */
(PID.TID 0000.0001)                 1.780000000000000E+02,      /* I = 45 */
(PID.TID 0000.0001)                 1.820000000000000E+02,      /* I = 46 */
(PID.TID 0000.0001)                 1.860000000000000E+02,      /* I = 47 */
(PID.TID 0000.0001)                 1.900000000000000E+02,      /* I = 48 */
(PID.TID 0000.0001)      . . .
(PID.TID 0000.0001)                 2.580000000000000E+02,      /* I = 65 */
(PID.TID 0000.0001)                 2.620000000000000E+02,      /* I = 66 */
(PID.TID 0000.0001)                 2.660000000000000E+02,      /* I = 67 */
(PID.TID 0000.0001)                 2.700000000000000E+02,      /* I = 68 */
(PID.TID 0000.0001)                 2.740000000000000E+02,      /* I = 69 */
(PID.TID 0000.0001)                 2.780000000000000E+02,      /* I = 70 */
(PID.TID 0000.0001)      . . .
(PID.TID 0000.0001)                 3.500000000000000E+02,      /* I = 88 */
(PID.TID 0000.0001)                 3.540000000000000E+02,      /* I = 89 */
(PID.TID 0000.0001)                 3.580000000000000E+02       /* I = 90 */
(PID.TID 0000.0001)     ;
(PID.TID 0000.0001) yC =  /* yC(1,:,1,:) : P-point Y coord ( deg. or m if cartesian) */
(PID.TID 0000.0001)                -7.800000000000000E+01,      /* J =  1 */
(PID.TID 0000.0001)                -7.400000000000000E+01,      /* J =  2 */
(PID.TID 0000.0001)                -7.000000000000000E+01,      /* J =  3 */
(PID.TID 0000.0001)                -6.600000000000000E+01,      /* J =  4 */
(PID.TID 0000.0001)                -6.200000000000000E+01,      /* J =  5 */
(PID.TID 0000.0001)                -5.800000000000000E+01,      /* J =  6 */
(PID.TID 0000.0001)                -5.400000000000000E+01,      /* J =  7 */
(PID.TID 0000.0001)                -5.000000000000000E+01,      /* J =  8 */
(PID.TID 0000.0001)                -4.600000000000000E+01,      /* J =  9 */
(PID.TID 0000.0001)                -4.200000000000000E+01,      /* J = 10 */
(PID.TID 0000.0001)                -3.800000000000000E+01,      /* J = 11 */
(PID.TID 0000.0001)                -3.400000000000000E+01,      /* J = 12 */
(PID.TID 0000.0001)                -3.000000000000000E+01,      /* J = 13 */
(PID.TID 0000.0001)                -2.600000000000000E+01,      /* J = 14 */
(PID.TID 0000.0001)                -2.200000000000000E+01,      /* J = 15 */
(PID.TID 0000.0001)                -1.800000000000000E+01,      /* J = 16 */
(PID.TID 0000.0001)                -1.400000000000000E+01,      /* J = 17 */
(PID.TID 0000.0001)                -1.000000000000000E+01,      /* J = 18 */
(PID.TID 0000.0001)                -6.000000000000000E+00,      /* J = 19 */
(PID.TID 0000.0001)                -2.000000000000000E+00,      /* J = 20 */
(PID.TID 0000.0001)                 2.000000000000000E+00,      /* J = 21 */
(PID.TID 0000.0001)                 6.000000000000000E+00,      /* J = 22 */
(PID.TID 0000.0001)                 1.000000000000000E+01,      /* J = 23 */
(PID.TID 0000.0001)                 1.400000000000000E+01,      /* J = 24 */
(PID.TID 0000.0001)                 1.800000000000000E+01,      /* J = 25 */
(PID.TID 0000.0001)                 2.200000000000000E+01,      /* J = 26 */
(PID.TID 0000.0001)                 2.600000000000000E+01,      /* J = 27 */
(PID.TID 0000.0001)                 3.000000000000000E+01,      /* J = 28 */
(PID.TID 0000.0001)                 3.400000000000000E+01,      /* J = 29 */
(PID.TID 0000.0001)                 3.800000000000000E+01,      /* J = 30 */
(PID.TID 0000.0001)                 4.200000000000000E+01,      /* J = 31 */
(PID.TID 0000.0001)                 4.600000000000000E+01,      /* J = 32 */
(PID.TID 0000.0001)                 5.000000000000000E+01,      /* J = 33 */
(PID.TID 0000.0001)                 5.400000000000000E+01,      /* J = 34 */
(PID.TID 0000.0001)                 5.800000000000000E+01,      /* J = 35 */
(PID.TID 0000.0001)                 6.200000000000000E+01,      /* J = 36 */
(PID.TID 0000.0001)                 6.600000000000000E+01,      /* J = 37 */
(PID.TID 0000.0001)                 7.000000000000000E+01,      /* J = 38 */
(PID.TID 0000.0001)                 7.400000000000000E+01,      /* J = 39 */
(PID.TID 0000.0001)                 7.800000000000000E+01       /* J = 40 */
(PID.TID 0000.0001)     ;
(PID.TID 0000.0001) rcoord = /* P-point R coordinate (  units of r ) */
(PID.TID 0000.0001)                -2.500000000000000E+01,      /* K =  1 */
(PID.TID 0000.0001)                -8.500000000000000E+01,      /* K =  2 */
(PID.TID 0000.0001)                -1.700000000000000E+02,      /* K =  3 */
(PID.TID 0000.0001)                -2.900000000000000E+02,      /* K =  4 */
(PID.TID 0000.0001)                -4.550000000000000E+02,      /* K =  5 */
(PID.TID 0000.0001)                -6.700000000000000E+02,      /* K =  6 */
(PID.TID 0000.0001)                -9.350000000000000E+02,      /* K =  7 */
(PID.TID 0000.0001)                -1.250000000000000E+03,      /* K =  8 */
(PID.TID 0000.0001)                -1.615000000000000E+03,      /* K =  9 */
(PID.TID 0000.0001)                -2.030000000000000E+03,      /* K = 10 */
(PID.TID 0000.0001)                -2.495000000000000E+03,      /* K = 11 */
(PID.TID 0000.0001)                -3.010000000000000E+03,      /* K = 12 */
(PID.TID 0000.0001)                -3.575000000000000E+03,      /* K = 13 */
(PID.TID 0000.0001)                -4.190000000000000E+03,      /* K = 14 */
(PID.TID 0000.0001)                -4.855000000000000E+03       /* K = 15 */
(PID.TID 0000.0001)     ;
(PID.TID 0000.0001) rF =   /* W-Interf. R coordinate (  units of r ) */
(PID.TID 0000.0001)                 0.000000000000000E+00,      /* K =  1 */
(PID.TID 0000.0001)                -5.000000000000000E+01,      /* K =  2 */
(PID.TID 0000.0001)                -1.200000000000000E+02,      /* K =  3 */
(PID.TID 0000.0001)                -2.200000000000000E+02,      /* K =  4 */
(PID.TID 0000.0001)                -3.600000000000000E+02,      /* K =  5 */
(PID.TID 0000.0001)                -5.500000000000000E+02,      /* K =  6 */
(PID.TID 0000.0001)                -7.900000000000000E+02,      /* K =  7 */
(PID.TID 0000.0001)                -1.080000000000000E+03,      /* K =  8 */
(PID.TID 0000.0001)                -1.420000000000000E+03,      /* K =  9 */
(PID.TID 0000.0001)                -1.810000000000000E+03,      /* K = 10 */
(PID.TID 0000.0001)                -2.250000000000000E+03,      /* K = 11 */
(PID.TID 0000.0001)                -2.740000000000000E+03,      /* K = 12 */
(PID.TID 0000.0001)                -3.280000000000000E+03,      /* K = 13 */
(PID.TID 0000.0001)                -3.870000000000000E+03,      /* K = 14 */
(PID.TID 0000.0001)                -4.510000000000000E+03,      /* K = 15 */
(PID.TID 0000.0001)                -5.200000000000000E+03       /* K = 16 */
(PID.TID 0000.0001)     ;
(PID.TID 0000.0001) deepFacC = /* deep-model grid factor @ cell-Center (-) */
(PID.TID 0000.0001)    15 @  1.000000000000000E+00              /* K =  1: 15 */
(PID.TID 0000.0001)     ;
(PID.TID 0000.0001) deepFacF = /* deep-model grid factor @ W-Interface (-) */
(PID.TID 0000.0001)    16 @  1.000000000000000E+00              /* K =  1: 16 */
(PID.TID 0000.0001)     ;
(PID.TID 0000.0001) rVel2wUnit = /* convert units: rVel -> wSpeed (=1 if z-coord)*/
(PID.TID 0000.0001)    16 @  1.000000000000000E+00              /* K =  1: 16 */
(PID.TID 0000.0001)     ;
(PID.TID 0000.0001) wUnit2rVel = /* convert units: wSpeed -> rVel (=1 if z-coord)*/
(PID.TID 0000.0001)    16 @  1.000000000000000E+00              /* K =  1: 16 */
(PID.TID 0000.0001)     ;
(PID.TID 0000.0001) dBdrRef = /* Vertical grad. of reference buoyancy [(m/s/r)^2] */
(PID.TID 0000.0001)    15 @  0.000000000000000E+00              /* K =  1: 15 */
(PID.TID 0000.0001)     ;
(PID.TID 0000.0001) rotateGrid = /* use rotated grid ( True/False ) */
(PID.TID 0000.0001)                   F
(PID.TID 0000.0001)     ;
(PID.TID 0000.0001) phiEuler = /* Euler angle, rotation about original z-coordinate [rad] */
(PID.TID 0000.0001)                 0.000000000000000E+00
(PID.TID 0000.0001)     ;
(PID.TID 0000.0001) thetaEuler = /* Euler angle, rotation about new x-coordinate [rad] */
(PID.TID 0000.0001)                 0.000000000000000E+00
(PID.TID 0000.0001)     ;
(PID.TID 0000.0001) psiEuler = /* Euler angle, rotation about new z-coordinate [rad] */
(PID.TID 0000.0001)                 0.000000000000000E+00
(PID.TID 0000.0001)     ;
(PID.TID 0000.0001) dxF =  /* dxF(:,1,:,1) ( units: m ) */
(PID.TID 0000.0001)    90 @  9.246038586187513E+04              /* I =  1: 90 */
(PID.TID 0000.0001)     ;
(PID.TID 0000.0001) dxF =  /* dxF(1,:,1,:) ( units: m ) */
(PID.TID 0000.0001)                 9.246038586187513E+04,      /* J =  1 */
(PID.TID 0000.0001)                 1.225786591246834E+05,      /* J =  2 */
(PID.TID 0000.0001)                 1.520997414818001E+05,      /* J =  3 */
(PID.TID 0000.0001)                 1.808798091874300E+05,      /* J =  4 */
(PID.TID 0000.0001)                 2.087786486446736E+05,      /* J =  5 */
(PID.TID 0000.0001)                 2.356603395120765E+05,      /* J =  6 */
(PID.TID 0000.0001)                 2.613939168938713E+05,      /* J =  7 */
(PID.TID 0000.0001)                 2.858540093877838E+05,      /* J =  8 */
(PID.TID 0000.0001)                 3.089214498819034E+05,      /* J =  9 */
(PID.TID 0000.0001)                 3.304838561248741E+05,      /* J = 10 */
(PID.TID 0000.0001)                 3.504361782409254E+05,      /* J = 11 */
(PID.TID 0000.0001)                 3.686812105223082E+05,      /* J = 12 */
(PID.TID 0000.0001)                 3.851300650057323E+05,      /* J = 13 */
(PID.TID 0000.0001)                 3.997026045255871E+05,      /* J = 14 */
(PID.TID 0000.0001)                 4.123278331341585E+05,      /* J = 15 */
(PID.TID 0000.0001)                 4.229442419867491E+05,      /* J = 16 */
(PID.TID 0000.0001)                 4.315001090065870E+05,      /* J = 17 */
(PID.TID 0000.0001)                 4.379537508695838E+05,      /* J = 18 */
(PID.TID 0000.0001)                 4.422737260813012E+05,      /* J = 19 */
(PID.TID 0000.0001)     2 @  4.444389881567502E+05,             /* J = 20: 21 */
(PID.TID 0000.0001)                 4.422737260813012E+05,      /* J = 22 */
(PID.TID 0000.0001)                 4.379537508695838E+05,      /* J = 23 */
(PID.TID 0000.0001)                 4.315001090065870E+05,      /* J = 24 */
(PID.TID 0000.0001)                 4.229442419867491E+05,      /* J = 25 */
(PID.TID 0000.0001)                 4.123278331341585E+05,      /* J = 26 */
(PID.TID 0000.0001)                 3.997026045255871E+05,      /* J = 27 */
(PID.TID 0000.0001)                 3.851300650057323E+05,      /* J = 28 */
(PID.TID 0000.0001)                 3.686812105223082E+05,      /* J = 29 */
(PID.TID 0000.0001)                 3.504361782409254E+05,      /* J = 30 */
(PID.TID 0000.0001)                 3.304838561248741E+05,      /* J = 31 */
(PID.TID 0000.0001)                 3.089214498819034E+05,      /* J = 32 */
(PID.TID 0000.0001)                 2.858540093877838E+05,      /* J = 33 */
(PID.TID 0000.0001)                 2.613939168938713E+05,      /* J = 34 */
(PID.TID 0000.0001)                 2.356603395120765E+05,      /* J = 35 */
(PID.TID 0000.0001)                 2.087786486446736E+05,      /* J = 36 */
(PID.TID 0000.0001)                 1.808798091874300E+05,      /* J = 37 */
(PID.TID 0000.0001)                 1.520997414818001E+05,      /* J = 38 */
(PID.TID 0000.0001)                 1.225786591246834E+05,      /* J = 39 */
(PID.TID 0000.0001)                 9.246038586187513E+04       /* J = 40 */
(PID.TID 0000.0001)     ;
(PID.TID 0000.0001) dyF =  /* dyF(:,1,:,1) ( units: m ) */
(PID.TID 0000.0001)    90 @  4.447098934081552E+05              /* I =  1: 90 */
(PID.TID 0000.0001)     ;
(PID.TID 0000.0001) dyF =  /* dyF(1,:,1,:) ( units: m ) */
(PID.TID 0000.0001)    40 @  4.447098934081552E+05              /* J =  1: 40 */
(PID.TID 0000.0001)     ;
(PID.TID 0000.0001) dxG =  /* dxG(:,1,:,1) ( units: m ) */
(PID.TID 0000.0001)    90 @  7.722306258078101E+04              /* I =  1: 90 */
(PID.TID 0000.0001)     ;
(PID.TID 0000.0001) dxG =  /* dxG(1,:,1,:) ( units: m ) */
(PID.TID 0000.0001)                 7.722306258078101E+04,      /* J =  1 */
(PID.TID 0000.0001)                 1.075850604052271E+05,      /* J =  2 */
(PID.TID 0000.0001)                 1.374229146297914E+05,      /* J =  3 */
(PID.TID 0000.0001)                 1.665912582279823E+05,      /* J =  4 */
(PID.TID 0000.0001)                 1.949479859617814E+05,      /* J =  5 */
(PID.TID 0000.0001)                 2.223549467040777E+05,      /* J =  6 */
(PID.TID 0000.0001)                 2.486786164970726E+05,      /* J =  7 */
(PID.TID 0000.0001)                 2.737907490675810E+05,      /* J =  8 */
(PID.TID 0000.0001)                 2.975690006299821E+05,      /* J =  9 */
(PID.TID 0000.0001)                 3.198975259328452E+05,      /* J = 10 */
(PID.TID 0000.0001)                 3.406675426453503E+05,      /* J = 11 */
(PID.TID 0000.0001)                 3.597778613338690E+05,      /* J = 12 */
(PID.TID 0000.0001)                 3.771353784467131E+05,      /* J = 13 */
(PID.TID 0000.0001)                 3.926555299052806E+05,      /* J = 14 */
(PID.TID 0000.0001)                 4.062627030917454E+05,      /* J = 15 */
(PID.TID 0000.0001)                 4.178906052261313E+05,      /* J = 16 */
(PID.TID 0000.0001)                 4.274825863380723E+05,      /* J = 17 */
(PID.TID 0000.0001)                 4.349919152597734E+05,      /* J = 18 */
(PID.TID 0000.0001)                 4.403820072955634E+05,      /* J = 19 */
(PID.TID 0000.0001)                 4.436266024588540E+05,      /* J = 20 */
(PID.TID 0000.0001)                 4.447098934081552E+05,      /* J = 21 */
(PID.TID 0000.0001)                 4.436266024588540E+05,      /* J = 22 */
(PID.TID 0000.0001)                 4.403820072955634E+05,      /* J = 23 */
(PID.TID 0000.0001)                 4.349919152597734E+05,      /* J = 24 */
(PID.TID 0000.0001)                 4.274825863380723E+05,      /* J = 25 */
(PID.TID 0000.0001)                 4.178906052261313E+05,      /* J = 26 */
(PID.TID 0000.0001)                 4.062627030917454E+05,      /* J = 27 */
(PID.TID 0000.0001)                 3.926555299052806E+05,      /* J = 28 */
(PID.TID 0000.0001)                 3.771353784467131E+05,      /* J = 29 */
(PID.TID 0000.0001)                 3.597778613338690E+05,      /* J = 30 */
(PID.TID 0000.0001)                 3.406675426453503E+05,      /* J = 31 */
(PID.TID 0000.0001)                 3.198975259328452E+05,      /* J = 32 */
(PID.TID 0000.0001)                 2.975690006299821E+05,      /* J = 33 */
(PID.TID 0000.0001)                 2.737907490675810E+05,      /* J = 34 */
(PID.TID 0000.0001)                 2.486786164970726E+05,      /* J = 35 */
(PID.TID 0000.0001)                 2.223549467040777E+05,      /* J = 36 */
(PID.TID 0000.0001)                 1.949479859617814E+05,      /* J = 37 */
(PID.TID 0000.0001)                 1.665912582279823E+05,      /* J = 38 */
(PID.TID 0000.0001)                 1.374229146297914E+05,      /* J = 39 */
(PID.TID 0000.0001)                 1.075850604052271E+05       /* J = 40 */
(PID.TID 0000.0001)     ;
(PID.TID 0000.0001) dyG =  /* dyG(:,1,:,1) ( units: m ) */
(PID.TID 0000.0001)    90 @  4.447098934081552E+05              /* I =  1: 90 */
(PID.TID 0000.0001)     ;
(PID.TID 0000.0001) dyG =  /* dyG(1,:,1,:) ( units: m ) */
(PID.TID 0000.0001)    40 @  4.447098934081552E+05              /* J =  1: 40 */
(PID.TID 0000.0001)     ;
(PID.TID 0000.0001) dxC =  /* dxC(:,1,:,1) ( units: m ) */
(PID.TID 0000.0001)    90 @  9.246038586187513E+04              /* I =  1: 90 */
(PID.TID 0000.0001)     ;
(PID.TID 0000.0001) dxC =  /* dxC(1,:,1,:) ( units: m ) */
(PID.TID 0000.0001)                 9.246038586187513E+04,      /* J =  1 */
(PID.TID 0000.0001)                 1.225786591246834E+05,      /* J =  2 */
(PID.TID 0000.0001)                 1.520997414818001E+05,      /* J =  3 */
(PID.TID 0000.0001)                 1.808798091874300E+05,      /* J =  4 */
(PID.TID 0000.0001)                 2.087786486446736E+05,      /* J =  5 */
(PID.TID 0000.0001)                 2.356603395120765E+05,      /* J =  6 */
(PID.TID 0000.0001)                 2.613939168938713E+05,      /* J =  7 */
(PID.TID 0000.0001)                 2.858540093877838E+05,      /* J =  8 */
(PID.TID 0000.0001)                 3.089214498819034E+05,      /* J =  9 */
(PID.TID 0000.0001)                 3.304838561248741E+05,      /* J = 10 */
(PID.TID 0000.0001)                 3.504361782409254E+05,      /* J = 11 */
(PID.TID 0000.0001)                 3.686812105223082E+05,      /* J = 12 */
(PID.TID 0000.0001)                 3.851300650057323E+05,      /* J = 13 */
(PID.TID 0000.0001)                 3.997026045255871E+05,      /* J = 14 */
(PID.TID 0000.0001)                 4.123278331341585E+05,      /* J = 15 */
(PID.TID 0000.0001)                 4.229442419867491E+05,      /* J = 16 */
(PID.TID 0000.0001)                 4.315001090065870E+05,      /* J = 17 */
(PID.TID 0000.0001)                 4.379537508695838E+05,      /* J = 18 */
(PID.TID 0000.0001)                 4.422737260813012E+05,      /* J = 19 */
(PID.TID 0000.0001)     2 @  4.444389881567502E+05,             /* J = 20: 21 */
(PID.TID 0000.0001)                 4.422737260813012E+05,      /* J = 22 */
(PID.TID 0000.0001)                 4.379537508695838E+05,      /* J = 23 */
(PID.TID 0000.0001)                 4.315001090065870E+05,      /* J = 24 */
(PID.TID 0000.0001)                 4.229442419867491E+05,      /* J = 25 */
(PID.TID 0000.0001)                 4.123278331341585E+05,      /* J = 26 */
(PID.TID 0000.0001)                 3.997026045255871E+05,      /* J = 27 */
(PID.TID 0000.0001)                 3.851300650057323E+05,      /* J = 28 */
(PID.TID 0000.0001)                 3.686812105223082E+05,      /* J = 29 */
(PID.TID 0000.0001)                 3.504361782409254E+05,      /* J = 30 */
(PID.TID 0000.0001)                 3.304838561248741E+05,      /* J = 31 */
(PID.TID 0000.0001)                 3.089214498819034E+05,      /* J = 32 */
(PID.TID 0000.0001)                 2.858540093877838E+05,      /* J = 33 */
(PID.TID 0000.0001)                 2.613939168938713E+05,      /* J = 34 */
(PID.TID 0000.0001)                 2.356603395120765E+05,      /* J = 35 */
(PID.TID 0000.0001)                 2.087786486446736E+05,      /* J = 36 */
(PID.TID 0000.0001)                 1.808798091874300E+05,      /* J = 37 */
(PID.TID 0000.0001)                 1.520997414818001E+05,      /* J = 38 */
(PID.TID 0000.0001)                 1.225786591246834E+05,      /* J = 39 */
(PID.TID 0000.0001)                 9.246038586187513E+04       /* J = 40 */
(PID.TID 0000.0001)     ;
(PID.TID 0000.0001) dyC =  /* dyC(:,1,:,1) ( units: m ) */
(PID.TID 0000.0001)    90 @  4.447098934081552E+05              /* I =  1: 90 */
(PID.TID 0000.0001)     ;
(PID.TID 0000.0001) dyC =  /* dyC(1,:,1,:) ( units: m ) */
(PID.TID 0000.0001)    40 @  4.447098934081552E+05              /* J =  1: 40 */
(PID.TID 0000.0001)     ;
(PID.TID 0000.0001) dxV =  /* dxV(:,1,:,1) ( units: m ) */
(PID.TID 0000.0001)    90 @  7.722306258078101E+04              /* I =  1: 90 */
(PID.TID 0000.0001)     ;
(PID.TID 0000.0001) dxV =  /* dxV(1,:,1,:) ( units: m ) */
(PID.TID 0000.0001)                 7.722306258078101E+04,      /* J =  1 */
(PID.TID 0000.0001)                 1.075850604052271E+05,      /* J =  2 */
(PID.TID 0000.0001)                 1.374229146297914E+05,      /* J =  3 */
(PID.TID 0000.0001)                 1.665912582279823E+05,      /* J =  4 */
(PID.TID 0000.0001)                 1.949479859617814E+05,      /* J =  5 */
(PID.TID 0000.0001)                 2.223549467040777E+05,      /* J =  6 */
(PID.TID 0000.0001)                 2.486786164970726E+05,      /* J =  7 */
(PID.TID 0000.0001)                 2.737907490675810E+05,      /* J =  8 */
(PID.TID 0000.0001)                 2.975690006299821E+05,      /* J =  9 */
(PID.TID 0000.0001)                 3.198975259328452E+05,      /* J = 10 */
(PID.TID 0000.0001)                 3.406675426453503E+05,      /* J = 11 */
(PID.TID 0000.0001)                 3.597778613338690E+05,      /* J = 12 */
(PID.TID 0000.0001)                 3.771353784467131E+05,      /* J = 13 */
(PID.TID 0000.0001)                 3.926555299052806E+05,      /* J = 14 */
(PID.TID 0000.0001)                 4.062627030917454E+05,      /* J = 15 */
(PID.TID 0000.0001)                 4.178906052261313E+05,      /* J = 16 */
(PID.TID 0000.0001)                 4.274825863380723E+05,      /* J = 17 */
(PID.TID 0000.0001)                 4.349919152597734E+05,      /* J = 18 */
(PID.TID 0000.0001)                 4.403820072955634E+05,      /* J = 19 */
(PID.TID 0000.0001)                 4.436266024588540E+05,      /* J = 20 */
(PID.TID 0000.0001)                 4.447098934081552E+05,      /* J = 21 */
(PID.TID 0000.0001)                 4.436266024588540E+05,      /* J = 22 */
(PID.TID 0000.0001)                 4.403820072955634E+05,      /* J = 23 */
(PID.TID 0000.0001)                 4.349919152597734E+05,      /* J = 24 */
(PID.TID 0000.0001)                 4.274825863380723E+05,      /* J = 25 */
(PID.TID 0000.0001)                 4.178906052261313E+05,      /* J = 26 */
(PID.TID 0000.0001)                 4.062627030917454E+05,      /* J = 27 */
(PID.TID 0000.0001)                 3.926555299052806E+05,      /* J = 28 */
(PID.TID 0000.0001)                 3.771353784467131E+05,      /* J = 29 */
(PID.TID 0000.0001)                 3.597778613338690E+05,      /* J = 30 */
(PID.TID 0000.0001)                 3.406675426453503E+05,      /* J = 31 */
(PID.TID 0000.0001)                 3.198975259328452E+05,      /* J = 32 */
(PID.TID 0000.0001)                 2.975690006299821E+05,      /* J = 33 */
(PID.TID 0000.0001)                 2.737907490675810E+05,      /* J = 34 */
(PID.TID 0000.0001)                 2.486786164970726E+05,      /* J = 35 */
(PID.TID 0000.0001)                 2.223549467040777E+05,      /* J = 36 */
(PID.TID 0000.0001)                 1.949479859617814E+05,      /* J = 37 */
(PID.TID 0000.0001)                 1.665912582279823E+05,      /* J = 38 */
(PID.TID 0000.0001)                 1.374229146297914E+05,      /* J = 39 */
(PID.TID 0000.0001)                 1.075850604052271E+05       /* J = 40 */
(PID.TID 0000.0001)     ;
(PID.TID 0000.0001) dyU =  /* dyU(:,1,:,1) ( units: m ) */
(PID.TID 0000.0001)    90 @  4.447098934081552E+05              /* I =  1: 90 */
(PID.TID 0000.0001)     ;
(PID.TID 0000.0001) dyU =  /* dyU(1,:,1,:) ( units: m ) */
(PID.TID 0000.0001)    40 @  4.447098934081552E+05              /* J =  1: 40 */
(PID.TID 0000.0001)     ;
(PID.TID 0000.0001) rA  =  /* rA (:,1,:,1) ( units: m^2 ) */
(PID.TID 0000.0001)    90 @  4.110969866729047E+10              /* I =  1: 90 */
(PID.TID 0000.0001)     ;
(PID.TID 0000.0001) rA  =  /* rA (1,:,1,:) ( units: m^2 ) */
(PID.TID 0000.0001)                 4.110969866729047E+10,      /* J =  1 */
(PID.TID 0000.0001)                 5.450087291636665E+10,      /* J =  2 */
(PID.TID 0000.0001)                 6.762652439100235E+10,      /* J =  3 */
(PID.TID 0000.0001)                 8.042270623659998E+10,      /* J =  4 */
(PID.TID 0000.0001)                 9.282707674147523E+10,      /* J =  5 */
(PID.TID 0000.0001)                 1.047792030594103E+11,      /* J =  6 */
(PID.TID 0000.0001)                 1.162208556324093E+11,      /* J =  7 */
(PID.TID 0000.0001)                 1.270962918792468E+11,      /* J =  8 */
(PID.TID 0000.0001)                 1.373525277677229E+11,      /* J =  9 */
(PID.TID 0000.0001)                 1.469395959475426E+11,      /* J = 10 */
(PID.TID 0000.0001)                 1.558107891862220E+11,      /* J = 11 */
(PID.TID 0000.0001)                 1.639228879220326E+11,      /* J = 12 */
(PID.TID 0000.0001)                 1.712363708253573E+11,      /* J = 13 */
(PID.TID 0000.0001)                 1.777156073426415E+11,      /* J = 14 */
(PID.TID 0000.0001)                 1.833290312848623E+11,      /* J = 15 */
(PID.TID 0000.0001)                 1.880492946148330E+11,      /* J = 16 */
(PID.TID 0000.0001)                 1.918534006840893E+11,      /* J = 17 */
(PID.TID 0000.0001)                 1.947228162702492E+11,      /* J = 18 */
(PID.TID 0000.0001)                 1.966435618690094E+11,      /* J = 19 */
(PID.TID 0000.0001)     2 @  1.976062798008856E+11,             /* J = 20: 21 */
(PID.TID 0000.0001)                 1.966435618690094E+11,      /* J = 22 */
(PID.TID 0000.0001)                 1.947228162702492E+11,      /* J = 23 */
(PID.TID 0000.0001)                 1.918534006840893E+11,      /* J = 24 */
(PID.TID 0000.0001)                 1.880492946148330E+11,      /* J = 25 */
(PID.TID 0000.0001)                 1.833290312848623E+11,      /* J = 26 */
(PID.TID 0000.0001)                 1.777156073426415E+11,      /* J = 27 */
(PID.TID 0000.0001)                 1.712363708253573E+11,      /* J = 28 */
(PID.TID 0000.0001)                 1.639228879220326E+11,      /* J = 29 */
(PID.TID 0000.0001)                 1.558107891862220E+11,      /* J = 30 */
(PID.TID 0000.0001)                 1.469395959475426E+11,      /* J = 31 */
(PID.TID 0000.0001)                 1.373525277677229E+11,      /* J = 32 */
(PID.TID 0000.0001)                 1.270962918792468E+11,      /* J = 33 */
(PID.TID 0000.0001)                 1.162208556324093E+11,      /* J = 34 */
(PID.TID 0000.0001)                 1.047792030594103E+11,      /* J = 35 */
(PID.TID 0000.0001)                 9.282707674147523E+10,      /* J = 36 */
(PID.TID 0000.0001)                 8.042270623659998E+10,      /* J = 37 */
(PID.TID 0000.0001)                 6.762652439100235E+10,      /* J = 38 */
(PID.TID 0000.0001)                 5.450087291636665E+10,      /* J = 39 */
(PID.TID 0000.0001)                 4.110969866729047E+10       /* J = 40 */
(PID.TID 0000.0001)     ;
(PID.TID 0000.0001) rAw =  /* rAw(:,1,:,1) ( units: m^2 ) */
(PID.TID 0000.0001)    90 @  4.110969866729047E+10              /* I =  1: 90 */
(PID.TID 0000.0001)     ;
(PID.TID 0000.0001) rAw =  /* rAw(1,:,1,:) ( units: m^2 ) */
(PID.TID 0000.0001)                 4.110969866729047E+10,      /* J =  1 */
(PID.TID 0000.0001)                 5.450087291636665E+10,      /* J =  2 */
(PID.TID 0000.0001)                 6.762652439100235E+10,      /* J =  3 */
(PID.TID 0000.0001)                 8.042270623659998E+10,      /* J =  4 */
(PID.TID 0000.0001)                 9.282707674147523E+10,      /* J =  5 */
(PID.TID 0000.0001)                 1.047792030594103E+11,      /* J =  6 */
(PID.TID 0000.0001)                 1.162208556324093E+11,      /* J =  7 */
(PID.TID 0000.0001)                 1.270962918792468E+11,      /* J =  8 */
(PID.TID 0000.0001)                 1.373525277677229E+11,      /* J =  9 */
(PID.TID 0000.0001)                 1.469395959475426E+11,      /* J = 10 */
(PID.TID 0000.0001)                 1.558107891862220E+11,      /* J = 11 */
(PID.TID 0000.0001)                 1.639228879220326E+11,      /* J = 12 */
(PID.TID 0000.0001)                 1.712363708253573E+11,      /* J = 13 */
(PID.TID 0000.0001)                 1.777156073426415E+11,      /* J = 14 */
(PID.TID 0000.0001)                 1.833290312848623E+11,      /* J = 15 */
(PID.TID 0000.0001)                 1.880492946148330E+11,      /* J = 16 */
(PID.TID 0000.0001)                 1.918534006840893E+11,      /* J = 17 */
(PID.TID 0000.0001)                 1.947228162702492E+11,      /* J = 18 */
(PID.TID 0000.0001)                 1.966435618690094E+11,      /* J = 19 */
(PID.TID 0000.0001)     2 @  1.976062798008856E+11,             /* J = 20: 21 */
(PID.TID 0000.0001)                 1.966435618690094E+11,      /* J = 22 */
(PID.TID 0000.0001)                 1.947228162702492E+11,      /* J = 23 */
(PID.TID 0000.0001)                 1.918534006840893E+11,      /* J = 24 */
(PID.TID 0000.0001)                 1.880492946148330E+11,      /* J = 25 */
(PID.TID 0000.0001)                 1.833290312848623E+11,      /* J = 26 */
(PID.TID 0000.0001)                 1.777156073426415E+11,      /* J = 27 */
(PID.TID 0000.0001)                 1.712363708253573E+11,      /* J = 28 */
(PID.TID 0000.0001)                 1.639228879220326E+11,      /* J = 29 */
(PID.TID 0000.0001)                 1.558107891862220E+11,      /* J = 30 */
(PID.TID 0000.0001)                 1.469395959475426E+11,      /* J = 31 */
(PID.TID 0000.0001)                 1.373525277677229E+11,      /* J = 32 */
(PID.TID 0000.0001)                 1.270962918792468E+11,      /* J = 33 */
(PID.TID 0000.0001)                 1.162208556324093E+11,      /* J = 34 */
(PID.TID 0000.0001)                 1.047792030594103E+11,      /* J = 35 */
(PID.TID 0000.0001)                 9.282707674147523E+10,      /* J = 36 */
(PID.TID 0000.0001)                 8.042270623659998E+10,      /* J = 37 */
(PID.TID 0000.0001)                 6.762652439100235E+10,      /* J = 38 */
(PID.TID 0000.0001)                 5.450087291636665E+10,      /* J = 39 */
(PID.TID 0000.0001)                 4.110969866729047E+10       /* J = 40 */
(PID.TID 0000.0001)     ;
(PID.TID 0000.0001) rAs =  /* rAs(:,1,:,1) ( units: m^2 ) */
(PID.TID 0000.0001)    90 @  3.433488626798250E+10              /* I =  1: 90 */
(PID.TID 0000.0001)     ;
(PID.TID 0000.0001) rAs =  /* rAs(1,:,1,:) ( units: m^2 ) */
(PID.TID 0000.0001)                 3.433488626798250E+10,      /* J =  1 */
(PID.TID 0000.0001)                 4.783442523123625E+10,      /* J =  2 */
(PID.TID 0000.0001)                 6.110091968306414E+10,      /* J =  3 */
(PID.TID 0000.0001)                 7.406973659603818E+10,      /* J =  4 */
(PID.TID 0000.0001)                 8.667769319778079E+10,      /* J =  5 */
(PID.TID 0000.0001)                 9.886336479107463E+10,      /* J =  6 */
(PID.TID 0000.0001)                 1.105673840088173E+11,      /* J =  7 */
(PID.TID 0000.0001)                 1.217327300458638E+11,      /* J =  8 */
(PID.TID 0000.0001)                 1.323050064586578E+11,      /* J =  9 */
(PID.TID 0000.0001)                 1.422327061792377E+11,      /* J = 10 */
(PID.TID 0000.0001)                 1.514674624524945E+11,      /* J = 11 */
(PID.TID 0000.0001)                 1.599642844741385E+11,      /* J = 12 */
(PID.TID 0000.0001)                 1.676817765813788E+11,      /* J = 13 */
(PID.TID 0000.0001)                 1.745823399284268E+11,      /* J = 14 */
(PID.TID 0000.0001)                 1.806323556642996E+11,      /* J = 15 */
(PID.TID 0000.0001)                 1.858023487204767E+11,      /* J = 16 */
(PID.TID 0000.0001)                 1.900671314104743E+11,      /* J = 17 */
(PID.TID 0000.0001)                 1.934059261417216E+11,      /* J = 18 */
(PID.TID 0000.0001)                 1.958024666419019E+11,      /* J = 19 */
(PID.TID 0000.0001)                 1.972450772065981E+11,      /* J = 20 */
(PID.TID 0000.0001)                 1.977267295821495E+11,      /* J = 21 */
(PID.TID 0000.0001)                 1.972450772065981E+11,      /* J = 22 */
(PID.TID 0000.0001)                 1.958024666419019E+11,      /* J = 23 */
(PID.TID 0000.0001)                 1.934059261417216E+11,      /* J = 24 */
(PID.TID 0000.0001)                 1.900671314104743E+11,      /* J = 25 */
(PID.TID 0000.0001)                 1.858023487204767E+11,      /* J = 26 */
(PID.TID 0000.0001)                 1.806323556642996E+11,      /* J = 27 */
(PID.TID 0000.0001)                 1.745823399284268E+11,      /* J = 28 */
(PID.TID 0000.0001)                 1.676817765813788E+11,      /* J = 29 */
(PID.TID 0000.0001)                 1.599642844741385E+11,      /* J = 30 */
(PID.TID 0000.0001)                 1.514674624524945E+11,      /* J = 31 */
(PID.TID 0000.0001)                 1.422327061792377E+11,      /* J = 32 */
(PID.TID 0000.0001)                 1.323050064586578E+11,      /* J = 33 */
(PID.TID 0000.0001)                 1.217327300458638E+11,      /* J = 34 */
(PID.TID 0000.0001)                 1.105673840088173E+11,      /* J = 35 */
(PID.TID 0000.0001)                 9.886336479107463E+10,      /* J = 36 */
(PID.TID 0000.0001)                 8.667769319778079E+10,      /* J = 37 */
(PID.TID 0000.0001)                 7.406973659603818E+10,      /* J = 38 */
(PID.TID 0000.0001)                 6.110091968306414E+10,      /* J = 39 */
(PID.TID 0000.0001)                 4.783442523123625E+10       /* J = 40 */
(PID.TID 0000.0001)     ;
(PID.TID 0000.0001) globalArea = /* Integrated horizontal Area (m^2) */
(PID.TID 0000.0001)                 3.450614146649749E+14
(PID.TID 0000.0001)     ;
(PID.TID 0000.0001) the_run_name = /* Name of this simulation */
(PID.TID 0000.0001)               'global_ocean.90x40x15'
(PID.TID 0000.0001)     ;
(PID.TID 0000.0001) // =======================================================
(PID.TID 0000.0001) // End of Model config. summary
(PID.TID 0000.0001) // =======================================================
(PID.TID 0000.0001) 
(PID.TID 0000.0001) == Packages configuration : Check & print summary ==
(PID.TID 0000.0001) 
(PID.TID 0000.0001) GMREDI_CHECK: #define GMREDI
(PID.TID 0000.0001) GM_AdvForm =     /* if FALSE => use SkewFlux Form */
(PID.TID 0000.0001)                   F
(PID.TID 0000.0001)     ;
(PID.TID 0000.0001) GM_InMomAsStress = /* if TRUE => apply as Eddy Stress */
(PID.TID 0000.0001)                   F
(PID.TID 0000.0001)     ;
(PID.TID 0000.0001) GM_AdvSeparate = /* Calc Bolus & Euler Adv. separately */
(PID.TID 0000.0001)                   F
(PID.TID 0000.0001)     ;
(PID.TID 0000.0001) GM_ExtraDiag =   /* Tensor Extra Diag (line 1&2) non 0 */
(PID.TID 0000.0001)                   F
(PID.TID 0000.0001)     ;
(PID.TID 0000.0001) GM_isopycK =    /* Background Isopyc. Diffusivity [m^2/s] */
(PID.TID 0000.0001)                 1.000000000000000E+03
(PID.TID 0000.0001)     ;
(PID.TID 0000.0001) GM_skewflx*K =  /* Background GM_SkewFlx Diffusivity [m^2/s] */
(PID.TID 0000.0001)                 1.000000000000000E+03
(PID.TID 0000.0001)     ;
(PID.TID 0000.0001) GM_advec*K =    /* Backg. GM-Advec(=Bolus) Diffusivity [m^2/s]*/
(PID.TID 0000.0001)                 0.000000000000000E+00
(PID.TID 0000.0001)     ;
(PID.TID 0000.0001) GM_Kmin_horiz = /* Minimum Horizontal Diffusivity [m^2/s] */
(PID.TID 0000.0001)                 5.000000000000000E+01
(PID.TID 0000.0001)     ;
(PID.TID 0000.0001) GM_Visbeck_alpha = /* Visbeck alpha coeff. [-] */
(PID.TID 0000.0001)                 0.000000000000000E+00
(PID.TID 0000.0001)     ;
(PID.TID 0000.0001) GM_Small_Number =  /* epsilon used in slope calc */
(PID.TID 0000.0001)                 9.999999999999999E-21
(PID.TID 0000.0001)     ;
(PID.TID 0000.0001) GM_slopeSqCutoff = /* Slope^2 cut-off value */
(PID.TID 0000.0001)                 1.000000000000000E+48
(PID.TID 0000.0001)     ;
(PID.TID 0000.0001) GM_taper_scheme =  /* Type of Tapering/Clipping scheme */
(PID.TID 0000.0001)               'gkw91                                   '
(PID.TID 0000.0001)     ;
(PID.TID 0000.0001) GM_maxSlope =  /* Maximum Slope (Tapering/Clipping) */
(PID.TID 0000.0001)                 1.000000000000000E-02
(PID.TID 0000.0001)     ;
(PID.TID 0000.0001) GM_facTrL2dz = /* Minimum Trans.Layer Thick. (factor of dz) */
(PID.TID 0000.0001)                 1.000000000000000E+00
(PID.TID 0000.0001)     ;
(PID.TID 0000.0001) GM_facTrL2ML = /* Max.Trans.Layer Thick. (factor of MxL Depth)*/
(PID.TID 0000.0001)                 5.000000000000000E+00
(PID.TID 0000.0001)     ;
(PID.TID 0000.0001) GM_maxTransLay = /* Maximum Transition Layer Thickness [m] */
(PID.TID 0000.0001)                 5.000000000000000E+02
(PID.TID 0000.0001)     ;
(PID.TID 0000.0001) GM_UseBVP = /* if TRUE => use bvp a la Ferrari et al. (2010) */
(PID.TID 0000.0001)                   F
(PID.TID 0000.0001)     ;
(PID.TID 0000.0001) GM_BVP_ModeNumber = /* Vertical mode number for BVP wave speed */
(PID.TID 0000.0001)                       1
(PID.TID 0000.0001)     ;
(PID.TID 0000.0001) GM_BVP_cMin = /* Minimum wave speed for BVP [m/s] */
(PID.TID 0000.0001)                 1.000000000000000E-01
(PID.TID 0000.0001)     ;
(PID.TID 0000.0001) SBO_CHECK: #define ALLOW_SBO
(PID.TID 0000.0001) GAD_CHECK: #define ALLOW_GENERIC_ADVDIFF
(PID.TID 0000.0001) // =======================================================
(PID.TID 0000.0001) // CONFIG_CHECK : Normal End
(PID.TID 0000.0001) // =======================================================
(PID.TID 0000.0001) 
(PID.TID 0000.0001)  MDS_READ_META: opening file: pickup.0000036000.meta
(PID.TID 0000.0001)  simulName=>global_ocean.90x40x15<
(PID.TID 0000.0001)  nRecords = 138 ; filePrec =  64 ; fileIter =     36000
(PID.TID 0000.0001)     nDims =   2 , dims:
(PID.TID 0000.0001)    1:  90   1  90
(PID.TID 0000.0001)    2:  40   1  40
(PID.TID 0000.0001)     nFlds =  12 , nFl3D =   9 , fields:
(PID.TID 0000.0001)  >Uvel    < >Vvel    < >Theta   < >Salt    < >GuNm1   < >GvNm1   < >GtNm1   < >GsNm1   < >PhiHyd  < >EtaN    < >dEtaHdt < >EtaH    <
(PID.TID 0000.0001)   nTimRec =   0 , timeList:
(PID.TID 0000.0001) READ_MFLDS_3D_RL: read field: "Uvel    ", #   1 in fldList, rec=   1
(PID.TID 0000.0001)  MDS_READ_FIELD: opening global file: pickup.0000036000
(PID.TID 0000.0001) READ_MFLDS_3D_RL: read field: "Vvel    ", #   2 in fldList, rec=   2
(PID.TID 0000.0001)  MDS_READ_FIELD: opening global file: pickup.0000036000
(PID.TID 0000.0001) READ_MFLDS_3D_RL: read field: "Theta   ", #   3 in fldList, rec=   3
(PID.TID 0000.0001)  MDS_READ_FIELD: opening global file: pickup.0000036000
(PID.TID 0000.0001) READ_MFLDS_3D_RL: read field: "Salt    ", #   4 in fldList, rec=   4
(PID.TID 0000.0001)  MDS_READ_FIELD: opening global file: pickup.0000036000
(PID.TID 0000.0001) READ_MFLDS_3D_RL: read field: "GuNm1   ", #   5 in fldList, rec=   5
(PID.TID 0000.0001)  MDS_READ_FIELD: opening global file: pickup.0000036000
(PID.TID 0000.0001) READ_MFLDS_3D_RL: read field: "GvNm1   ", #   6 in fldList, rec=   6
(PID.TID 0000.0001)  MDS_READ_FIELD: opening global file: pickup.0000036000
(PID.TID 0000.0001) READ_MFLDS_3D_RL: read field: "GtNm1   ", #   7 in fldList, rec=   7
(PID.TID 0000.0001)  MDS_READ_FIELD: opening global file: pickup.0000036000
(PID.TID 0000.0001) READ_MFLDS_3D_RL: read field: "GsNm1   ", #   8 in fldList, rec=   8
(PID.TID 0000.0001)  MDS_READ_FIELD: opening global file: pickup.0000036000
(PID.TID 0000.0001) READ_MFLDS_3D_RL: read field: "PhiHyd  ", #   9 in fldList, rec=   9
(PID.TID 0000.0001)  MDS_READ_FIELD: opening global file: pickup.0000036000
(PID.TID 0000.0001) READ_MFLDS_3D_RL: read field: "EtaN    ", #  10 in fldList, rec= 136
(PID.TID 0000.0001)  MDS_READ_FIELD: opening global file: pickup.0000036000
(PID.TID 0000.0001) READ_MFLDS_3D_RL: read field: "dEtaHdt ", #  11 in fldList, rec= 137
(PID.TID 0000.0001)  MDS_READ_FIELD: opening global file: pickup.0000036000
(PID.TID 0000.0001) READ_MFLDS_3D_RL: read field: "EtaH    ", #  12 in fldList, rec= 138
(PID.TID 0000.0001)  MDS_READ_FIELD: opening global file: pickup.0000036000
(PID.TID 0000.0001) READ_MFLDS_CHECK: - normal end ; reset MFLDS file-name: pickup.0000036000
(PID.TID 0000.0001)  MDS_READ_FIELD: opening global file: trenberth_taux.bin
(PID.TID 0000.0001)  MDS_READ_FIELD: opening global file: trenberth_tauy.bin
(PID.TID 0000.0001)  MDS_READ_FIELD: opening global file: ncep_qnet.bin
(PID.TID 0000.0001)  MDS_READ_FIELD: opening global file: ncep_emp.bin
(PID.TID 0000.0001)  MDS_READ_FIELD: opening global file: lev_sst.bin
(PID.TID 0000.0001)  MDS_READ_FIELD: opening global file: lev_sss.bin
(PID.TID 0000.0001)  write diagnostics summary to file ioUnit:      6
Iter.Nb:     36000 ; Time(s):  3.1104000000000E+09
------------------------------------------------------------------------
2D/3D diagnostics: Number of lists:     3
------------------------------------------------------------------------
listId=    1 ; file name: surfDiag
 nFlds, nActive,       freq     &     phase        , nLev               
    5  |    5  |    864000.000000         0.000000 |   1
 levels:   1
 diag# | name   |   ipt  |  iMate | kLev|   count |   mate.C|           
    23 |ETAN    |      1 |      0 |   1 |       0 |
    24 |ETANSQ  |      2 |      0 |   1 |       0 |
    25 |DETADT2 |      3 |      0 |   1 |       0 |
    69 |PHIBOT  |      4 |      0 |   1 |       0 |
    70 |PHIBOTSQ|      5 |      0 |   1 |       0 |
------------------------------------------------------------------------
listId=    2 ; file name: dynDiag
 nFlds, nActive,       freq     &     phase        , nLev               
    6  |    6  |    864000.000000         0.000000 |  15
 levels:   1   2   3   4   5   6   7   8   9  10  11  12  13  14  15
 diag# | name   |   ipt  |  iMate | kLev|   count |   mate.C|           
    45 |UVELMASS|      6 |     21 |  15 |       0 |       0 |
    46 |VVELMASS|     21 |      6 |  15 |       0 |       0 |
    32 |WVEL    |     36 |      0 |  15 |       0 |
    26 |THETA   |     51 |      0 |  15 |       0 |
    27 |SALT    |     66 |      0 |  15 |       0 |
    38 |WVELSQ  |     81 |      0 |  15 |       0 |
------------------------------------------------------------------------
listId=    3 ; file name: oceDiag
 nFlds, nActive,       freq     &     phase        , nLev               
    6  |    6  |    864000.000000         0.000000 |  15
 levels:   1   2   3   4   5   6   7   8   9  10  11  12  13  14  15
 diag# | name   |   ipt  |  iMate | kLev|   count |   mate.C|           
    62 |RHOAnoma|     96 |      0 |  15 |       0 |
    72 |DRHODR  |    111 |      0 |  15 |       0 |
    73 |CONVADJ |    126 |      0 |  15 |       0 |
   181 |GM_Kwx  |    141 |    156 |  15 |       0 |       0 |
   182 |GM_Kwy  |    156 |    141 |  15 |       0 |       0 |
   183 |GM_Kwz  |    171 |      0 |  15 |       0 |
------------------------------------------------------------------------
Global & Regional Statistics diagnostics: Number of lists:     2
------------------------------------------------------------------------
listId=   1 ; file name: dynStDiag
 nFlds, nActive,       freq     &     phase        |                    
    9  |    9  |   2592000.000000         0.000000 |
 Regions:   0
 diag# | name   |   ipt  |  iMate |    Volume   |   mate-Vol. |         
    23 |ETAN    |      1 |      0 | 0.00000E+00 |
    24 |ETANSQ  |      2 |      0 | 0.00000E+00 |
    25 |DETADT2 |      3 |      0 | 0.00000E+00 |
    30 |UVEL    |      4 |      0 | 0.00000E+00 |
    31 |VVEL    |     19 |      0 | 0.00000E+00 |
    32 |WVEL    |     34 |      0 | 0.00000E+00 |
    26 |THETA   |     49 |      0 | 0.00000E+00 |
    27 |SALT    |     64 |      0 | 0.00000E+00 |
    38 |WVELSQ  |     79 |      0 | 0.00000E+00 |
------------------------------------------------------------------------
listId=   2 ; file name: oceStDiag
 nFlds, nActive,       freq     &     phase        |                    
    3  |    3  |   2592000.000000         0.000000 |
 Regions:   0
 diag# | name   |   ipt  |  iMate |    Volume   |   mate-Vol. |         
    62 |RHOAnoma|     94 |      0 | 0.00000E+00 |
    72 |DRHODR  |    109 |      0 | 0.00000E+00 |
    73 |CONVADJ |    124 |      0 | 0.00000E+00 |
------------------------------------------------------------------------
(PID.TID 0000.0001)  MDS_READ_FIELD: opening global file: pickup_cd.0000036000
(PID.TID 0000.0001)  MDS_READ_FIELD: opening global file: pickup_cd.0000036000
(PID.TID 0000.0001)  MDS_READ_FIELD: opening global file: pickup_cd.0000036000
(PID.TID 0000.0001)  MDS_READ_FIELD: opening global file: pickup_cd.0000036000
(PID.TID 0000.0001)  MDS_READ_FIELD: opening global file: pickup_cd.0000036000
(PID.TID 0000.0001) // =======================================================
(PID.TID 0000.0001) // Model current state
(PID.TID 0000.0001) // =======================================================
(PID.TID 0000.0001) 
(PID.TID 0000.0001) // =======================================================
(PID.TID 0000.0001) // Begin MONITOR dynamic field statistics
(PID.TID 0000.0001) // =======================================================
(PID.TID 0000.0001) %MON time_tsnumber                =                 36000
(PID.TID 0000.0001) %MON time_secondsf                =   3.1104000000000E+09
(PID.TID 0000.0001) %MON dynstat_eta_max              =   9.6840090317157E-01
(PID.TID 0000.0001) %MON dynstat_eta_min              =  -1.6623523877581E+00
(PID.TID 0000.0001) %MON dynstat_eta_mean             =   1.6168410318832E-09
(PID.TID 0000.0001) %MON dynstat_eta_sd               =   6.1148997211646E-01
(PID.TID 0000.0001) %MON dynstat_eta_del2             =   2.6535523397499E-03
(PID.TID 0000.0001) %MON dynstat_uvel_max             =   1.4483874100704E-01
(PID.TID 0000.0001) %MON dynstat_uvel_min             =  -1.9334261953219E-01
(PID.TID 0000.0001) %MON dynstat_uvel_mean            =   2.1652498321960E-03
(PID.TID 0000.0001) %MON dynstat_uvel_sd              =   1.2230159714911E-02
(PID.TID 0000.0001) %MON dynstat_uvel_del2            =   7.5373739779343E-05
(PID.TID 0000.0001) %MON dynstat_vvel_max             =   1.2230159262561E-01
(PID.TID 0000.0001) %MON dynstat_vvel_min             =  -1.3319317954337E-01
(PID.TID 0000.0001) %MON dynstat_vvel_mean            =  -1.0570692141479E-06
(PID.TID 0000.0001) %MON dynstat_vvel_sd              =   6.0829832177859E-03
(PID.TID 0000.0001) %MON dynstat_vvel_del2            =   5.6304893947818E-05
(PID.TID 0000.0001) %MON dynstat_wvel_max             =   2.3594281332926E-05
(PID.TID 0000.0001) %MON dynstat_wvel_min             =  -4.9279006914581E-05
(PID.TID 0000.0001) %MON dynstat_wvel_mean            =   3.9949062806925E-10
(PID.TID 0000.0001) %MON dynstat_wvel_sd              =   1.6733827848296E-06
(PID.TID 0000.0001) %MON dynstat_wvel_del2            =   1.9834152537287E-08
(PID.TID 0000.0001) %MON dynstat_theta_max            =   3.0436365755114E+01
(PID.TID 0000.0001) %MON dynstat_theta_min            =  -2.6409661425848E+00
(PID.TID 0000.0001) %MON dynstat_theta_mean           =   3.9388062513755E+00
(PID.TID 0000.0001) %MON dynstat_theta_sd             =   4.5461663685633E+00
(PID.TID 0000.0001) %MON dynstat_theta_del2           =   5.6750025051935E-03
(PID.TID 0000.0001) %MON dynstat_salt_max             =   3.7498034042054E+01
(PID.TID 0000.0001) %MON dynstat_salt_min             =   2.9579913603215E+01
(PID.TID 0000.0001) %MON dynstat_salt_mean            =   3.4731867994986E+01
(PID.TID 0000.0001) %MON dynstat_salt_sd              =   2.9658519778238E-01
(PID.TID 0000.0001) %MON dynstat_salt_del2            =   1.0371767474275E-03
(PID.TID 0000.0001) %MON forcing_qnet_max             =   4.4161361694336E+02
(PID.TID 0000.0001) %MON forcing_qnet_min             =  -1.8132531738281E+02
(PID.TID 0000.0001) %MON forcing_qnet_mean            =  -1.6512526001044E+01
(PID.TID 0000.0001) %MON forcing_qnet_sd              =   1.0987288293460E+02
(PID.TID 0000.0001) %MON forcing_qnet_del2            =   1.0245701543512E+00
(PID.TID 0000.0001) %MON forcing_qsw_max              =   0.0000000000000E+00
(PID.TID 0000.0001) %MON forcing_qsw_min              =   0.0000000000000E+00
(PID.TID 0000.0001) %MON forcing_qsw_mean             =   0.0000000000000E+00
(PID.TID 0000.0001) %MON forcing_qsw_sd               =   0.0000000000000E+00
(PID.TID 0000.0001) %MON forcing_qsw_del2             =   0.0000000000000E+00
(PID.TID 0000.0001) %MON forcing_empmr_max            =   8.2174238968946E-05
(PID.TID 0000.0001) %MON forcing_empmr_min            =  -7.6155956207913E-05
(PID.TID 0000.0001) %MON forcing_empmr_mean           =   9.2293706211062E-07
(PID.TID 0000.0001) %MON forcing_empmr_sd             =   2.8800050217957E-05
(PID.TID 0000.0001) %MON forcing_empmr_del2           =   3.6757632549621E-07
(PID.TID 0000.0001) %MON forcing_fu_max               =   2.7877888083458E-01
(PID.TID 0000.0001) %MON forcing_fu_min               =  -1.7088057100773E-01
(PID.TID 0000.0001) %MON forcing_fu_mean              =   1.6001735152566E-02
(PID.TID 0000.0001) %MON forcing_fu_sd                =   9.1062350670783E-02
(PID.TID 0000.0001) %MON forcing_fu_del2              =   7.2483493833855E-04
(PID.TID 0000.0001) %MON forcing_fv_max               =   2.3312132060528E-01
(PID.TID 0000.0001) %MON forcing_fv_min               =  -1.7813690006733E-01
(PID.TID 0000.0001) %MON forcing_fv_mean              =  -5.2588977395051E-03
(PID.TID 0000.0001) %MON forcing_fv_sd                =   4.8248606070107E-02
(PID.TID 0000.0001) %MON forcing_fv_del2              =   4.9948324922575E-04
(PID.TID 0000.0001) %MON advcfl_uvel_max              =   4.3821928997296E-02
(PID.TID 0000.0001) %MON advcfl_vvel_max              =   2.5877298623499E-02
(PID.TID 0000.0001) %MON advcfl_wvel_max              =   2.0070768986055E-02
(PID.TID 0000.0001) %MON advcfl_W_hf_max              =   2.4083488333504E-02
(PID.TID 0000.0001) %MON pe_b_mean                    =   4.7847568373161E-04
(PID.TID 0000.0001) %MON ke_max                       =   1.8728918214679E-02
(PID.TID 0000.0001) %MON ke_mean                      =   8.6697107037096E-05
(PID.TID 0000.0001) %MON ke_vol                       =   1.3226782657554E+18
(PID.TID 0000.0001) %MON vort_r_min                   =  -4.0173311363557E-07
(PID.TID 0000.0001) %MON vort_r_max                   =   4.6764792592742E-07
(PID.TID 0000.0001) %MON vort_a_mean                  =  -2.5274807084690E-05
(PID.TID 0000.0001) %MON vort_a_sd                    =   7.3604637254584E-05
(PID.TID 0000.0001) %MON vort_p_mean                  =  -3.1845610372669E-05
(PID.TID 0000.0001) %MON vort_p_sd                    =   1.3163813653201E-04
(PID.TID 0000.0001) %MON surfExpan_theta_mean         =   5.6614011411228E-08
(PID.TID 0000.0001) %MON surfExpan_salt_mean          =   1.2564214083129E-08
(PID.TID 0000.0001) // =======================================================
(PID.TID 0000.0001) // End MONITOR dynamic field statistics
(PID.TID 0000.0001) // =======================================================
 EXTERNAL_FIELDS_LOAD,     36000 : iP,iLd,i0,i1=   12    0   12    1 ; Wght=  0.5000000000  0.5000000000
 EXTERNAL_FIELDS_LOAD, it=     36000 : Reading new data, i0,i1=   12    1 (prev=   12    0 )
(PID.TID 0000.0001)  MDS_READ_FIELD: opening global file: trenberth_taux.bin
(PID.TID 0000.0001)  MDS_READ_FIELD: opening global file: trenberth_taux.bin
(PID.TID 0000.0001)  MDS_READ_FIELD: opening global file: trenberth_tauy.bin
(PID.TID 0000.0001)  MDS_READ_FIELD: opening global file: trenberth_tauy.bin
(PID.TID 0000.0001)  MDS_READ_FIELD: opening global file: ncep_qnet.bin
(PID.TID 0000.0001)  MDS_READ_FIELD: opening global file: ncep_qnet.bin
(PID.TID 0000.0001)  MDS_READ_FIELD: opening global file: ncep_emp.bin
(PID.TID 0000.0001)  MDS_READ_FIELD: opening global file: ncep_emp.bin
(PID.TID 0000.0001)  MDS_READ_FIELD: opening global file: lev_sst.bin
(PID.TID 0000.0001)  MDS_READ_FIELD: opening global file: lev_sst.bin
(PID.TID 0000.0001)  MDS_READ_FIELD: opening global file: lev_sss.bin
(PID.TID 0000.0001)  MDS_READ_FIELD: opening global file: lev_sss.bin
(PID.TID 0000.0001) SOLVE_FOR_PRESSURE: putPmEinXvector =    F
 cg2d: Sum(rhs),rhsMax =   3.42302150682428E-03  2.75927033158927E+00
(PID.TID 0000.0001)                    cg2d_init_res =    4.16315383854631E-02
(PID.TID 0000.0001)                       cg2d_iters =   124
(PID.TID 0000.0001)                         cg2d_res =    8.05582334707564E-14
(PID.TID 0000.0001) // =======================================================
(PID.TID 0000.0001) // Begin MONITOR dynamic field statistics
(PID.TID 0000.0001) // =======================================================
(PID.TID 0000.0001) %MON time_tsnumber                =                 36001
(PID.TID 0000.0001) %MON time_secondsf                =   3.1104864000000E+09
(PID.TID 0000.0001) %MON dynstat_eta_max              =   9.6825263228019E-01
(PID.TID 0000.0001) %MON dynstat_eta_min              =  -1.6653461114320E+00
(PID.TID 0000.0001) %MON dynstat_eta_mean             =  -6.4810128210533E-05
(PID.TID 0000.0001) %MON dynstat_eta_sd               =   6.1186308620406E-01
(PID.TID 0000.0001) %MON dynstat_eta_del2             =   2.6633476406978E-03
(PID.TID 0000.0001) %MON dynstat_uvel_max             =   1.4462730695291E-01
(PID.TID 0000.0001) %MON dynstat_uvel_min             =  -1.9261990208189E-01
(PID.TID 0000.0001) %MON dynstat_uvel_mean            =   2.1621641562861E-03
(PID.TID 0000.0001) %MON dynstat_uvel_sd              =   1.2224439725744E-02
(PID.TID 0000.0001) %MON dynstat_uvel_del2            =   7.5326891199234E-05
(PID.TID 0000.0001) %MON dynstat_vvel_max             =   1.2231876200871E-01
(PID.TID 0000.0001) %MON dynstat_vvel_min             =  -1.3293699466340E-01
(PID.TID 0000.0001) %MON dynstat_vvel_mean            =   1.0122178445083E-06
(PID.TID 0000.0001) %MON dynstat_vvel_sd              =   6.0775556003291E-03
(PID.TID 0000.0001) %MON dynstat_vvel_del2            =   5.6213535777428E-05
(PID.TID 0000.0001) %MON dynstat_wvel_max             =   2.3546025306606E-05
(PID.TID 0000.0001) %MON dynstat_wvel_min             =  -4.9094973295198E-05
(PID.TID 0000.0001) %MON dynstat_wvel_mean            =   3.6438416943504E-10
(PID.TID 0000.0001) %MON dynstat_wvel_sd              =   1.6806475409065E-06
(PID.TID 0000.0001) %MON dynstat_wvel_del2            =   1.9854355566797E-08
(PID.TID 0000.0001) %MON dynstat_theta_max            =   3.0438770681382E+01
(PID.TID 0000.0001) %MON dynstat_theta_min            =  -2.6410428557617E+00
(PID.TID 0000.0001) %MON dynstat_theta_mean           =   3.9388941899039E+00
(PID.TID 0000.0001) %MON dynstat_theta_sd             =   4.5462175363880E+00
(PID.TID 0000.0001) %MON dynstat_theta_del2           =   5.6695973948783E-03
(PID.TID 0000.0001) %MON dynstat_salt_max             =   3.7497256698944E+01
(PID.TID 0000.0001) %MON dynstat_salt_min             =   2.9581982871563E+01
(PID.TID 0000.0001) %MON dynstat_salt_mean            =   3.4731869446668E+01
(PID.TID 0000.0001) %MON dynstat_salt_sd              =   2.9657800101912E-01
(PID.TID 0000.0001) %MON dynstat_salt_del2            =   1.0362433579614E-03
(PID.TID 0000.0001) %MON forcing_qnet_max             =   4.2589080810547E+02
(PID.TID 0000.0001) %MON forcing_qnet_min             =  -1.8702698516846E+02
(PID.TID 0000.0001) %MON forcing_qnet_mean            =  -1.6700205338390E+01
(PID.TID 0000.0001) %MON forcing_qnet_sd              =   1.1285666794876E+02
(PID.TID 0000.0001) %MON forcing_qnet_del2            =   9.9079877721394E-01
(PID.TID 0000.0001) %MON forcing_qsw_max              =   0.0000000000000E+00
(PID.TID 0000.0001) %MON forcing_qsw_min              =   0.0000000000000E+00
(PID.TID 0000.0001) %MON forcing_qsw_mean             =   0.0000000000000E+00
(PID.TID 0000.0001) %MON forcing_qsw_sd               =   0.0000000000000E+00
(PID.TID 0000.0001) %MON forcing_qsw_del2             =   0.0000000000000E+00
(PID.TID 0000.0001) %MON forcing_empmr_max            =   8.3243762105667E-05
(PID.TID 0000.0001) %MON forcing_empmr_min            =  -7.4169506092403E-05
(PID.TID 0000.0001) %MON forcing_empmr_mean           =   7.7639069592806E-07
(PID.TID 0000.0001) %MON forcing_empmr_sd             =   2.7794934142646E-05
(PID.TID 0000.0001) %MON forcing_empmr_del2           =   3.6436962197032E-07
(PID.TID 0000.0001) %MON forcing_fu_max               =   2.7488999068737E-01
(PID.TID 0000.0001) %MON forcing_fu_min               =  -1.6014087945223E-01
(PID.TID 0000.0001) %MON forcing_fu_mean              =   1.6117127468124E-02
(PID.TID 0000.0001) %MON forcing_fu_sd                =   9.0153154829689E-02
(PID.TID 0000.0001) %MON forcing_fu_del2              =   6.5365667764058E-04
(PID.TID 0000.0001) %MON forcing_fv_max               =   2.0835298299789E-01
(PID.TID 0000.0001) %MON forcing_fv_min               =  -1.8690676242113E-01
(PID.TID 0000.0001) %MON forcing_fv_mean              =  -6.3653356424171E-03
(PID.TID 0000.0001) %MON forcing_fv_sd                =   4.5157892194461E-02
(PID.TID 0000.0001) %MON forcing_fv_del2              =   4.4595114894327E-04
(PID.TID 0000.0001) %MON advcfl_uvel_max              =   4.3816506584931E-02
(PID.TID 0000.0001) %MON advcfl_vvel_max              =   2.5827526010032E-02
(PID.TID 0000.0001) %MON advcfl_wvel_max              =   1.9834590326829E-02
(PID.TID 0000.0001) %MON advcfl_W_hf_max              =   2.3800094985147E-02
(PID.TID 0000.0001) %MON pe_b_mean                    =   4.7905978021992E-04
(PID.TID 0000.0001) %MON ke_max                       =   1.8569411710240E-02
(PID.TID 0000.0001) %MON ke_mean                      =   8.6597859318095E-05
(PID.TID 0000.0001) %MON ke_vol                       =   1.3226782436728E+18
(PID.TID 0000.0001) %MON vort_r_min                   =  -4.0013178029481E-07
(PID.TID 0000.0001) %MON vort_r_max                   =   4.6497885749965E-07
(PID.TID 0000.0001) %MON vort_a_mean                  =  -2.5274807088700E-05
(PID.TID 0000.0001) %MON vort_a_sd                    =   7.3604636879463E-05
(PID.TID 0000.0001) %MON vort_p_mean                  =  -3.1845610913372E-05
(PID.TID 0000.0001) %MON vort_p_sd                    =   1.3163812456163E-04
(PID.TID 0000.0001) %MON surfExpan_theta_mean         =   6.8736674456140E-08
(PID.TID 0000.0001) %MON surfExpan_salt_mean          =   1.2740187918837E-08
(PID.TID 0000.0001) // =======================================================
(PID.TID 0000.0001) // End MONITOR dynamic field statistics
(PID.TID 0000.0001) // =======================================================
 EXTERNAL_FIELDS_LOAD,     36001 : iP,iLd,i0,i1=   12    1   12    1 ; Wght=  0.4666666667  0.5333333333
 cg2d: Sum(rhs),rhsMax =   6.89776361415090E-03  2.75584599126260E+00
(PID.TID 0000.0001)                    cg2d_init_res =    2.52342729816942E-02
(PID.TID 0000.0001)                       cg2d_iters =   122
(PID.TID 0000.0001)                         cg2d_res =    8.70624327776979E-14
(PID.TID 0000.0001) // =======================================================
(PID.TID 0000.0001) // Begin MONITOR dynamic field statistics
(PID.TID 0000.0001) // =======================================================
(PID.TID 0000.0001) %MON time_tsnumber                =                 36002
(PID.TID 0000.0001) %MON time_secondsf                =   3.1105728000000E+09
(PID.TID 0000.0001) %MON dynstat_eta_max              =   9.6642828961641E-01
(PID.TID 0000.0001) %MON dynstat_eta_min              =  -1.6641679763305E+00
(PID.TID 0000.0001) %MON dynstat_eta_mean             =  -1.3043743564770E-04
(PID.TID 0000.0001) %MON dynstat_eta_sd               =   6.1190812789636E-01
(PID.TID 0000.0001) %MON dynstat_eta_del2             =   2.6583304773208E-03
(PID.TID 0000.0001) %MON dynstat_uvel_max             =   1.4442080719138E-01
(PID.TID 0000.0001) %MON dynstat_uvel_min             =  -1.9187641086326E-01
(PID.TID 0000.0001) %MON dynstat_uvel_mean            =   2.1597415524624E-03
(PID.TID 0000.0001) %MON dynstat_uvel_sd              =   1.2217274370804E-02
(PID.TID 0000.0001) %MON dynstat_uvel_del2            =   7.5274826506001E-05
(PID.TID 0000.0001) %MON dynstat_vvel_max             =   1.2230641454054E-01
(PID.TID 0000.0001) %MON dynstat_vvel_min             =  -1.3265383459410E-01
(PID.TID 0000.0001) %MON dynstat_vvel_mean            =   5.5662331023774E-07
(PID.TID 0000.0001) %MON dynstat_vvel_sd              =   6.0732369594774E-03
(PID.TID 0000.0001) %MON dynstat_vvel_del2            =   5.6144551983045E-05
(PID.TID 0000.0001) %MON dynstat_wvel_max             =   2.3603614209113E-05
(PID.TID 0000.0001) %MON dynstat_wvel_min             =  -4.8965996503496E-05
(PID.TID 0000.0001) %MON dynstat_wvel_mean            =   4.4271491201676E-10
(PID.TID 0000.0001) %MON dynstat_wvel_sd              =   1.6894957156963E-06
(PID.TID 0000.0001) %MON dynstat_wvel_del2            =   1.9992206070810E-08
(PID.TID 0000.0001) %MON dynstat_theta_max            =   3.0440968540686E+01
(PID.TID 0000.0001) %MON dynstat_theta_min            =  -2.6412623751333E+00
(PID.TID 0000.0001) %MON dynstat_theta_mean           =   3.9389823676907E+00
(PID.TID 0000.0001) %MON dynstat_theta_sd             =   4.5462824565095E+00
(PID.TID 0000.0001) %MON dynstat_theta_del2           =   5.6655456398802E-03
(PID.TID 0000.0001) %MON dynstat_salt_max             =   3.7496552608272E+01
(PID.TID 0000.0001) %MON dynstat_salt_min             =   2.9583511492023E+01
(PID.TID 0000.0001) %MON dynstat_salt_mean            =   3.4731870914939E+01
(PID.TID 0000.0001) %MON dynstat_salt_sd              =   2.9657150378316E-01
(PID.TID 0000.0001) %MON dynstat_salt_del2            =   1.0350850252574E-03
(PID.TID 0000.0001) %MON forcing_qnet_max             =   4.2693899536133E+02
(PID.TID 0000.0001) %MON forcing_qnet_min             =  -1.8655982259115E+02
(PID.TID 0000.0001) %MON forcing_qnet_mean            =  -1.6687693382567E+01
(PID.TID 0000.0001) %MON forcing_qnet_sd              =   1.1263946608433E+02
(PID.TID 0000.0001) %MON forcing_qnet_del2            =   9.9183674388333E-01
(PID.TID 0000.0001) %MON forcing_qsw_max              =   0.0000000000000E+00
(PID.TID 0000.0001) %MON forcing_qsw_min              =   0.0000000000000E+00
(PID.TID 0000.0001) %MON forcing_qsw_mean             =   0.0000000000000E+00
(PID.TID 0000.0001) %MON forcing_qsw_sd               =   0.0000000000000E+00
(PID.TID 0000.0001) %MON forcing_qsw_del2             =   0.0000000000000E+00
(PID.TID 0000.0001) %MON forcing_empmr_max            =   8.2987928351486E-05
(PID.TID 0000.0001) %MON forcing_empmr_min            =  -7.3906322484163E-05
(PID.TID 0000.0001) %MON forcing_empmr_mean           =   7.8616045367356E-07
(PID.TID 0000.0001) %MON forcing_empmr_sd             =   2.7832317986922E-05
(PID.TID 0000.0001) %MON forcing_empmr_del2           =   3.6378785899555E-07
(PID.TID 0000.0001) %MON forcing_fu_max               =   2.7403144240379E-01
(PID.TID 0000.0001) %MON forcing_fu_min               =  -1.5949268937111E-01
(PID.TID 0000.0001) %MON forcing_fu_mean              =   1.6109434647086E-02
(PID.TID 0000.0001) %MON forcing_fu_sd                =   9.0138031840955E-02
(PID.TID 0000.0001) %MON forcing_fu_del2              =   6.5488191036968E-04
(PID.TID 0000.0001) %MON forcing_fv_max               =   2.0882657567660E-01
(PID.TID 0000.0001) %MON forcing_fv_min               =  -1.8632210493088E-01
(PID.TID 0000.0001) %MON forcing_fv_mean              =  -6.2915731155563E-03
(PID.TID 0000.0001) %MON forcing_fv_sd                =   4.5261152700224E-02
(PID.TID 0000.0001) %MON forcing_fv_del2              =   4.4588571962377E-04
(PID.TID 0000.0001) %MON advcfl_uvel_max              =   4.3811373347754E-02
(PID.TID 0000.0001) %MON advcfl_vvel_max              =   2.5772512549909E-02
(PID.TID 0000.0001) %MON advcfl_wvel_max              =   1.9593431497750E-02
(PID.TID 0000.0001) %MON advcfl_W_hf_max              =   2.3510725545438E-02
(PID.TID 0000.0001) %MON pe_b_mean                    =   4.7913033833101E-04
(PID.TID 0000.0001) %MON ke_max                       =   1.8409137203830E-02
(PID.TID 0000.0001) %MON ke_mean                      =   8.6489977996418E-05
(PID.TID 0000.0001) %MON ke_vol                       =   1.3226782213088E+18
(PID.TID 0000.0001) %MON vort_r_min                   =  -3.9878097770187E-07
(PID.TID 0000.0001) %MON vort_r_max                   =   4.6237562219415E-07
(PID.TID 0000.0001) %MON vort_a_mean                  =  -2.5274807089442E-05
(PID.TID 0000.0001) %MON vort_a_sd                    =   7.3604636677222E-05
(PID.TID 0000.0001) %MON vort_p_mean                  =  -3.1845611416746E-05
(PID.TID 0000.0001) %MON vort_p_sd                    =   1.3163812918407E-04
(PID.TID 0000.0001) %MON surfExpan_theta_mean         =   6.1944240745459E-08
(PID.TID 0000.0001) %MON surfExpan_salt_mean          =   1.2637909608335E-08
(PID.TID 0000.0001) // =======================================================
(PID.TID 0000.0001) // End MONITOR dynamic field statistics
(PID.TID 0000.0001) // =======================================================
 EXTERNAL_FIELDS_LOAD,     36002 : iP,iLd,i0,i1=   12    1   12    1 ; Wght=  0.4333333333  0.5666666667
 cg2d: Sum(rhs),rhsMax =   1.04119887109534E-02  2.75568507780575E+00
(PID.TID 0000.0001)                    cg2d_init_res =    1.75829981429716E-02
(PID.TID 0000.0001)                       cg2d_iters =   119
(PID.TID 0000.0001)                         cg2d_res =    8.97729037889066E-14
(PID.TID 0000.0001) // =======================================================
(PID.TID 0000.0001) // Begin MONITOR dynamic field statistics
(PID.TID 0000.0001) // =======================================================
(PID.TID 0000.0001) %MON time_tsnumber                =                 36003
(PID.TID 0000.0001) %MON time_secondsf                =   3.1106592000000E+09
(PID.TID 0000.0001) %MON dynstat_eta_max              =   9.6534379425937E-01
(PID.TID 0000.0001) %MON dynstat_eta_min              =  -1.6633996149157E+00
(PID.TID 0000.0001) %MON dynstat_eta_mean             =  -1.9688030547071E-04
(PID.TID 0000.0001) %MON dynstat_eta_sd               =   6.1179349589037E-01
(PID.TID 0000.0001) %MON dynstat_eta_del2             =   2.6576615371286E-03
(PID.TID 0000.0001) %MON dynstat_uvel_max             =   1.4420436591098E-01
(PID.TID 0000.0001) %MON dynstat_uvel_min             =  -1.9111855369398E-01
(PID.TID 0000.0001) %MON dynstat_uvel_mean            =   2.1577510003906E-03
(PID.TID 0000.0001) %MON dynstat_uvel_sd              =   1.2208626474595E-02
(PID.TID 0000.0001) %MON dynstat_uvel_del2            =   7.5207984036184E-05
(PID.TID 0000.0001) %MON dynstat_vvel_max             =   1.2226949459671E-01
(PID.TID 0000.0001) %MON dynstat_vvel_min             =  -1.3234894599174E-01
(PID.TID 0000.0001) %MON dynstat_vvel_mean            =  -1.2865771266253E-07
(PID.TID 0000.0001) %MON dynstat_vvel_sd              =   6.0686506637052E-03
(PID.TID 0000.0001) %MON dynstat_vvel_del2            =   5.6066891022282E-05
(PID.TID 0000.0001) %MON dynstat_wvel_max             =   2.3671784248492E-05
(PID.TID 0000.0001) %MON dynstat_wvel_min             =  -4.8783011767030E-05
(PID.TID 0000.0001) %MON dynstat_wvel_mean            =   4.0674767116499E-10
(PID.TID 0000.0001) %MON dynstat_wvel_sd              =   1.6989417324824E-06
(PID.TID 0000.0001) %MON dynstat_wvel_del2            =   2.0136133455421E-08
(PID.TID 0000.0001) %MON dynstat_theta_max            =   3.0442634177833E+01
(PID.TID 0000.0001) %MON dynstat_theta_min            =  -2.6414832738890E+00
(PID.TID 0000.0001) %MON dynstat_theta_mean           =   3.9390712723543E+00
(PID.TID 0000.0001) %MON dynstat_theta_sd             =   4.5463530287297E+00
(PID.TID 0000.0001) %MON dynstat_theta_del2           =   5.6625033871915E-03
(PID.TID 0000.0001) %MON dynstat_salt_max             =   3.7495823376521E+01
(PID.TID 0000.0001) %MON dynstat_salt_min             =   2.9585051787264E+01
(PID.TID 0000.0001) %MON dynstat_salt_mean            =   3.4731872414465E+01
(PID.TID 0000.0001) %MON dynstat_salt_sd              =   2.9656458799519E-01
(PID.TID 0000.0001) %MON dynstat_salt_del2            =   1.0340836398724E-03
(PID.TID 0000.0001) %MON forcing_qnet_max             =   4.2798718261719E+02
(PID.TID 0000.0001) %MON forcing_qnet_min             =  -1.8609266001383E+02
(PID.TID 0000.0001) %MON forcing_qnet_mean            =  -1.6675181426744E+01
(PID.TID 0000.0001) %MON forcing_qnet_sd              =   1.1242481361476E+02
(PID.TID 0000.0001) %MON forcing_qnet_del2            =   9.9305199082959E-01
(PID.TID 0000.0001) %MON forcing_qsw_max              =   0.0000000000000E+00
(PID.TID 0000.0001) %MON forcing_qsw_min              =   0.0000000000000E+00
(PID.TID 0000.0001) %MON forcing_qsw_mean             =   0.0000000000000E+00
(PID.TID 0000.0001) %MON forcing_qsw_sd               =   0.0000000000000E+00
(PID.TID 0000.0001) %MON forcing_qsw_del2             =   0.0000000000000E+00
(PID.TID 0000.0001) %MON forcing_empmr_max            =   8.2732094597304E-05
(PID.TID 0000.0001) %MON forcing_empmr_min            =  -7.3643138875923E-05
(PID.TID 0000.0001) %MON forcing_empmr_mean           =   7.9593021141906E-07
(PID.TID 0000.0001) %MON forcing_empmr_sd             =   2.7874041013016E-05
(PID.TID 0000.0001) %MON forcing_empmr_del2           =   3.6331922792719E-07
(PID.TID 0000.0001) %MON forcing_fu_max               =   2.7317289412022E-01
(PID.TID 0000.0001) %MON forcing_fu_min               =  -1.6030610948801E-01
(PID.TID 0000.0001) %MON forcing_fu_mean              =   1.6101741826049E-02
(PID.TID 0000.0001) %MON forcing_fu_sd                =   9.0133772222350E-02
(PID.TID 0000.0001) %MON forcing_fu_del2              =   6.5664222090357E-04
(PID.TID 0000.0001) %MON forcing_fv_max               =   2.0930016835531E-01
(PID.TID 0000.0001) %MON forcing_fv_min               =  -1.8573744744062E-01
(PID.TID 0000.0001) %MON forcing_fv_mean              =  -6.2178105886955E-03
(PID.TID 0000.0001) %MON forcing_fv_sd                =   4.5379778517573E-02
(PID.TID 0000.0001) %MON forcing_fv_del2              =   4.4636987924417E-04
(PID.TID 0000.0001) %MON advcfl_uvel_max              =   4.3791497321481E-02
(PID.TID 0000.0001) %MON advcfl_vvel_max              =   2.5713277584295E-02
(PID.TID 0000.0001) %MON advcfl_wvel_max              =   1.9393869915229E-02
(PID.TID 0000.0001) %MON advcfl_W_hf_max              =   2.3215400840006E-02
(PID.TID 0000.0001) %MON pe_b_mean                    =   4.7895087511106E-04
(PID.TID 0000.0001) %MON ke_max                       =   1.8246881799998E-02
(PID.TID 0000.0001) %MON ke_mean                      =   8.6365107030475E-05
(PID.TID 0000.0001) %MON ke_vol                       =   1.3226781986633E+18
(PID.TID 0000.0001) %MON vort_r_min                   =  -3.9740265788494E-07
(PID.TID 0000.0001) %MON vort_r_max                   =   4.5974451389273E-07
(PID.TID 0000.0001) %MON vort_a_mean                  =  -2.5274807089272E-05
(PID.TID 0000.0001) %MON vort_a_sd                    =   7.3604636578543E-05
(PID.TID 0000.0001) %MON vort_p_mean                  =  -3.1845611994643E-05
(PID.TID 0000.0001) %MON vort_p_sd                    =   1.3163812897634E-04
(PID.TID 0000.0001) %MON surfExpan_theta_mean         =   5.9031545240818E-08
(PID.TID 0000.0001) %MON surfExpan_salt_mean          =   1.2513136832601E-08
(PID.TID 0000.0001) // =======================================================
(PID.TID 0000.0001) // End MONITOR dynamic field statistics
(PID.TID 0000.0001) // =======================================================
 EXTERNAL_FIELDS_LOAD,     36003 : iP,iLd,i0,i1=   12    1   12    1 ; Wght=  0.4000000000  0.6000000000
 cg2d: Sum(rhs),rhsMax =   1.39670062057015E-02  2.75606699605686E+00
(PID.TID 0000.0001)                    cg2d_init_res =    1.59468238167982E-02
(PID.TID 0000.0001)                       cg2d_iters =   118
(PID.TID 0000.0001)                         cg2d_res =    9.51016953740747E-14
(PID.TID 0000.0001) // =======================================================
(PID.TID 0000.0001) // Begin MONITOR dynamic field statistics
(PID.TID 0000.0001) // =======================================================
(PID.TID 0000.0001) %MON time_tsnumber                =                 36004
(PID.TID 0000.0001) %MON time_secondsf                =   3.1107456000000E+09
(PID.TID 0000.0001) %MON dynstat_eta_max              =   9.6441142343293E-01
(PID.TID 0000.0001) %MON dynstat_eta_min              =  -1.6625901884095E+00
(PID.TID 0000.0001) %MON dynstat_eta_mean             =  -2.6413873767905E-04
(PID.TID 0000.0001) %MON dynstat_eta_sd               =   6.1160551789487E-01
(PID.TID 0000.0001) %MON dynstat_eta_del2             =   2.6573599076476E-03
(PID.TID 0000.0001) %MON dynstat_uvel_max             =   1.4398552900736E-01
(PID.TID 0000.0001) %MON dynstat_uvel_min             =  -1.9034682809608E-01
(PID.TID 0000.0001) %MON dynstat_uvel_mean            =   2.1559609185529E-03
(PID.TID 0000.0001) %MON dynstat_uvel_sd              =   1.2198717150165E-02
(PID.TID 0000.0001) %MON dynstat_uvel_del2            =   7.5130315678117E-05
(PID.TID 0000.0001) %MON dynstat_vvel_max             =   1.2221182891843E-01
(PID.TID 0000.0001) %MON dynstat_vvel_min             =  -1.3202225514240E-01
(PID.TID 0000.0001) %MON dynstat_vvel_mean            =  -8.4461995470814E-07
(PID.TID 0000.0001) %MON dynstat_vvel_sd              =   6.0639996212419E-03
(PID.TID 0000.0001) %MON dynstat_vvel_del2            =   5.5986408878235E-05
(PID.TID 0000.0001) %MON dynstat_wvel_max             =   2.3753163343521E-05
(PID.TID 0000.0001) %MON dynstat_wvel_min             =  -4.8587724984573E-05
(PID.TID 0000.0001) %MON dynstat_wvel_mean            =   3.7835789596273E-10
(PID.TID 0000.0001) %MON dynstat_wvel_sd              =   1.7072672859444E-06
(PID.TID 0000.0001) %MON dynstat_wvel_del2            =   2.0246737229490E-08
(PID.TID 0000.0001) %MON dynstat_theta_max            =   3.0443778879171E+01
(PID.TID 0000.0001) %MON dynstat_theta_min            =  -2.6417096845860E+00
(PID.TID 0000.0001) %MON dynstat_theta_mean           =   3.9391604148266E+00
(PID.TID 0000.0001) %MON dynstat_theta_sd             =   4.5464282845756E+00
(PID.TID 0000.0001) %MON dynstat_theta_del2           =   5.6584397278316E-03
(PID.TID 0000.0001) %MON dynstat_salt_max             =   3.7495077736816E+01
(PID.TID 0000.0001) %MON dynstat_salt_min             =   2.9586604643758E+01
(PID.TID 0000.0001) %MON dynstat_salt_mean            =   3.4731873939823E+01
(PID.TID 0000.0001) %MON dynstat_salt_sd              =   2.9655647828759E-01
(PID.TID 0000.0001) %MON dynstat_salt_del2            =   1.0329705906573E-03
(PID.TID 0000.0001) %MON forcing_qnet_max             =   4.2903536987305E+02
(PID.TID 0000.0001) %MON forcing_qnet_min             =  -1.8562549743652E+02
(PID.TID 0000.0001) %MON forcing_qnet_mean            =  -1.6662669470921E+01
(PID.TID 0000.0001) %MON forcing_qnet_sd              =   1.1221272517031E+02
(PID.TID 0000.0001) %MON forcing_qnet_del2            =   9.9444386812388E-01
(PID.TID 0000.0001) %MON forcing_qsw_max              =   0.0000000000000E+00
(PID.TID 0000.0001) %MON forcing_qsw_min              =   0.0000000000000E+00
(PID.TID 0000.0001) %MON forcing_qsw_mean             =   0.0000000000000E+00
(PID.TID 0000.0001) %MON forcing_qsw_sd               =   0.0000000000000E+00
(PID.TID 0000.0001) %MON forcing_qsw_del2             =   0.0000000000000E+00
(PID.TID 0000.0001) %MON forcing_empmr_max            =   8.2476260843123E-05
(PID.TID 0000.0001) %MON forcing_empmr_min            =  -7.3379955267683E-05
(PID.TID 0000.0001) %MON forcing_empmr_mean           =   8.0569996916457E-07
(PID.TID 0000.0001) %MON forcing_empmr_sd             =   2.7920083767862E-05
(PID.TID 0000.0001) %MON forcing_empmr_del2           =   3.6296416696684E-07
(PID.TID 0000.0001) %MON forcing_fu_max               =   2.7231434583664E-01
(PID.TID 0000.0001) %MON forcing_fu_min               =  -1.6111952960491E-01
(PID.TID 0000.0001) %MON forcing_fu_mean              =   1.6094049005012E-02
(PID.TID 0000.0001) %MON forcing_fu_sd                =   9.0140377513934E-02
(PID.TID 0000.0001) %MON forcing_fu_del2              =   6.5893332094781E-04
(PID.TID 0000.0001) %MON forcing_fv_max               =   2.1056245863438E-01
(PID.TID 0000.0001) %MON forcing_fv_min               =  -1.8515278995037E-01
(PID.TID 0000.0001) %MON forcing_fv_mean              =  -6.1440480618347E-03
(PID.TID 0000.0001) %MON forcing_fv_sd                =   4.5513649503191E-02
(PID.TID 0000.0001) %MON forcing_fv_del2              =   4.4740184358134E-04
(PID.TID 0000.0001) %MON advcfl_uvel_max              =   4.3759357959454E-02
(PID.TID 0000.0001) %MON advcfl_vvel_max              =   2.5649806791760E-02
(PID.TID 0000.0001) %MON advcfl_wvel_max              =   1.9333487152510E-02
(PID.TID 0000.0001) %MON advcfl_W_hf_max              =   2.2914672991139E-02
(PID.TID 0000.0001) %MON pe_b_mean                    =   4.7865664606179E-04
(PID.TID 0000.0001) %MON ke_max                       =   1.8082855236756E-02
(PID.TID 0000.0001) %MON ke_mean                      =   8.6226384642462E-05
(PID.TID 0000.0001) %MON ke_vol                       =   1.3226781757365E+18
(PID.TID 0000.0001) %MON vort_r_min                   =  -3.9597498939129E-07
(PID.TID 0000.0001) %MON vort_r_max                   =   4.5708927586494E-07
(PID.TID 0000.0001) %MON vort_a_mean                  =  -2.5274807090363E-05
(PID.TID 0000.0001) %MON vort_a_sd                    =   7.3604636518154E-05
(PID.TID 0000.0001) %MON vort_p_mean                  =  -3.1845612572140E-05
(PID.TID 0000.0001) %MON vort_p_sd                    =   1.3163812417078E-04
(PID.TID 0000.0001) %MON surfExpan_theta_mean         =   5.7172528861686E-08
(PID.TID 0000.0001) %MON surfExpan_salt_mean          =   1.2360885033327E-08
(PID.TID 0000.0001) // =======================================================
(PID.TID 0000.0001) // End MONITOR dynamic field statistics
(PID.TID 0000.0001) // =======================================================
 EXTERNAL_FIELDS_LOAD,     36004 : iP,iLd,i0,i1=   12    1   12    1 ; Wght=  0.3666666667  0.6333333333
 cg2d: Sum(rhs),rhsMax =   1.75642496264640E-02  2.75643446105039E+00
(PID.TID 0000.0001)                    cg2d_init_res =    1.62062651837005E-02
(PID.TID 0000.0001)                       cg2d_iters =   118
(PID.TID 0000.0001)                         cg2d_res =    9.31706010448739E-14
(PID.TID 0000.0001) // =======================================================
(PID.TID 0000.0001) // Begin MONITOR dynamic field statistics
(PID.TID 0000.0001) // =======================================================
(PID.TID 0000.0001) %MON time_tsnumber                =                 36005
(PID.TID 0000.0001) %MON time_secondsf                =   3.1108320000000E+09
(PID.TID 0000.0001) %MON dynstat_eta_max              =   9.6339498748607E-01
(PID.TID 0000.0001) %MON dynstat_eta_min              =  -1.6617193607337E+00
(PID.TID 0000.0001) %MON dynstat_eta_mean             =  -3.3221273227323E-04
(PID.TID 0000.0001) %MON dynstat_eta_sd               =   6.1139994149897E-01
(PID.TID 0000.0001) %MON dynstat_eta_del2             =   2.6572611070881E-03
(PID.TID 0000.0001) %MON dynstat_uvel_max             =   1.4376792990995E-01
(PID.TID 0000.0001) %MON dynstat_uvel_min             =  -1.8956172931998E-01
(PID.TID 0000.0001) %MON dynstat_uvel_mean            =   2.1542608330646E-03
(PID.TID 0000.0001) %MON dynstat_uvel_sd              =   1.2187872694053E-02
(PID.TID 0000.0001) %MON dynstat_uvel_del2            =   7.5043819370437E-05
(PID.TID 0000.0001) %MON dynstat_vvel_max             =   1.2213421678248E-01
(PID.TID 0000.0001) %MON dynstat_vvel_min             =  -1.3167308880858E-01
(PID.TID 0000.0001) %MON dynstat_vvel_mean            =  -1.4645187531115E-06
(PID.TID 0000.0001) %MON dynstat_vvel_sd              =   6.0593182452364E-03
(PID.TID 0000.0001) %MON dynstat_vvel_del2            =   5.5903099290734E-05
(PID.TID 0000.0001) %MON dynstat_wvel_max             =   2.3844886030320E-05
(PID.TID 0000.0001) %MON dynstat_wvel_min             =  -4.8377368983376E-05
(PID.TID 0000.0001) %MON dynstat_wvel_mean            =   3.6068122832902E-10
(PID.TID 0000.0001) %MON dynstat_wvel_sd              =   1.7132721300890E-06
(PID.TID 0000.0001) %MON dynstat_wvel_del2            =   2.0303697540733E-08
(PID.TID 0000.0001) %MON dynstat_theta_max            =   3.0444405979070E+01
(PID.TID 0000.0001) %MON dynstat_theta_min            =  -2.6441265022643E+00
(PID.TID 0000.0001) %MON dynstat_theta_mean           =   3.9392498497040E+00
(PID.TID 0000.0001) %MON dynstat_theta_sd             =   4.5465081631721E+00
(PID.TID 0000.0001) %MON dynstat_theta_del2           =   5.6560930597680E-03
(PID.TID 0000.0001) %MON dynstat_salt_max             =   3.7494318811253E+01
(PID.TID 0000.0001) %MON dynstat_salt_min             =   2.9588170388606E+01
(PID.TID 0000.0001) %MON dynstat_salt_mean            =   3.4731875490631E+01
(PID.TID 0000.0001) %MON dynstat_salt_sd              =   2.9654697449737E-01
(PID.TID 0000.0001) %MON dynstat_salt_del2            =   1.0321402217199E-03
(PID.TID 0000.0001) %MON forcing_qnet_max             =   4.3008355712891E+02
(PID.TID 0000.0001) %MON forcing_qnet_min             =  -1.8515833485921E+02
(PID.TID 0000.0001) %MON forcing_qnet_mean            =  -1.6650157515098E+01
(PID.TID 0000.0001) %MON forcing_qnet_sd              =   1.1200321531664E+02
(PID.TID 0000.0001) %MON forcing_qnet_del2            =   9.9601163526981E-01
(PID.TID 0000.0001) %MON forcing_qsw_max              =   0.0000000000000E+00
(PID.TID 0000.0001) %MON forcing_qsw_min              =   0.0000000000000E+00
(PID.TID 0000.0001) %MON forcing_qsw_mean             =   0.0000000000000E+00
(PID.TID 0000.0001) %MON forcing_qsw_sd               =   0.0000000000000E+00
(PID.TID 0000.0001) %MON forcing_qsw_del2             =   0.0000000000000E+00
(PID.TID 0000.0001) %MON forcing_empmr_max            =   8.2220427088942E-05
(PID.TID 0000.0001) %MON forcing_empmr_min            =  -7.3116771659443E-05
(PID.TID 0000.0001) %MON forcing_empmr_mean           =   8.1546972691007E-07
(PID.TID 0000.0001) %MON forcing_empmr_sd             =   2.7970424919056E-05
(PID.TID 0000.0001) %MON forcing_empmr_del2           =   3.6272300962791E-07
(PID.TID 0000.0001) %MON forcing_fu_max               =   2.7145579755306E-01
(PID.TID 0000.0001) %MON forcing_fu_min               =  -1.6193294972181E-01
(PID.TID 0000.0001) %MON forcing_fu_mean              =   1.6086356183975E-02
(PID.TID 0000.0001) %MON forcing_fu_sd                =   9.0157845327697E-02
(PID.TID 0000.0001) %MON forcing_fu_del2              =   6.6174969745051E-04
(PID.TID 0000.0001) %MON forcing_fv_max               =   2.1244236379862E-01
(PID.TID 0000.0001) %MON forcing_fv_min               =  -1.8456813246012E-01
(PID.TID 0000.0001) %MON forcing_fv_mean              =  -6.0702855349739E-03
(PID.TID 0000.0001) %MON forcing_fv_sd                =   4.5662631572644E-02
(PID.TID 0000.0001) %MON forcing_fv_del2              =   4.4897783530480E-04
(PID.TID 0000.0001) %MON advcfl_uvel_max              =   4.3716329064613E-02
(PID.TID 0000.0001) %MON advcfl_vvel_max              =   2.5581969373054E-02
(PID.TID 0000.0001) %MON advcfl_wvel_max              =   1.9284845524470E-02
(PID.TID 0000.0001) %MON advcfl_W_hf_max              =   2.2608850180601E-02
(PID.TID 0000.0001) %MON pe_b_mean                    =   4.7833498284213E-04
(PID.TID 0000.0001) %MON ke_max                       =   1.7917263401875E-02
(PID.TID 0000.0001) %MON ke_mean                      =   8.6077429040826E-05
(PID.TID 0000.0001) %MON ke_vol                       =   1.3226781525282E+18
(PID.TID 0000.0001) %MON vort_r_min                   =  -3.9450422879609E-07
(PID.TID 0000.0001) %MON vort_r_max                   =   4.5793247467481E-07
(PID.TID 0000.0001) %MON vort_a_mean                  =  -2.5274807088600E-05
(PID.TID 0000.0001) %MON vort_a_sd                    =   7.3604636516970E-05
(PID.TID 0000.0001) %MON vort_p_mean                  =  -3.1845613134932E-05
(PID.TID 0000.0001) %MON vort_p_sd                    =   1.3163811949054E-04
(PID.TID 0000.0001) %MON surfExpan_theta_mean         =   5.6206274267679E-08
(PID.TID 0000.0001) %MON surfExpan_salt_mean          =   1.2250020933055E-08
(PID.TID 0000.0001) // =======================================================
(PID.TID 0000.0001) // End MONITOR dynamic field statistics
(PID.TID 0000.0001) // =======================================================
 EXTERNAL_FIELDS_LOAD,     36005 : iP,iLd,i0,i1=   12    1   12    1 ; Wght=  0.3333333333  0.6666666667
 cg2d: Sum(rhs),rhsMax =   2.12025111452899E-02  2.75694967769662E+00
(PID.TID 0000.0001)                    cg2d_init_res =    1.64846796088704E-02
(PID.TID 0000.0001)                       cg2d_iters =   119
(PID.TID 0000.0001)                         cg2d_res =    8.05910105993475E-14
(PID.TID 0000.0001) // =======================================================
(PID.TID 0000.0001) // Begin MONITOR dynamic field statistics
(PID.TID 0000.0001) // =======================================================
(PID.TID 0000.0001) %MON time_tsnumber                =                 36006
(PID.TID 0000.0001) %MON time_secondsf                =   3.1109184000000E+09
(PID.TID 0000.0001) %MON dynstat_eta_max              =   9.6227573046797E-01
(PID.TID 0000.0001) %MON dynstat_eta_min              =  -1.6608556004753E+00
(PID.TID 0000.0001) %MON dynstat_eta_mean             =  -4.0110228925311E-04
(PID.TID 0000.0001) %MON dynstat_eta_sd               =   6.1119963376525E-01
(PID.TID 0000.0001) %MON dynstat_eta_del2             =   2.6571526248048E-03
(PID.TID 0000.0001) %MON dynstat_uvel_max             =   1.4355474477107E-01
(PID.TID 0000.0001) %MON dynstat_uvel_min             =  -1.8876377633494E-01
(PID.TID 0000.0001) %MON dynstat_uvel_mean            =   2.1525949285511E-03
(PID.TID 0000.0001) %MON dynstat_uvel_sd              =   1.2176479007260E-02
(PID.TID 0000.0001) %MON dynstat_uvel_del2            =   7.4950298146382E-05
(PID.TID 0000.0001) %MON dynstat_vvel_max             =   1.2203885332294E-01
(PID.TID 0000.0001) %MON dynstat_vvel_min             =  -1.3130114256941E-01
(PID.TID 0000.0001) %MON dynstat_vvel_mean            =  -1.9093364524792E-06
(PID.TID 0000.0001) %MON dynstat_vvel_sd              =   6.0546594811346E-03
(PID.TID 0000.0001) %MON dynstat_vvel_del2            =   5.5818759456558E-05
(PID.TID 0000.0001) %MON dynstat_wvel_max             =   2.3934073305217E-05
(PID.TID 0000.0001) %MON dynstat_wvel_min             =  -4.8167844082027E-05
(PID.TID 0000.0001) %MON dynstat_wvel_mean            =   3.5033833413244E-10
(PID.TID 0000.0001) %MON dynstat_wvel_sd              =   1.7161063945365E-06
(PID.TID 0000.0001) %MON dynstat_wvel_del2            =   2.0304964089741E-08
(PID.TID 0000.0001) %MON dynstat_theta_max            =   3.0444517655419E+01
(PID.TID 0000.0001) %MON dynstat_theta_min            =  -2.6443198817139E+00
(PID.TID 0000.0001) %MON dynstat_theta_mean           =   3.9393395388864E+00
(PID.TID 0000.0001) %MON dynstat_theta_sd             =   4.5465933835190E+00
(PID.TID 0000.0001) %MON dynstat_theta_del2           =   5.6523218613735E-03
(PID.TID 0000.0001) %MON dynstat_salt_max             =   3.7493549799923E+01
(PID.TID 0000.0001) %MON dynstat_salt_min             =   2.9589749315323E+01
(PID.TID 0000.0001) %MON dynstat_salt_mean            =   3.4731877071346E+01
(PID.TID 0000.0001) %MON dynstat_salt_sd              =   2.9653670475936E-01
(PID.TID 0000.0001) %MON dynstat_salt_del2            =   1.0307981190436E-03
(PID.TID 0000.0001) %MON forcing_qnet_max             =   4.3113174438477E+02
(PID.TID 0000.0001) %MON forcing_qnet_min             =  -1.8469117228190E+02
(PID.TID 0000.0001) %MON forcing_qnet_mean            =  -1.6637645559275E+01
(PID.TID 0000.0001) %MON forcing_qnet_sd              =   1.1179629855085E+02
(PID.TID 0000.0001) %MON forcing_qnet_del2            =   9.9775446314289E-01
(PID.TID 0000.0001) %MON forcing_qsw_max              =   0.0000000000000E+00
(PID.TID 0000.0001) %MON forcing_qsw_min              =   0.0000000000000E+00
(PID.TID 0000.0001) %MON forcing_qsw_mean             =   0.0000000000000E+00
(PID.TID 0000.0001) %MON forcing_qsw_sd               =   0.0000000000000E+00
(PID.TID 0000.0001) %MON forcing_qsw_del2             =   0.0000000000000E+00
(PID.TID 0000.0001) %MON forcing_empmr_max            =   8.1964593334760E-05
(PID.TID 0000.0001) %MON forcing_empmr_min            =  -7.2853588051203E-05
(PID.TID 0000.0001) %MON forcing_empmr_mean           =   8.2523948465558E-07
(PID.TID 0000.0001) %MON forcing_empmr_sd             =   2.8025041303087E-05
(PID.TID 0000.0001) %MON forcing_empmr_del2           =   3.6259598317743E-07
(PID.TID 0000.0001) %MON forcing_fu_max               =   2.7059724926949E-01
(PID.TID 0000.0001) %MON forcing_fu_min               =  -1.6274636983871E-01
(PID.TID 0000.0001) %MON forcing_fu_mean              =   1.6078663362938E-02
(PID.TID 0000.0001) %MON forcing_fu_sd                =   9.0186169351879E-02
(PID.TID 0000.0001) %MON forcing_fu_del2              =   6.6508467741693E-04
(PID.TID 0000.0001) %MON forcing_fv_max               =   2.1432226896286E-01
(PID.TID 0000.0001) %MON forcing_fv_min               =  -1.8398347496986E-01
(PID.TID 0000.0001) %MON forcing_fv_mean              =  -5.9965230081131E-03
(PID.TID 0000.0001) %MON forcing_fv_sd                =   4.5826577347902E-02
(PID.TID 0000.0001) %MON forcing_fv_del2              =   4.5109215240509E-04
(PID.TID 0000.0001) %MON advcfl_uvel_max              =   4.3664376831805E-02
(PID.TID 0000.0001) %MON advcfl_vvel_max              =   2.5509706184084E-02
(PID.TID 0000.0001) %MON advcfl_wvel_max              =   1.9250100888738E-02
(PID.TID 0000.0001) %MON advcfl_W_hf_max              =   2.2298213145133E-02
(PID.TID 0000.0001) %MON pe_b_mean                    =   4.7802168181119E-04
(PID.TID 0000.0001) %MON ke_max                       =   1.7750305088084E-02
(PID.TID 0000.0001) %MON ke_mean                      =   8.5922715689990E-05
(PID.TID 0000.0001) %MON ke_vol                       =   1.3226781290385E+18
(PID.TID 0000.0001) %MON vort_r_min                   =  -3.9300123136476E-07
(PID.TID 0000.0001) %MON vort_r_max                   =   4.5951717127255E-07
(PID.TID 0000.0001) %MON vort_a_mean                  =  -2.5274807090634E-05
(PID.TID 0000.0001) %MON vort_a_sd                    =   7.3604636489103E-05
(PID.TID 0000.0001) %MON vort_p_mean                  =  -3.1845613690505E-05
(PID.TID 0000.0001) %MON vort_p_sd                    =   1.3163811319234E-04
(PID.TID 0000.0001) %MON surfExpan_theta_mean         =   5.5865834987346E-08
(PID.TID 0000.0001) %MON surfExpan_salt_mean          =   1.2195546485568E-08
(PID.TID 0000.0001) // =======================================================
(PID.TID 0000.0001) // End MONITOR dynamic field statistics
(PID.TID 0000.0001) // =======================================================
 EXTERNAL_FIELDS_LOAD,     36006 : iP,iLd,i0,i1=   12    1   12    1 ; Wght=  0.3000000000  0.7000000000
 cg2d: Sum(rhs),rhsMax =   2.48814315815770E-02  2.75758509146060E+00
(PID.TID 0000.0001)                    cg2d_init_res =    1.70613062367071E-02
(PID.TID 0000.0001)                       cg2d_iters =   119
(PID.TID 0000.0001)                         cg2d_res =    8.27702159993310E-14
(PID.TID 0000.0001) // =======================================================
(PID.TID 0000.0001) // Begin MONITOR dynamic field statistics
(PID.TID 0000.0001) // =======================================================
(PID.TID 0000.0001) %MON time_tsnumber                =                 36007
(PID.TID 0000.0001) %MON time_secondsf                =   3.1110048000000E+09
(PID.TID 0000.0001) %MON dynstat_eta_max              =   9.6105861269108E-01
(PID.TID 0000.0001) %MON dynstat_eta_min              =  -1.6600066978713E+00
(PID.TID 0000.0001) %MON dynstat_eta_mean             =  -4.7080740861889E-04
(PID.TID 0000.0001) %MON dynstat_eta_sd               =   6.1100943946341E-01
(PID.TID 0000.0001) %MON dynstat_eta_del2             =   2.6570689341581E-03
(PID.TID 0000.0001) %MON dynstat_uvel_max             =   1.4334899319432E-01
(PID.TID 0000.0001) %MON dynstat_uvel_min             =  -1.8795347357233E-01
(PID.TID 0000.0001) %MON dynstat_uvel_mean            =   2.1509210049910E-03
(PID.TID 0000.0001) %MON dynstat_uvel_sd              =   1.2164942086126E-02
(PID.TID 0000.0001) %MON dynstat_uvel_del2            =   7.4852134355658E-05
(PID.TID 0000.0001) %MON dynstat_vvel_max             =   1.2192900154716E-01
(PID.TID 0000.0001) %MON dynstat_vvel_min             =  -1.3090671257792E-01
(PID.TID 0000.0001) %MON dynstat_vvel_mean            =  -2.1441263414930E-06
(PID.TID 0000.0001) %MON dynstat_vvel_sd              =   6.0500850780156E-03
(PID.TID 0000.0001) %MON dynstat_vvel_del2            =   5.5733995119769E-05
(PID.TID 0000.0001) %MON dynstat_wvel_max             =   2.4011132999879E-05
(PID.TID 0000.0001) %MON dynstat_wvel_min             =  -4.7964338263199E-05
(PID.TID 0000.0001) %MON dynstat_wvel_mean            =   3.4194624234015E-10
(PID.TID 0000.0001) %MON dynstat_wvel_sd              =   1.7159346358288E-06
(PID.TID 0000.0001) %MON dynstat_wvel_del2            =   2.0262765463127E-08
(PID.TID 0000.0001) %MON dynstat_theta_max            =   3.0444116525440E+01
(PID.TID 0000.0001) %MON dynstat_theta_min            =  -2.6431901749466E+00
(PID.TID 0000.0001) %MON dynstat_theta_mean           =   3.9394293647318E+00
(PID.TID 0000.0001) %MON dynstat_theta_sd             =   4.5466825903245E+00
(PID.TID 0000.0001) %MON dynstat_theta_del2           =   5.6496516146912E-03
(PID.TID 0000.0001) %MON dynstat_salt_max             =   3.7492773880702E+01
(PID.TID 0000.0001) %MON dynstat_salt_min             =   2.9591341697402E+01
(PID.TID 0000.0001) %MON dynstat_salt_mean            =   3.4731878666933E+01
(PID.TID 0000.0001) %MON dynstat_salt_sd              =   2.9652434853784E-01
(PID.TID 0000.0001) %MON dynstat_salt_del2            =   1.0300601838375E-03
(PID.TID 0000.0001) %MON forcing_qnet_max             =   4.3217993164063E+02
(PID.TID 0000.0001) %MON forcing_qnet_min             =  -1.8422400970459E+02
(PID.TID 0000.0001) %MON forcing_qnet_mean            =  -1.6625133603452E+01
(PID.TID 0000.0001) %MON forcing_qnet_sd              =   1.1159198929743E+02
(PID.TID 0000.0001) %MON forcing_qnet_del2            =   9.9967143614056E-01
(PID.TID 0000.0001) %MON forcing_qsw_max              =   0.0000000000000E+00
(PID.TID 0000.0001) %MON forcing_qsw_min              =   0.0000000000000E+00
(PID.TID 0000.0001) %MON forcing_qsw_mean             =   0.0000000000000E+00
(PID.TID 0000.0001) %MON forcing_qsw_sd               =   0.0000000000000E+00
(PID.TID 0000.0001) %MON forcing_qsw_del2             =   0.0000000000000E+00
(PID.TID 0000.0001) %MON forcing_empmr_max            =   8.1887607450426E-05
(PID.TID 0000.0001) %MON forcing_empmr_min            =  -7.2590404442963E-05
(PID.TID 0000.0001) %MON forcing_empmr_mean           =   8.3500924240108E-07
(PID.TID 0000.0001) %MON forcing_empmr_sd             =   2.8083907977094E-05
(PID.TID 0000.0001) %MON forcing_empmr_del2           =   3.6258320756835E-07
(PID.TID 0000.0001) %MON forcing_fu_max               =   2.6977391839027E-01
(PID.TID 0000.0001) %MON forcing_fu_min               =  -1.6355978995562E-01
(PID.TID 0000.0001) %MON forcing_fu_mean              =   1.6070970541901E-02
(PID.TID 0000.0001) %MON forcing_fu_sd                =   9.0225339362360E-02
(PID.TID 0000.0001) %MON forcing_fu_del2              =   6.6893050433667E-04
(PID.TID 0000.0001) %MON forcing_fv_max               =   2.1620217412710E-01
(PID.TID 0000.0001) %MON forcing_fv_min               =  -1.8339881747961E-01
(PID.TID 0000.0001) %MON forcing_fv_mean              =  -5.9227604812523E-03
(PID.TID 0000.0001) %MON forcing_fv_sd                =   4.6005326854092E-02
(PID.TID 0000.0001) %MON forcing_fv_del2              =   4.5373726950670E-04
(PID.TID 0000.0001) %MON advcfl_uvel_max              =   4.3605804451221E-02
(PID.TID 0000.0001) %MON advcfl_vvel_max              =   2.5433074762634E-02
(PID.TID 0000.0001) %MON advcfl_wvel_max              =   1.9228804745227E-02
(PID.TID 0000.0001) %MON advcfl_W_hf_max              =   2.1983030622016E-02
(PID.TID 0000.0001) %MON pe_b_mean                    =   4.7772431113412E-04
(PID.TID 0000.0001) %MON ke_max                       =   1.7582156233177E-02
(PID.TID 0000.0001) %MON ke_mean                      =   8.5767001452194E-05
(PID.TID 0000.0001) %MON ke_vol                       =   1.3226781052673E+18
(PID.TID 0000.0001) %MON vort_r_min                   =  -3.9146907937990E-07
(PID.TID 0000.0001) %MON vort_r_max                   =   4.6112150776996E-07
(PID.TID 0000.0001) %MON vort_a_mean                  =  -2.5274807087170E-05
(PID.TID 0000.0001) %MON vort_a_sd                    =   7.3604636516919E-05
(PID.TID 0000.0001) %MON vort_p_mean                  =  -3.1845614231510E-05
(PID.TID 0000.0001) %MON vort_p_sd                    =   1.3163811037959E-04
(PID.TID 0000.0001) %MON surfExpan_theta_mean         =   5.5853757829066E-08
(PID.TID 0000.0001) %MON surfExpan_salt_mean          =   1.2177072553331E-08
(PID.TID 0000.0001) // =======================================================
(PID.TID 0000.0001) // End MONITOR dynamic field statistics
(PID.TID 0000.0001) // =======================================================
 EXTERNAL_FIELDS_LOAD,     36007 : iP,iLd,i0,i1=   12    1   12    1 ; Wght=  0.2666666667  0.7333333333
 cg2d: Sum(rhs),rhsMax =   2.86009700786925E-02  2.75829555016543E+00
(PID.TID 0000.0001)                    cg2d_init_res =    1.73695737307827E-02
(PID.TID 0000.0001)                       cg2d_iters =   119
(PID.TID 0000.0001)                         cg2d_res =    9.60167342839014E-14
(PID.TID 0000.0001) // =======================================================
(PID.TID 0000.0001) // Begin MONITOR dynamic field statistics
(PID.TID 0000.0001) // =======================================================
(PID.TID 0000.0001) %MON time_tsnumber                =                 36008
(PID.TID 0000.0001) %MON time_secondsf                =   3.1110912000000E+09
(PID.TID 0000.0001) %MON dynstat_eta_max              =   9.5976334588285E-01
(PID.TID 0000.0001) %MON dynstat_eta_min              =  -1.6591668857931E+00
(PID.TID 0000.0001) %MON dynstat_eta_mean             =  -5.4132809037014E-04
(PID.TID 0000.0001) %MON dynstat_eta_sd               =   6.1082706585564E-01
(PID.TID 0000.0001) %MON dynstat_eta_del2             =   2.6569575396612E-03
(PID.TID 0000.0001) %MON dynstat_uvel_max             =   1.4315337657605E-01
(PID.TID 0000.0001) %MON dynstat_uvel_min             =  -1.8713122629041E-01
(PID.TID 0000.0001) %MON dynstat_uvel_mean            =   2.1492013466327E-03
(PID.TID 0000.0001) %MON dynstat_uvel_sd              =   1.2153655430854E-02
(PID.TID 0000.0001) %MON dynstat_uvel_del2            =   7.4751634278334E-05
(PID.TID 0000.0001) %MON dynstat_vvel_max             =   1.2180885165275E-01
(PID.TID 0000.0001) %MON dynstat_vvel_min             =  -1.3049048469934E-01
(PID.TID 0000.0001) %MON dynstat_vvel_mean            =  -2.1890092519462E-06
(PID.TID 0000.0001) %MON dynstat_vvel_sd              =   6.0456604775684E-03
(PID.TID 0000.0001) %MON dynstat_vvel_del2            =   5.5649851989115E-05
(PID.TID 0000.0001) %MON dynstat_wvel_max             =   2.4067194815603E-05
(PID.TID 0000.0001) %MON dynstat_wvel_min             =  -4.7826583625614E-05
(PID.TID 0000.0001) %MON dynstat_wvel_mean            =   3.3429217620113E-10
(PID.TID 0000.0001) %MON dynstat_wvel_sd              =   1.7130327579233E-06
(PID.TID 0000.0001) %MON dynstat_wvel_del2            =   2.0200125993500E-08
(PID.TID 0000.0001) %MON dynstat_theta_max            =   3.0443205690418E+01
(PID.TID 0000.0001) %MON dynstat_theta_min            =  -2.6430583849381E+00
(PID.TID 0000.0001) %MON dynstat_theta_mean           =   3.9395193721558E+00
(PID.TID 0000.0001) %MON dynstat_theta_sd             =   4.5467753589010E+00
(PID.TID 0000.0001) %MON dynstat_theta_del2           =   5.6494919898358E-03
(PID.TID 0000.0001) %MON dynstat_salt_max             =   3.7491994196300E+01
(PID.TID 0000.0001) %MON dynstat_salt_min             =   2.9592947767232E+01
(PID.TID 0000.0001) %MON dynstat_salt_mean            =   3.4731880289111E+01
(PID.TID 0000.0001) %MON dynstat_salt_sd              =   2.9650967037007E-01
(PID.TID 0000.0001) %MON dynstat_salt_del2            =   1.0332938462131E-03
(PID.TID 0000.0001) %MON forcing_qnet_max             =   4.3322811889648E+02
(PID.TID 0000.0001) %MON forcing_qnet_min             =  -1.8375684712728E+02
(PID.TID 0000.0001) %MON forcing_qnet_mean            =  -1.6612621647628E+01
(PID.TID 0000.0001) %MON forcing_qnet_sd              =   1.1139030190430E+02
(PID.TID 0000.0001) %MON forcing_qnet_del2            =   1.0017615545299E+00
(PID.TID 0000.0001) %MON forcing_qsw_max              =   0.0000000000000E+00
(PID.TID 0000.0001) %MON forcing_qsw_min              =   0.0000000000000E+00
(PID.TID 0000.0001) %MON forcing_qsw_mean             =   0.0000000000000E+00
(PID.TID 0000.0001) %MON forcing_qsw_sd               =   0.0000000000000E+00
(PID.TID 0000.0001) %MON forcing_qsw_del2             =   0.0000000000000E+00
(PID.TID 0000.0001) %MON forcing_empmr_max            =   8.1889273909989E-05
(PID.TID 0000.0001) %MON forcing_empmr_min            =  -7.2333472189712E-05
(PID.TID 0000.0001) %MON forcing_empmr_mean           =   8.4477900014658E-07
(PID.TID 0000.0001) %MON forcing_empmr_sd             =   2.8146998273902E-05
(PID.TID 0000.0001) %MON forcing_empmr_del2           =   3.6268469487418E-07
(PID.TID 0000.0001) %MON forcing_fu_max               =   2.6985520720482E-01
(PID.TID 0000.0001) %MON forcing_fu_min               =  -1.6437321007252E-01
(PID.TID 0000.0001) %MON forcing_fu_mean              =   1.6063277720863E-02
(PID.TID 0000.0001) %MON forcing_fu_sd                =   9.0275341241088E-02
(PID.TID 0000.0001) %MON forcing_fu_del2              =   6.7327842425542E-04
(PID.TID 0000.0001) %MON forcing_fv_max               =   2.1808207929134E-01
(PID.TID 0000.0001) %MON forcing_fv_min               =  -1.8281415998936E-01
(PID.TID 0000.0001) %MON forcing_fv_mean              =  -5.8489979543915E-03
(PID.TID 0000.0001) %MON forcing_fv_sd                =   4.6198708258185E-02
(PID.TID 0000.0001) %MON forcing_fv_del2              =   4.5690396795039E-04
(PID.TID 0000.0001) %MON advcfl_uvel_max              =   4.3543311007549E-02
(PID.TID 0000.0001) %MON advcfl_vvel_max              =   2.5352208361318E-02
(PID.TID 0000.0001) %MON advcfl_wvel_max              =   1.9219613140712E-02
(PID.TID 0000.0001) %MON advcfl_W_hf_max              =   2.1759938640237E-02
(PID.TID 0000.0001) %MON pe_b_mean                    =   4.7743927234173E-04
(PID.TID 0000.0001) %MON ke_max                       =   1.7412957888704E-02
(PID.TID 0000.0001) %MON ke_mean                      =   8.5614916723267E-05
(PID.TID 0000.0001) %MON ke_vol                       =   1.3226780812148E+18
(PID.TID 0000.0001) %MON vort_r_min                   =  -3.8990558772036E-07
(PID.TID 0000.0001) %MON vort_r_max                   =   4.6274477464390E-07
(PID.TID 0000.0001) %MON vort_a_mean                  =  -2.5274807090679E-05
(PID.TID 0000.0001) %MON vort_a_sd                    =   7.3604636458387E-05
(PID.TID 0000.0001) %MON vort_p_mean                  =  -3.1845614779011E-05
(PID.TID 0000.0001) %MON vort_p_sd                    =   1.3163810632497E-04
(PID.TID 0000.0001) %MON surfExpan_theta_mean         =   5.5922764203527E-08
(PID.TID 0000.0001) %MON surfExpan_salt_mean          =   1.2171177962707E-08
(PID.TID 0000.0001) // =======================================================
(PID.TID 0000.0001) // End MONITOR dynamic field statistics
(PID.TID 0000.0001) // =======================================================
 EXTERNAL_FIELDS_LOAD,     36008 : iP,iLd,i0,i1=   12    1   12    1 ; Wght=  0.2333333333  0.7666666667
 cg2d: Sum(rhs),rhsMax =   3.23613500995635E-02  2.75903345004101E+00
(PID.TID 0000.0001)                    cg2d_init_res =    2.00910166768037E-02
(PID.TID 0000.0001)                       cg2d_iters =   121
(PID.TID 0000.0001)                         cg2d_res =    7.81057818341066E-14
(PID.TID 0000.0001) // =======================================================
(PID.TID 0000.0001) // Begin MONITOR dynamic field statistics
(PID.TID 0000.0001) // =======================================================
(PID.TID 0000.0001) %MON time_tsnumber                =                 36009
(PID.TID 0000.0001) %MON time_secondsf                =   3.1111776000000E+09
(PID.TID 0000.0001) %MON dynstat_eta_max              =   9.5841451893562E-01
(PID.TID 0000.0001) %MON dynstat_eta_min              =  -1.6583349985291E+00
(PID.TID 0000.0001) %MON dynstat_eta_mean             =  -6.1266433450738E-04
(PID.TID 0000.0001) %MON dynstat_eta_sd               =   6.1064948238138E-01
(PID.TID 0000.0001) %MON dynstat_eta_del2             =   2.6569058327513E-03
(PID.TID 0000.0001) %MON dynstat_uvel_max             =   1.4297018898647E-01
(PID.TID 0000.0001) %MON dynstat_uvel_min             =  -1.8629729414614E-01
(PID.TID 0000.0001) %MON dynstat_uvel_mean            =   2.1474111798097E-03
(PID.TID 0000.0001) %MON dynstat_uvel_sd              =   1.2142982001036E-02
(PID.TID 0000.0001) %MON dynstat_uvel_del2            =   7.4651155582417E-05
(PID.TID 0000.0001) %MON dynstat_vvel_max             =   1.2168307584080E-01
(PID.TID 0000.0001) %MON dynstat_vvel_min             =  -1.3005319504243E-01
(PID.TID 0000.0001) %MON dynstat_vvel_mean            =  -2.0961048871461E-06
(PID.TID 0000.0001) %MON dynstat_vvel_sd              =   6.0414551464916E-03
(PID.TID 0000.0001) %MON dynstat_vvel_del2            =   5.5566743563337E-05
(PID.TID 0000.0001) %MON dynstat_wvel_max             =   2.4094924757539E-05
(PID.TID 0000.0001) %MON dynstat_wvel_min             =  -4.7828613513532E-05
(PID.TID 0000.0001) %MON dynstat_wvel_mean            =   3.2741550880104E-10
(PID.TID 0000.0001) %MON dynstat_wvel_sd              =   1.7082766185392E-06
(PID.TID 0000.0001) %MON dynstat_wvel_del2            =   2.0129337184507E-08
(PID.TID 0000.0001) %MON dynstat_theta_max            =   3.0441788776039E+01
(PID.TID 0000.0001) %MON dynstat_theta_min            =  -2.6433645344827E+00
(PID.TID 0000.0001) %MON dynstat_theta_mean           =   3.9396093932852E+00
(PID.TID 0000.0001) %MON dynstat_theta_sd             =   4.5468768396677E+00
(PID.TID 0000.0001) %MON dynstat_theta_del2           =   5.6527759852717E-03
(PID.TID 0000.0001) %MON dynstat_salt_max             =   3.7491213856714E+01
(PID.TID 0000.0001) %MON dynstat_salt_min             =   2.9594567685185E+01
(PID.TID 0000.0001) %MON dynstat_salt_mean            =   3.4731881923349E+01
(PID.TID 0000.0001) %MON dynstat_salt_sd              =   2.9649877884166E-01
(PID.TID 0000.0001) %MON dynstat_salt_del2            =   1.0360939541199E-03
(PID.TID 0000.0001) %MON forcing_qnet_max             =   4.3427630615234E+02
(PID.TID 0000.0001) %MON forcing_qnet_min             =  -1.8328968454997E+02
(PID.TID 0000.0001) %MON forcing_qnet_mean            =  -1.6600109691805E+01
(PID.TID 0000.0001) %MON forcing_qnet_sd              =   1.1119125063866E+02
(PID.TID 0000.0001) %MON forcing_qnet_del2            =   1.0040237369794E+00
(PID.TID 0000.0001) %MON forcing_qsw_max              =   0.0000000000000E+00
(PID.TID 0000.0001) %MON forcing_qsw_min              =   0.0000000000000E+00
(PID.TID 0000.0001) %MON forcing_qsw_mean             =   0.0000000000000E+00
(PID.TID 0000.0001) %MON forcing_qsw_sd               =   0.0000000000000E+00
(PID.TID 0000.0001) %MON forcing_qsw_del2             =   0.0000000000000E+00
(PID.TID 0000.0001) %MON forcing_empmr_max            =   8.1890940369552E-05
(PID.TID 0000.0001) %MON forcing_empmr_min            =  -7.2715819499081E-05
(PID.TID 0000.0001) %MON forcing_empmr_mean           =   8.5454875789209E-07
(PID.TID 0000.0001) %MON forcing_empmr_sd             =   2.8214283860046E-05
(PID.TID 0000.0001) %MON forcing_empmr_del2           =   3.6290034923196E-07
(PID.TID 0000.0001) %MON forcing_fu_max               =   2.6993649601936E-01
(PID.TID 0000.0001) %MON forcing_fu_min               =  -1.6518663018942E-01
(PID.TID 0000.0001) %MON forcing_fu_mean              =   1.6055584899826E-02
(PID.TID 0000.0001) %MON forcing_fu_sd                =   9.0336157001452E-02
(PID.TID 0000.0001) %MON forcing_fu_del2              =   6.7811877937571E-04
(PID.TID 0000.0001) %MON forcing_fv_max               =   2.1996198445559E-01
(PID.TID 0000.0001) %MON forcing_fv_min               =  -1.8222950249910E-01
(PID.TID 0000.0001) %MON forcing_fv_mean              =  -5.7752354275307E-03
(PID.TID 0000.0001) %MON forcing_fv_sd                =   4.6406538642117E-02
(PID.TID 0000.0001) %MON forcing_fv_del2              =   4.6058148956476E-04
(PID.TID 0000.0001) %MON advcfl_uvel_max              =   4.3479670677843E-02
(PID.TID 0000.0001) %MON advcfl_vvel_max              =   2.5267249994264E-02
(PID.TID 0000.0001) %MON advcfl_wvel_max              =   1.9220428872415E-02
(PID.TID 0000.0001) %MON advcfl_W_hf_max              =   2.1760877199928E-02
(PID.TID 0000.0001) %MON pe_b_mean                    =   4.7716181875534E-04
(PID.TID 0000.0001) %MON ke_max                       =   1.7242809964952E-02
(PID.TID 0000.0001) %MON ke_mean                      =   8.5470785429198E-05
(PID.TID 0000.0001) %MON ke_vol                       =   1.3226780568808E+18
(PID.TID 0000.0001) %MON vort_r_min                   =  -3.8830899811324E-07
(PID.TID 0000.0001) %MON vort_r_max                   =   4.6438527983714E-07
(PID.TID 0000.0001) %MON vort_a_mean                  =  -2.5274807084944E-05
(PID.TID 0000.0001) %MON vort_a_sd                    =   7.3604636472740E-05
(PID.TID 0000.0001) %MON vort_p_mean                  =  -3.1845615315893E-05
(PID.TID 0000.0001) %MON vort_p_sd                    =   1.3163810690631E-04
(PID.TID 0000.0001) %MON surfExpan_theta_mean         =   5.6036342132166E-08
(PID.TID 0000.0001) %MON surfExpan_salt_mean          =   1.2168559461039E-08
(PID.TID 0000.0001) // =======================================================
(PID.TID 0000.0001) // End MONITOR dynamic field statistics
(PID.TID 0000.0001) // =======================================================
 EXTERNAL_FIELDS_LOAD,     36009 : iP,iLd,i0,i1=   12    1   12    1 ; Wght=  0.2000000000  0.8000000000
 cg2d: Sum(rhs),rhsMax =   3.61627882038945E-02  2.75977120361371E+00
(PID.TID 0000.0001)                    cg2d_init_res =    1.66786710085251E-02
(PID.TID 0000.0001)                       cg2d_iters =   121
(PID.TID 0000.0001)                         cg2d_res =    7.77236140307582E-14
(PID.TID 0000.0001) // =======================================================
(PID.TID 0000.0001) // Begin MONITOR dynamic field statistics
(PID.TID 0000.0001) // =======================================================
(PID.TID 0000.0001) %MON time_tsnumber                =                 36010
(PID.TID 0000.0001) %MON time_secondsf                =   3.1112640000000E+09
(PID.TID 0000.0001) %MON dynstat_eta_max              =   9.5703326877971E-01
(PID.TID 0000.0001) %MON dynstat_eta_min              =  -1.6575134985718E+00
(PID.TID 0000.0001) %MON dynstat_eta_mean             =  -6.8481614103002E-04
(PID.TID 0000.0001) %MON dynstat_eta_sd               =   6.1047245999365E-01
(PID.TID 0000.0001) %MON dynstat_eta_del2             =   2.6566762362482E-03
(PID.TID 0000.0001) %MON dynstat_uvel_max             =   1.4280121003663E-01
(PID.TID 0000.0001) %MON dynstat_uvel_min             =  -1.8545185685831E-01
(PID.TID 0000.0001) %MON dynstat_uvel_mean            =   2.1455459214673E-03
(PID.TID 0000.0001) %MON dynstat_uvel_sd              =   1.2133243532850E-02
(PID.TID 0000.0001) %MON dynstat_uvel_del2            =   7.4552773737364E-05
(PID.TID 0000.0001) %MON dynstat_vvel_max             =   1.2155640470080E-01
(PID.TID 0000.0001) %MON dynstat_vvel_min             =  -1.2959543264783E-01
(PID.TID 0000.0001) %MON dynstat_vvel_mean            =  -1.9077163846800E-06
(PID.TID 0000.0001) %MON dynstat_vvel_sd              =   6.0375358376180E-03
(PID.TID 0000.0001) %MON dynstat_vvel_del2            =   5.5485656438389E-05
(PID.TID 0000.0001) %MON dynstat_wvel_max             =   2.4089159104861E-05
(PID.TID 0000.0001) %MON dynstat_wvel_min             =  -4.7849005354760E-05
(PID.TID 0000.0001) %MON dynstat_wvel_mean            =   3.2609868813758E-10
(PID.TID 0000.0001) %MON dynstat_wvel_sd              =   1.7023916057854E-06
(PID.TID 0000.0001) %MON dynstat_wvel_del2            =   2.0079063931886E-08
(PID.TID 0000.0001) %MON dynstat_theta_max            =   3.0439870017812E+01
(PID.TID 0000.0001) %MON dynstat_theta_min            =  -2.6441674463266E+00
(PID.TID 0000.0001) %MON dynstat_theta_mean           =   3.9396996843328E+00
(PID.TID 0000.0001) %MON dynstat_theta_sd             =   4.5469848377829E+00
(PID.TID 0000.0001) %MON dynstat_theta_del2           =   5.6515282453066E-03
(PID.TID 0000.0001) %MON dynstat_salt_max             =   3.7490435967979E+01
(PID.TID 0000.0001) %MON dynstat_salt_min             =   2.9596201584918E+01
(PID.TID 0000.0001) %MON dynstat_salt_mean            =   3.4731883598465E+01
(PID.TID 0000.0001) %MON dynstat_salt_sd              =   2.9648890234017E-01
(PID.TID 0000.0001) %MON dynstat_salt_del2            =   1.0363153460825E-03
(PID.TID 0000.0001) %MON forcing_qnet_max             =   4.3532449340820E+02
(PID.TID 0000.0001) %MON forcing_qnet_min             =  -1.8282252197266E+02
(PID.TID 0000.0001) %MON forcing_qnet_mean            =  -1.6587597735982E+01
(PID.TID 0000.0001) %MON forcing_qnet_sd              =   1.1099484968290E+02
(PID.TID 0000.0001) %MON forcing_qnet_del2            =   1.0064568232602E+00
(PID.TID 0000.0001) %MON forcing_qsw_max              =   0.0000000000000E+00
(PID.TID 0000.0001) %MON forcing_qsw_min              =   0.0000000000000E+00
(PID.TID 0000.0001) %MON forcing_qsw_mean             =   0.0000000000000E+00
(PID.TID 0000.0001) %MON forcing_qsw_sd               =   0.0000000000000E+00
(PID.TID 0000.0001) %MON forcing_qsw_del2             =   0.0000000000000E+00
(PID.TID 0000.0001) %MON forcing_empmr_max            =   8.1892606829115E-05
(PID.TID 0000.0001) %MON forcing_empmr_min            =  -7.3098166808450E-05
(PID.TID 0000.0001) %MON forcing_empmr_mean           =   8.6431851563759E-07
(PID.TID 0000.0001) %MON forcing_empmr_sd             =   2.8285734796509E-05
(PID.TID 0000.0001) %MON forcing_empmr_del2           =   3.6322996729435E-07
(PID.TID 0000.0001) %MON forcing_fu_max               =   2.7001778483391E-01
(PID.TID 0000.0001) %MON forcing_fu_min               =  -1.6600005030632E-01
(PID.TID 0000.0001) %MON forcing_fu_mean              =   1.6047892078789E-02
(PID.TID 0000.0001) %MON forcing_fu_sd                =   9.0407764820515E-02
(PID.TID 0000.0001) %MON forcing_fu_del2              =   6.8344110701255E-04
(PID.TID 0000.0001) %MON forcing_fv_max               =   2.2184188961983E-01
(PID.TID 0000.0001) %MON forcing_fv_min               =  -1.8164484500885E-01
(PID.TID 0000.0001) %MON forcing_fv_mean              =  -5.7014729006699E-03
(PID.TID 0000.0001) %MON forcing_fv_sd                =   4.6628624802842E-02
(PID.TID 0000.0001) %MON forcing_fv_del2              =   4.6475770842672E-04
(PID.TID 0000.0001) %MON advcfl_uvel_max              =   4.3417623584645E-02
(PID.TID 0000.0001) %MON advcfl_vvel_max              =   2.5178314102619E-02
(PID.TID 0000.0001) %MON advcfl_wvel_max              =   1.9228623547215E-02
(PID.TID 0000.0001) %MON advcfl_W_hf_max              =   2.1770170056058E-02
(PID.TID 0000.0001) %MON pe_b_mean                    =   4.7688533703142E-04
(PID.TID 0000.0001) %MON ke_max                       =   1.7071791624110E-02
(PID.TID 0000.0001) %MON ke_mean                      =   8.5338487594984E-05
(PID.TID 0000.0001) %MON ke_vol                       =   1.3226780322654E+18
(PID.TID 0000.0001) %MON vort_r_min                   =  -3.8667986846811E-07
(PID.TID 0000.0001) %MON vort_r_max                   =   4.6604095962253E-07
(PID.TID 0000.0001) %MON vort_a_mean                  =  -2.5274807090752E-05
(PID.TID 0000.0001) %MON vort_a_sd                    =   7.3604636342297E-05
(PID.TID 0000.0001) %MON vort_p_mean                  =  -3.1845615871167E-05
(PID.TID 0000.0001) %MON vort_p_sd                    =   1.3163810491256E-04
(PID.TID 0000.0001) %MON surfExpan_theta_mean         =   5.6156657083944E-08
(PID.TID 0000.0001) %MON surfExpan_salt_mean          =   1.2165865916162E-08
(PID.TID 0000.0001) // =======================================================
(PID.TID 0000.0001) // End MONITOR dynamic field statistics
(PID.TID 0000.0001) // =======================================================
 Computing Diagnostic #     23  ETAN         Counter:      10   Parms: SM      M1      
 Computing Diagnostic #     24  ETANSQ       Counter:      10   Parms: SM P    M1      
 Computing Diagnostic #     25  DETADT2      Counter:      10   Parms: SM      M1      
 Computing Diagnostic #     69  PHIBOT       Counter:      10   Parms: SM      M1      
 Computing Diagnostic #     70  PHIBOTSQ     Counter:      10   Parms: SM P    M1      
 Computing Diagnostic #     45  UVELMASS     Counter:      10   Parms: UUr     MR      
           Vector  Mate for  UVELMASS     Diagnostic #     46  VVELMASS exists 
 Computing Diagnostic #     46  VVELMASS     Counter:      10   Parms: VVr     MR      
           Vector  Mate for  VVELMASS     Diagnostic #     45  UVELMASS exists 
 Computing Diagnostic #     32  WVEL         Counter:      10   Parms: WM      LR      
 Computing Diagnostic #     26  THETA        Counter:      10   Parms: SMR     MR      
 Computing Diagnostic #     27  SALT         Counter:      10   Parms: SMR     MR      
 Computing Diagnostic #     38  WVELSQ       Counter:      10   Parms: WM P    LR      
 Computing Diagnostic #     62  RHOAnoma     Counter:      10   Parms: SMR     MR      
 Computing Diagnostic #     72  DRHODR       Counter:      10   Parms: SM      LR      
 Computing Diagnostic #     73  CONVADJ      Counter:      10   Parms: SMR     LR      
 Computing Diagnostic #    181  GM_Kwx       Counter:      10   Parms: UM      LR      
           Vector  Mate for  GM_Kwx       Diagnostic #    182  GM_Kwy   exists 
 Computing Diagnostic #    182  GM_Kwy       Counter:      10   Parms: VM      LR      
           Vector  Mate for  GM_Kwy       Diagnostic #    181  GM_Kwx   exists 
 Computing Diagnostic #    183  GM_Kwz       Counter:      10   Parms: WM P    LR      
(PID.TID 0000.0001) %CHECKPOINT     36010 ckptA
(PID.TID 0000.0001)   Seconds in section "ALL                    [THE_MODEL_MAIN]":
(PID.TID 0000.0001)           User time:   13.150000000000000
(PID.TID 0000.0001)         System time:  0.14000000000000001
(PID.TID 0000.0001)     Wall clock time:   28.654036045074463
(PID.TID 0000.0001)          No. starts:           1
(PID.TID 0000.0001)           No. stops:           1
(PID.TID 0000.0001)   Seconds in section "INITIALISE_FIXED       [THE_MODEL_MAIN]":
(PID.TID 0000.0001)           User time:  0.42999999999999999
(PID.TID 0000.0001)         System time:  5.99999999999999978E-002
(PID.TID 0000.0001)     Wall clock time:   6.5564389228820801
(PID.TID 0000.0001)          No. starts:           1
(PID.TID 0000.0001)           No. stops:           1
(PID.TID 0000.0001)   Seconds in section "THE_MAIN_LOOP          [THE_MODEL_MAIN]":
(PID.TID 0000.0001)           User time:   12.720000000000001
(PID.TID 0000.0001)         System time:  8.00000000000000155E-002
(PID.TID 0000.0001)     Wall clock time:   22.093796968460083
(PID.TID 0000.0001)          No. starts:           1
(PID.TID 0000.0001)           No. stops:           1
(PID.TID 0000.0001)   Seconds in section "INITIALISE_VARIA    [THE_MAIN_LOOP]":
(PID.TID 0000.0001)           User time:  0.36000000000000004
(PID.TID 0000.0001)         System time:  2.00000000000000039E-002
(PID.TID 0000.0001)     Wall clock time:   2.3615989685058594
(PID.TID 0000.0001)          No. starts:           1
(PID.TID 0000.0001)           No. stops:           1
(PID.TID 0000.0001)   Seconds in section "MAIN LOOP           [THE_MAIN_LOOP]":
(PID.TID 0000.0001)           User time:   12.359999999999999
(PID.TID 0000.0001)         System time:  6.00000000000000117E-002
(PID.TID 0000.0001)     Wall clock time:   19.732160806655884
(PID.TID 0000.0001)          No. starts:           1
(PID.TID 0000.0001)           No. stops:           1
(PID.TID 0000.0001)   Seconds in section "FORWARD_STEP        [THE_MAIN_LOOP]":
(PID.TID 0000.0001)           User time:   12.359999999999999
(PID.TID 0000.0001)         System time:  6.00000000000000255E-002
(PID.TID 0000.0001)     Wall clock time:   19.732059001922607
(PID.TID 0000.0001)          No. starts:          10
(PID.TID 0000.0001)           No. stops:          10
(PID.TID 0000.0001)   Seconds in section "UPDATE_R_STAR       [FORWARD_STEP]":
(PID.TID 0000.0001)           User time:  0.24999999999999645
(PID.TID 0000.0001)         System time:   0.0000000000000000
(PID.TID 0000.0001)     Wall clock time:  0.26635408401489258
(PID.TID 0000.0001)          No. starts:          20
(PID.TID 0000.0001)           No. stops:          20
(PID.TID 0000.0001)   Seconds in section "DO_STATEVARS_DIAGS  [FORWARD_STEP]":
(PID.TID 0000.0001)           User time:  0.22000000000000242
(PID.TID 0000.0001)         System time:   0.0000000000000000
(PID.TID 0000.0001)     Wall clock time:  0.21736741065979004
(PID.TID 0000.0001)          No. starts:          20
(PID.TID 0000.0001)           No. stops:          20
(PID.TID 0000.0001)   Seconds in section "LOAD_FIELDS_DRIVER  [FORWARD_STEP]":
(PID.TID 0000.0001)           User time:  3.00000000000011369E-002
(PID.TID 0000.0001)         System time:   0.0000000000000000
(PID.TID 0000.0001)     Wall clock time:  1.45523548126220703E-002
(PID.TID 0000.0001)          No. starts:          10
(PID.TID 0000.0001)           No. stops:          10
(PID.TID 0000.0001)   Seconds in section "EXTERNAL_FLDS_LOAD [LOAD_FLDS_DRIVER]":
(PID.TID 0000.0001)           User time:  1.99999999999995737E-002
(PID.TID 0000.0001)         System time:   0.0000000000000000
(PID.TID 0000.0001)     Wall clock time:  1.43582820892333984E-002
(PID.TID 0000.0001)          No. starts:          10
(PID.TID 0000.0001)           No. stops:          10
(PID.TID 0000.0001)   Seconds in section "DO_ATMOSPHERIC_PHYS [FORWARD_STEP]":
(PID.TID 0000.0001)           User time:   0.0000000000000000
(PID.TID 0000.0001)         System time:   0.0000000000000000
(PID.TID 0000.0001)     Wall clock time:  9.27448272705078125E-005
(PID.TID 0000.0001)          No. starts:          10
(PID.TID 0000.0001)           No. stops:          10
(PID.TID 0000.0001)   Seconds in section "DO_OCEANIC_PHYS     [FORWARD_STEP]":
(PID.TID 0000.0001)           User time:   1.2099999999999991
(PID.TID 0000.0001)         System time:   0.0000000000000000
(PID.TID 0000.0001)     Wall clock time:   1.2138125896453857
(PID.TID 0000.0001)          No. starts:          10
(PID.TID 0000.0001)           No. stops:          10
(PID.TID 0000.0001)   Seconds in section "THERMODYNAMICS      [FORWARD_STEP]":
(PID.TID 0000.0001)           User time:   2.3499999999999979
(PID.TID 0000.0001)         System time:  9.99999999999999500E-003
(PID.TID 0000.0001)     Wall clock time:   2.3677775859832764
(PID.TID 0000.0001)          No. starts:          10
(PID.TID 0000.0001)           No. stops:          10
(PID.TID 0000.0001)   Seconds in section "DYNAMICS            [FORWARD_STEP]":
(PID.TID 0000.0001)           User time:   4.4300000000000033
(PID.TID 0000.0001)         System time:   0.0000000000000000
(PID.TID 0000.0001)     Wall clock time:   4.4333720207214355
(PID.TID 0000.0001)          No. starts:          10
(PID.TID 0000.0001)           No. stops:          10
(PID.TID 0000.0001)   Seconds in section "UPDATE_CG2D         [FORWARD_STEP]":
(PID.TID 0000.0001)           User time:  8.00000000000018474E-002
(PID.TID 0000.0001)         System time:   0.0000000000000000
(PID.TID 0000.0001)     Wall clock time:  6.63938522338867188E-002
(PID.TID 0000.0001)          No. starts:          10
(PID.TID 0000.0001)           No. stops:          10
(PID.TID 0000.0001)   Seconds in section "SOLVE_FOR_PRESSURE  [FORWARD_STEP]":
(PID.TID 0000.0001)           User time:   1.8400000000000016
(PID.TID 0000.0001)         System time:   0.0000000000000000
(PID.TID 0000.0001)     Wall clock time:   1.8518834114074707
(PID.TID 0000.0001)          No. starts:          10
(PID.TID 0000.0001)           No. stops:          10
(PID.TID 0000.0001)   Seconds in section "MOM_CORRECTION_STEP [FORWARD_STEP]":
(PID.TID 0000.0001)           User time:  0.25999999999999623
(PID.TID 0000.0001)         System time:   0.0000000000000000
(PID.TID 0000.0001)     Wall clock time:  0.27174282073974609
(PID.TID 0000.0001)          No. starts:          10
(PID.TID 0000.0001)           No. stops:          10
(PID.TID 0000.0001)   Seconds in section "UPDATE_ETAH         [FORWARD_STEP]":
(PID.TID 0000.0001)           User time:   0.0000000000000000
(PID.TID 0000.0001)         System time:   0.0000000000000000
(PID.TID 0000.0001)     Wall clock time:  2.05659866333007813E-003
(PID.TID 0000.0001)          No. starts:          10
(PID.TID 0000.0001)           No. stops:          10
(PID.TID 0000.0001)   Seconds in section "CALC_R_STAR         [FORWARD_STEP]":
(PID.TID 0000.0001)           User time:  4.00000000000009237E-002
(PID.TID 0000.0001)         System time:   0.0000000000000000
(PID.TID 0000.0001)     Wall clock time:  2.48210430145263672E-002
(PID.TID 0000.0001)          No. starts:          10
(PID.TID 0000.0001)           No. stops:          10
(PID.TID 0000.0001)   Seconds in section "TRC_CORRECTION_STEP [FORWARD_STEP]":
(PID.TID 0000.0001)           User time:  2.00000000000031264E-002
(PID.TID 0000.0001)         System time:   0.0000000000000000
(PID.TID 0000.0001)     Wall clock time:  3.59027385711669922E-002
(PID.TID 0000.0001)          No. starts:          10
(PID.TID 0000.0001)           No. stops:          10
(PID.TID 0000.0001)   Seconds in section "BLOCKING_EXCHANGES  [FORWARD_STEP]":
(PID.TID 0000.0001)           User time:  9.99999999999996447E-002
(PID.TID 0000.0001)         System time:   0.0000000000000000
(PID.TID 0000.0001)     Wall clock time:  9.23376083374023438E-002
(PID.TID 0000.0001)          No. starts:          10
(PID.TID 0000.0001)           No. stops:          10
(PID.TID 0000.0001)   Seconds in section "MONITOR             [FORWARD_STEP]":
(PID.TID 0000.0001)           User time:  0.87999999999999901
(PID.TID 0000.0001)         System time:   0.0000000000000000
(PID.TID 0000.0001)     Wall clock time:  0.87548184394836426
(PID.TID 0000.0001)          No. starts:          10
(PID.TID 0000.0001)           No. stops:          10
(PID.TID 0000.0001)   Seconds in section "DO_THE_MODEL_IO     [FORWARD_STEP]":
(PID.TID 0000.0001)           User time:  0.59999999999999964
(PID.TID 0000.0001)         System time:  4.00000000000000078E-002
(PID.TID 0000.0001)     Wall clock time:   7.9408686161041260
(PID.TID 0000.0001)          No. starts:          10
(PID.TID 0000.0001)           No. stops:          10
(PID.TID 0000.0001)   Seconds in section "DO_WRITE_PICKUP     [FORWARD_STEP]":
(PID.TID 0000.0001)           User time:  5.00000000000007105E-002
(PID.TID 0000.0001)         System time:  1.00000000000000089E-002
(PID.TID 0000.0001)     Wall clock time:  5.51686286926269531E-002
(PID.TID 0000.0001)          No. starts:          10
(PID.TID 0000.0001)           No. stops:          10
(PID.TID 0000.0001) // ======================================================
(PID.TID 0000.0001) // Tile <-> Tile communication statistics
(PID.TID 0000.0001) // ======================================================
(PID.TID 0000.0001) // o Tile number: 000001
(PID.TID 0000.0001) //         No. X exchanges =              0
(PID.TID 0000.0001) //            Max. X spins =              0
(PID.TID 0000.0001) //            Min. X spins =     1000000000
(PID.TID 0000.0001) //          Total. X spins =              0
(PID.TID 0000.0001) //            Avg. X spins =       0.00E+00
(PID.TID 0000.0001) //         No. Y exchanges =              0
(PID.TID 0000.0001) //            Max. Y spins =              0
(PID.TID 0000.0001) //            Min. Y spins =     1000000000
(PID.TID 0000.0001) //          Total. Y spins =              0
(PID.TID 0000.0001) //            Avg. Y spins =       0.00E+00
(PID.TID 0000.0001) // o Tile number: 000002
(PID.TID 0000.0001) //         No. X exchanges =              0
(PID.TID 0000.0001) //            Max. X spins =              0
(PID.TID 0000.0001) //            Min. X spins =     1000000000
(PID.TID 0000.0001) //          Total. X spins =              0
(PID.TID 0000.0001) //            Avg. X spins =       0.00E+00
(PID.TID 0000.0001) //         No. Y exchanges =              0
(PID.TID 0000.0001) //            Max. Y spins =              0
(PID.TID 0000.0001) //            Min. Y spins =     1000000000
(PID.TID 0000.0001) //          Total. Y spins =              0
(PID.TID 0000.0001) //            Avg. Y spins =       0.00E+00
(PID.TID 0000.0001) // o Tile number: 000003
(PID.TID 0000.0001) //         No. X exchanges =              0
(PID.TID 0000.0001) //            Max. X spins =              0
(PID.TID 0000.0001) //            Min. X spins =     1000000000
(PID.TID 0000.0001) //          Total. X spins =              0
(PID.TID 0000.0001) //            Avg. X spins =       0.00E+00
(PID.TID 0000.0001) //         No. Y exchanges =              0
(PID.TID 0000.0001) //            Max. Y spins =              0
(PID.TID 0000.0001) //            Min. Y spins =     1000000000
(PID.TID 0000.0001) //          Total. Y spins =              0
(PID.TID 0000.0001) //            Avg. Y spins =       0.00E+00
(PID.TID 0000.0001) // o Tile number: 000004
(PID.TID 0000.0001) //         No. X exchanges =              0
(PID.TID 0000.0001) //            Max. X spins =              0
(PID.TID 0000.0001) //            Min. X spins =     1000000000
(PID.TID 0000.0001) //          Total. X spins =              0
(PID.TID 0000.0001) //            Avg. X spins =       0.00E+00
(PID.TID 0000.0001) //         No. Y exchanges =              0
(PID.TID 0000.0001) //            Max. Y spins =              0
(PID.TID 0000.0001) //            Min. Y spins =     1000000000
(PID.TID 0000.0001) //          Total. Y spins =              0
(PID.TID 0000.0001) //            Avg. Y spins =       0.00E+00
(PID.TID 0000.0001) // o Thread number: 000001
(PID.TID 0000.0001) //            No. barriers =          10026
(PID.TID 0000.0001) //      Max. barrier spins =              1
(PID.TID 0000.0001) //      Min. barrier spins =              1
(PID.TID 0000.0001) //     Total barrier spins =          10026
(PID.TID 0000.0001) //      Avg. barrier spins =       1.00E+00
PROGRAM MAIN: Execution ended Normally
