(PID.TID 0000.0001) 
(PID.TID 0000.0001) // ======================================================
(PID.TID 0000.0001) //                      MITgcm UV
(PID.TID 0000.0001) //                      =========
(PID.TID 0000.0001) // ======================================================
(PID.TID 0000.0001) // execution environment starting up...
(PID.TID 0000.0001) // Run starting Wed Apr  1 14:19:48 1998
(PID.TID 0000.0001) // on melville.lcs.mit.edu
(PID.TID 0000.0001) // account cnh
(PID.TID 0000.0001) // MITgcm UV Release: $Name:  $
(PID.TID 0000.0001) 
(PID.TID 0000.0001) // =======================================================
(PID.TID 0000.0001) // Execution Environment parameter file "eedata"
(PID.TID 0000.0001) // =======================================================
(PID.TID 0000.0001) ># Example "eedata" file
(PID.TID 0000.0001) ># Lines beginning "#" are comments
(PID.TID 0000.0001) ># nTx - No. threads per process in X
(PID.TID 0000.0001) ># nTy - No. threads per process in Y
(PID.TID 0000.0001) > &EEPARMS
(PID.TID 0000.0001) > nTx=1,nTy=1
(PID.TID 0000.0001) > /
(PID.TID 0000.0001) ># Note: Some systems use & as the
(PID.TID 0000.0001) ># namelist terminator. Other systems
(PID.TID 0000.0001) ># use a / character (as shown here).
(PID.TID 0000.0001) 
(PID.TID 0000.0001) // =======================================================
(PID.TID 0000.0001) // Computational Grid Specification ( see files "SIZE.h" )
(PID.TID 0000.0001) //                                  ( and "eedata"       )
(PID.TID 0000.0001) // =======================================================
(PID.TID 0000.0001)      nPx =    1 ; /* No. processes in X */
(PID.TID 0000.0001)      nPy =    1 ; /* No. processes in Y */
(PID.TID 0000.0001)      nSx =    1 ; /* No. tiles in X per process */
(PID.TID 0000.0001)      nSy =    1 ; /* No. tiles in Y per process */
(PID.TID 0000.0001)      sNx =   90 ; /* Tile size in X */
(PID.TID 0000.0001)      sNy =   40 ; /* Tile size in Y */
(PID.TID 0000.0001)      OLx =    3 ; /* Tile overlap distance in X */
(PID.TID 0000.0001)      OLy =    3 ; /* Tile overlap distance in Y */
(PID.TID 0000.0001)      nTx =    1 ; /* No. threads in X per process */
(PID.TID 0000.0001)      nTy =    1 ; /* No. threads in Y per process */
(PID.TID 0000.0001)       Nr =   15 ; /* No. levels in the vertical   */
(PID.TID 0000.0001)       nX =   90 ; /* Total domain size in X ( = nPx*nSx*sNx ) */
(PID.TID 0000.0001)       nY =   40 ; /* Total domain size in Y ( = nPy*nSy*sNy ) */
(PID.TID 0000.0001)   nTiles =    1 ; /* Total no. tiles per process ( = nSx*nSy ) */
(PID.TID 0000.0001)   nProcs =    1 ; /* Total no. processes ( = nPx*nPy ) */
(PID.TID 0000.0001) nThreads =    1 ; /* Total no. threads per process ( = nTx*nTy ) */
(PID.TID 0000.0001) usingMPI =    F ; /* Flag used to control whether MPI is in use */
(PID.TID 0000.0001)                   /*  note: To execute a program with MPI calls */
(PID.TID 0000.0001)                   /*  it must be launched appropriately e.g     */
(PID.TID 0000.0001)                   /*  "mpirun -np 64 ......"                    */
(PID.TID 0000.0001) 
(PID.TID 0000.0001) // ======================================================
(PID.TID 0000.0001) // Mapping of tiles to threads
(PID.TID 0000.0001) // ======================================================
(PID.TID 0000.0001) // -o- Thread   1, tiles (   1:   1,   1:   1)
(PID.TID 0000.0001) 
(PID.TID 0000.0001) // ======================================================
(PID.TID 0000.0001) // Tile <-> Tile connectvity table
(PID.TID 0000.0001) // ======================================================
(PID.TID 0000.0001) // Tile number: 000001 (process no. = 000001)
(PID.TID 0000.0001) //        WEST: Tile = 000001, Process = 000001, Comm = put
(PID.TID 0000.0001) //                bi = 000001, bj = 000001
(PID.TID 0000.0001) //        EAST: Tile = 000001, Process = 000001, Comm = put
(PID.TID 0000.0001) //                bi = 000001, bj = 000001
(PID.TID 0000.0001) //       SOUTH: Tile = 000001, Process = 000001, Comm = put
(PID.TID 0000.0001) //                bi = 000001, bj = 000001
(PID.TID 0000.0001) //       NORTH: Tile = 000001, Process = 000001, Comm = put
(PID.TID 0000.0001) //                bi = 000001, bj = 000001
(PID.TID 0000.0001) 
(PID.TID 0000.0001) // =======================================================
(PID.TID 0000.0001) // Model parameter file "data"
(PID.TID 0000.0001) // =======================================================
(PID.TID 0000.0001) ># ====================
(PID.TID 0000.0001) ># | Model parameters |
(PID.TID 0000.0001) ># ====================
(PID.TID 0000.0001) >#
(PID.TID 0000.0001) ># Continuous equation parameters
(PID.TID 0000.0001) > &PARM01
(PID.TID 0000.0001) > tRef = 15*20.,
(PID.TID 0000.0001) > sRef = 15*35.,
(PID.TID 0000.0001) > viscAz=1.E-3,
(PID.TID 0000.0001) > viscAh=5.E5,
(PID.TID 0000.0001) > diffKhT=0.0,
(PID.TID 0000.0001) > diffKzT=3.E-5,
(PID.TID 0000.0001) > diffKhS=0.0,
(PID.TID 0000.0001) > diffKzS=3.E-5,
(PID.TID 0000.0001) > beta=1.E-11,
(PID.TID 0000.0001) > f0=1.e-4,
(PID.TID 0000.0001) > tAlpha=2.E-4,
(PID.TID 0000.0001) > sBeta =7.4E-4,
(PID.TID 0000.0001) > gravity=9.81,
(PID.TID 0000.0001) > gBaro=9.81,
(PID.TID 0000.0001) > rhonil=1035.,
(PID.TID 0000.0001) > rigidLid=.FALSE.,
(PID.TID 0000.0001) > implicitFreeSurface=.TRUE.,
(PID.TID 0000.0001) > eosType = 'POLY3',
(PID.TID 0000.0001) > ivdc_kappa=100.,
(PID.TID 0000.0001) > implicitDiffusion=.TRUE.,
(PID.TID 0000.0001) > allowFreezing=.TRUE.,
(PID.TID 0000.0001) > tempAdvScheme       = 2
(PID.TID 0000.0001) > saltAdvScheme       = 2
(PID.TID 0000.0001) > tracerAdvScheme     = 2
(PID.TID 0000.0001) > tempStepping        = .TRUE.
(PID.TID 0000.0001) > saltStepping        = .TRUE.
(PID.TID 0000.0001) > tr1Stepping         = .TRUE.
(PID.TID 0000.0001) > multiDimAdvection   = .FALSE.
(PID.TID 0000.0001) > &
(PID.TID 0000.0001) >
(PID.TID 0000.0001) ># Elliptic solver parameters
(PID.TID 0000.0001) > &PARM02
(PID.TID 0000.0001) > cg2dMaxIters=1000,
(PID.TID 0000.0001) > cg2dTargetResidual=1.E-17,
(PID.TID 0000.0001) > &
(PID.TID 0000.0001) >
(PID.TID 0000.0001) ># Time stepping parameters
(PID.TID 0000.0001) > &PARM03
(PID.TID 0000.0001) > startTime =      0.,
(PID.TID 0000.0001) > endtime   = 864000.,
(PID.TID 0000.0001) >#nIter0  =  14400.,
(PID.TID 0000.0001) >#endTime = 311044000.,
(PID.TID 0000.0001) > deltaTmom = 1200.0,
(PID.TID 0000.0001) > tauCD =     321428.,
(PID.TID 0000.0001) > deltaTtracer= 43200.0,
(PID.TID 0000.0001) > deltaTClock = 43200.0,
(PID.TID 0000.0001) > abEps = 0.1,
(PID.TID 0000.0001) >#cAdjFreq = -1,
(PID.TID 0000.0001) > pChkptFreq= 31104000.,
(PID.TID 0000.0001) > chkptFreq=  31104000.,
(PID.TID 0000.0001) > dumpFreq=   31104000.,
(PID.TID 0000.0001) > taveFreq=   31104000.,
(PID.TID 0000.0001) > tauThetaClimRelax =  5184000.0,
(PID.TID 0000.0001) > tauSaltClimRelax = 311040000.0,
(PID.TID 0000.0001) > monitorFreq=1.,
(PID.TID 0000.0001) > periodicExternalForcing=.TRUE.,
(PID.TID 0000.0001) > externForcingPeriod=2592000.,
(PID.TID 0000.0001) > externForcingCycle=31104000.,
(PID.TID 0000.0001) > &
(PID.TID 0000.0001) >
(PID.TID 0000.0001) ># Gridding parameters
(PID.TID 0000.0001) > &PARM04
(PID.TID 0000.0001) > usingCartesianGrid=.FALSE.,
(PID.TID 0000.0001) > usingSphericalPolarGrid=.TRUE.,
(PID.TID 0000.0001) > delZ= 50., 70., 100., 140., 190.,
(PID.TID 0000.0001) >       240., 290., 340., 390., 440.,
(PID.TID 0000.0001) >       490., 540., 590., 640., 690.,
(PID.TID 0000.0001) > phiMin=-78.,
(PID.TID 0000.0001) > delY=40*4.,
(PID.TID 0000.0001) > delX=90*4.,
(PID.TID 0000.0001) > &
(PID.TID 0000.0001) >
(PID.TID 0000.0001) ># Input datasets
(PID.TID 0000.0001) > &PARM05
(PID.TID 0000.0001) > bathyFile=      'bathy.bin',
(PID.TID 0000.0001) > hydrogThetaFile='theta.bin',
(PID.TID 0000.0001) > hydrogSaltFile= 'sal.bin',
(PID.TID 0000.0001) > zonalWindFile=  'tren_taux.bin',
(PID.TID 0000.0001) > meridWindFile=  'tren_tauy.bin',
(PID.TID 0000.0001) > thetaClimFile=  'theta_surf.bin',
(PID.TID 0000.0001) > saltClimFile=   'sal_surf.bin',
(PID.TID 0000.0001) > surfQFile=      'shi_qnet.bin',
(PID.TID 0000.0001) > EmPmRFile=      'shi_empr.bin',
(PID.TID 0000.0001) > &
(PID.TID 0000.0001) 
(PID.TID 0000.0001) S/R INI_PARMS ; read PARM01 : OK
(PID.TID 0000.0001) S/R INI_PARMS ; read PARM02 : OK
(PID.TID 0000.0001) S/R INI_PARMS ; read PARM03 : OK
(PID.TID 0000.0001) S/R INI_PARMS ; read PARM04 : OK
(PID.TID 0000.0001) S/R INI_PARMS ; read PARM05 : OK
(PID.TID 0000.0001) %MON XC_max                       =   3.5800000000000E+02
(PID.TID 0000.0001) %MON XC_min                       =   2.0000000000000E+00
(PID.TID 0000.0001) %MON XC_mean                      =   1.8000000000000E+02
(PID.TID 0000.0001) %MON XC_sd                        =   1.0391663325314E+02
(PID.TID 0000.0001) %MON XG_max                       =   3.5600000000000E+02
(PID.TID 0000.0001) %MON XG_min                       =   4.0000000000000E+00
(PID.TID 0000.0001) %MON XG_mean                      =   1.8000000000000E+02
(PID.TID 0000.0001) %MON XG_sd                        =   1.0276186062932E+02
(PID.TID 0000.0001) %MON DXC_max                      =   4.4470989340816E+05
(PID.TID 0000.0001) %MON DXC_min                      =   7.7223062580781E+04
(PID.TID 0000.0001) %MON DXC_mean                     =   3.1353386340260E+05
(PID.TID 0000.0001) %MON DXC_sd                       =   1.1256651772502E+05
(PID.TID 0000.0001) %MON DXF_max                      =   4.4470989340816E+05
(PID.TID 0000.0001) %MON DXF_min                      =   7.7223062580781E+04
(PID.TID 0000.0001) %MON DXF_mean                     =   3.1353386340260E+05
(PID.TID 0000.0001) %MON DXF_sd                       =   1.1256651772502E+05
(PID.TID 0000.0001) %MON DXG_max                      =   4.4443898815675E+05
(PID.TID 0000.0001) %MON DXG_min                      =   9.2460385861875E+04
(PID.TID 0000.0001) %MON DXG_mean                     =   3.1372497618153E+05
(PID.TID 0000.0001) %MON DXG_sd                       =   1.1216447457560E+05
(PID.TID 0000.0001) %MON DXV_max                      =   4.4443898815675E+05
(PID.TID 0000.0001) %MON DXV_min                      =   9.2460385861875E+04
(PID.TID 0000.0001) %MON DXV_mean                     =   3.1372497618153E+05
(PID.TID 0000.0001) %MON DXV_sd                       =   1.1216447457560E+05
(PID.TID 0000.0001) %MON YC_max                       =   8.0000000000000E+01
(PID.TID 0000.0001) %MON YC_min                       =  -7.6000000000000E+01
(PID.TID 0000.0001) %MON YC_mean                      =   2.0512820512821E+00
(PID.TID 0000.0001) %MON YC_sd                        =   4.6760682979564E+01
(PID.TID 0000.0001) %MON YG_max                       =   7.8000000000000E+01
(PID.TID 0000.0001) %MON YG_min                       =  -7.8000000000000E+01
(PID.TID 0000.0001) %MON YG_mean                      =   0.0000000000000E+00
(PID.TID 0000.0001) %MON YG_sd                        =   4.6173585522461E+01
(PID.TID 0000.0001) %MON DYC_max                      =   4.4470989340816E+05
(PID.TID 0000.0001) %MON DYC_min                      =   4.4470989340816E+05
(PID.TID 0000.0001) %MON DYC_mean                     =   4.4470989340814E+05
(PID.TID 0000.0001) %MON DYC_sd                       =   1.9848812371492E-08
(PID.TID 0000.0001) %MON DYF_max                      =   4.4470989340816E+05
(PID.TID 0000.0001) %MON DYF_min                      =   4.4470989340816E+05
(PID.TID 0000.0001) %MON DYF_mean                     =   4.4470989340814E+05
(PID.TID 0000.0001) %MON DYF_sd                       =   1.9848812371492E-08
(PID.TID 0000.0001) %MON DYG_max                      =   4.4470989340816E+05
(PID.TID 0000.0001) %MON DYG_min                      =   4.4470989340816E+05
(PID.TID 0000.0001) %MON DYG_mean                     =   4.4470989340814E+05
(PID.TID 0000.0001) %MON DYG_sd                       =   1.9848812371492E-08
(PID.TID 0000.0001) %MON DYU_max                      =   4.4470989340816E+05
(PID.TID 0000.0001) %MON DYU_min                      =   4.4470989340816E+05
(PID.TID 0000.0001) %MON DYU_mean                     =   4.4470989340814E+05
(PID.TID 0000.0001) %MON DYU_sd                       =   1.9848812371492E-08
(PID.TID 0000.0001) %MON RA_max                       =   1.9772672958215E+11
(PID.TID 0000.0001) %MON RA_min                       =   3.4334886267982E+10
(PID.TID 0000.0001) %MON RA_mean                      =   1.3940329716694E+11
(PID.TID 0000.0001) %MON RA_sd                        =   5.0049278732354E+10
(PID.TID 0000.0001) %MON RAW_max                      =   1.9772672958215E+11
(PID.TID 0000.0001) %MON RAW_min                      =   3.4334886267982E+10
(PID.TID 0000.0001) %MON RAW_mean                     =   1.3940329716694E+11
(PID.TID 0000.0001) %MON RAW_sd                       =   5.0049278732354E+10
(PID.TID 0000.0001) %MON RAS_max                      =   1.9760627980089E+11
(PID.TID 0000.0001) %MON RAS_min                      =   4.1109698667291E+10
(PID.TID 0000.0001) %MON RAS_mean                     =   1.3948826965197E+11
(PID.TID 0000.0001) %MON RAS_sd                       =   4.9870522472902E+10
(PID.TID 0000.0001) %MON RAZ_max                      =   1.9760627980089E+11
(PID.TID 0000.0001) %MON RAZ_min                      =   4.1109698667291E+10
(PID.TID 0000.0001) %MON RAZ_mean                     =   1.3948826965197E+11
(PID.TID 0000.0001) %MON RAZ_sd                       =   4.9870522472902E+10
(PID.TID 0000.0001)  MDSREADFIELD: opening global file: bathy.bin
(PID.TID 0000.0001) // =======================================================
(PID.TID 0000.0001) // Field Model R_low (ini_masks_etc) at iteration          1
(PID.TID 0000.0001) // CMIN =         -5.200000000000000E+03
(PID.TID 0000.0001) // CMAX =         -5.000000000000000E+01
(PID.TID 0000.0001) // CINT =          1.907407407407407E+02
(PID.TID 0000.0001) // SYMBOLS (CMIN->CMAX): -abcdefghijklmnopqrstuvwxyz+
(PID.TID 0000.0001) //                  0.0: .
(PID.TID 0000.0001) // RANGE I (Lo:Hi:Step):(  -2:  93:   1)
(PID.TID 0000.0001) // RANGE J (Lo:Hi:Step):(  43:  -2:  -1)
(PID.TID 0000.0001) // RANGE K (Lo:Hi:Step):(   1:   1:   1)
(PID.TID 0000.0001) // =======================================================
(PID.TID 0000.0001) K =   1
(PID.TID 0000.0001) //                I=7       I=17      I=27      I=37      I=47      I=57      I=67      I=77      I=87
(PID.TID 0000.0001) // |--J--|**0123456|890123456|890123456|890123456|890123456|890123456|890123456|890123456|890123456|890123
(PID.TID 0000.0001) //     43 ................................................................................................
(PID.TID 0000.0001) //     42 ..............................................xxwvrojj...........................wvtt...........
(PID.TID 0000.0001) //     41 ................................................................................................
(PID.TID 0000.0001) //     40 ................................................................................................
(PID.TID 0000.0001) //     39 jjjjjorz................................................................................zojjjjjo
(PID.TID 0000.0001) //     38 rmmjjmm+...............................................................................zttrmmjjm
(PID.TID 0000.0001) //     37 vjjoxz........................................................................x+....zyzx.+vjjoxz
(PID.TID 0000.0001) //     36 twwz..........................................jjorz..........................tojj.jjorroortwwz..
(PID.TID 0000.0001) //     35 r..++.................................yvwz.gdjjjjjjtr.ddggjr..................oggggjojjoror..++.
(PID.TID 0000.0001) //     34 v......................................vvv--d---------ddgggjo..................wjgggggggdjv.....
(PID.TID 0000.0001) //     33 dd.....................................jj---------------ddggor...............zz.tjgdgggddddd....
(PID.TID 0000.0001) //     32 d......................................g-----------------dgggo...............ogdgd-dgjjgd-d.....
(PID.TID 0000.0001) //     31 .......................................--------------------ddd.............gd------dgogd--......
(PID.TID 0000.0001) //     30 -.....................................---------d-------------d............d--------gjg-----.....
(PID.TID 0000.0001) //     29 g.................................ztdg----------------------dggj.........o-------dggdg--dgg.....
(PID.TID 0000.0001) //     28 .................................yrdd---------------------dddggg......oj.d-------dd-----gj......
(PID.TID 0000.0001) //     27 ..................................-----------------ddd-----ddggggj...ggjrr-------gd----dg.......
(PID.TID 0000.0001) //     26 ..................gjj....t.....jgd----d--------d-----d-------dgggjg..j.gddg-----dgd----dj.......
(PID.TID 0000.0001) //     25 ................ggggg..jjoo...rgg.----d----------------------ddggggg....gggd----dg-----gg.......
(PID.TID 0000.0001) //     24 ...............ogggggt.ggjo...ggg.----------dd--------------dddggggjgdg.jgg.-od--dd----dg.......
(PID.TID 0000.0001) //     23 ................-dgddjogggg.++oogg----gdd----g------d-----dddddggggjgggj......jgddgg---ddd......
(PID.TID 0000.0001) //     22 ddddg..........--dgggjggggg..++..----dd-dggddgd------gd--ddggggggggjjggjj.......jggdgggd--ddddg.
(PID.TID 0000.0001) //     21 ---dg.........d--ddggddddddd.....ooggdgd-gogggd-------dddggggddgggggjjjjj........ggggdgd-----dg.
(PID.TID 0000.0001) //     20 d-dddg.......g--dgdgdd--dd--.......-...rrjrggg---------ddddddddggggggggg............g----dd-dddg
(PID.TID 0000.0001) //     19 gd---d.......gddggggj---------.gggd-t...--ggg--d---dd----ggdddgggggggggg-...........d---dggd---d
(PID.TID 0000.0001) //     18 g----d.......jggggggg---d--------jt....jggj--ggggd--g--dddgggggggggggggddd..........d---dgg----d
(PID.TID 0000.0001) //     17 gd---d.......j..dgggdd--d--------t......ddgddgjjo----dddggggggggjgggggdddg..........d---dggd---d
(PID.TID 0000.0001) //     16 gd---d......jo.--ggjgdd-d------g........vjjjd-ggo---ddddddggggggjgggggdggd-........gd---dggd---d
(PID.TID 0000.0001) //     15 d---gd......gg.---dgggdddd----d..........ddojddgr----dddddgggggjjggggggggdg.......ogd---dgd---gd
(PID.TID 0000.0001) //     14 gd---dg....rddg---ddggggddd----...........doggdg------dddggggggjjjgggggggg-......jggd--dgggd---d
(PID.TID 0000.0001) //     13 gdg---g...gj-dgddgddddgggggd---..........-dtgggg------d--ddgggggjjggggggggd.....jgggddddgjgdg---
(PID.TID 0000.0001) //     12 ggd---dgdgg---jgdd-ddgjggggg----.----....---ortj----------ddddgggjggggggggd....o----dgggjgggd---
(PID.TID 0000.0001) //     11 ggd--dd--gd--djgd--dggjgggggdddd-------xgd--gv.jd-d--d------ddggggggdggggg....o-------ggjjggd--d
(PID.TID 0000.0001) //     10 gggddd------gjjjd--gggjjjjgggggddddddddgg---g.toj----d------ddggggggdddggg...+d------ddggjgggddd
(PID.TID 0000.0001) //      9 jggggd-----ddggggdgjojjggggjgjgggggggdggd--dgvto--------ddddddggjggggdddgg...xd--------dggjggggd
(PID.TID 0000.0001) //      8 gojgggggg---dggdddddgrogdggggggggggggggggdddgvd--------ddggggggjggdd--dddg..zxrojjgddddggggojggg
(PID.TID 0000.0001) //      7 gggd----d---------dddgjd--ggggggddddgggggggd--------dddggggggjjgg-------ddgggggdggggd---dggggd--
(PID.TID 0000.0001) //      6 -------------------dddgogddgggggdddddgggggj-----dddddgjjggdd--------------ddgggggggggg--d-------
(PID.TID 0000.0001) //      5 --------------d--dgdggjjjjgg.ggggggggggggjjoggggggjjjgggggdd------d---ddddggg.xoggddddd---------
(PID.TID 0000.0001) //      4 ddgggggdddg.g..............................rojjjggggggggggggdddddddddgdgggj...wjggggddddddddgggg
(PID.TID 0000.0001) //      3 ..............................................oojggggggggggggjjojjjj..........vojgggggggg.......
(PID.TID 0000.0001) //      2 ..............................................xxwvrojj...........................wvtt...........
(PID.TID 0000.0001) //      1 ................................................................................................
(PID.TID 0000.0001) //      0 ................................................................................................
(PID.TID 0000.0001) //     -1 jjjjjorz................................................................................zojjjjjo
(PID.TID 0000.0001) //     -2 rmmjjmm+...............................................................................zttrmmjjm
(PID.TID 0000.0001) // =======================================================
(PID.TID 0000.0001) // END OF FIELD                                          =
(PID.TID 0000.0001) // =======================================================
(PID.TID 0000.0001) 
(PID.TID 0000.0001) // =======================================================
(PID.TID 0000.0001) // Field Model Ro_surf (ini_masks_etc) at iteration          1
(PID.TID 0000.0001) // CMIN =          1.000000000000000E+32
(PID.TID 0000.0001) // CMAX =         -1.000000000000000E+32
(PID.TID 0000.0001) // CINT =          0.000000000000000E+00
(PID.TID 0000.0001) // SYMBOLS (CMIN->CMAX): -abcdefghijklmnopqrstuvwxyz+
(PID.TID 0000.0001) //                  0.0: .
(PID.TID 0000.0001) // RANGE I (Lo:Hi:Step):(  -2:  93:   1)
(PID.TID 0000.0001) // RANGE J (Lo:Hi:Step):(  43:  -2:  -1)
(PID.TID 0000.0001) // RANGE K (Lo:Hi:Step):(   1:   1:   1)
(PID.TID 0000.0001) // =======================================================
(PID.TID 0000.0001) K =   1
(PID.TID 0000.0001) //                I=7       I=17      I=27      I=37      I=47      I=57      I=67      I=77      I=87
(PID.TID 0000.0001) // |--J--|**0123456|890123456|890123456|890123456|890123456|890123456|890123456|890123456|890123456|890123
(PID.TID 0000.0001) //     43 ................................................................................................
(PID.TID 0000.0001) //     42 ................................................................................................
(PID.TID 0000.0001) //     41 ................................................................................................
(PID.TID 0000.0001) //     40 ................................................................................................
(PID.TID 0000.0001) //     39 ................................................................................................
(PID.TID 0000.0001) //     38 ................................................................................................
(PID.TID 0000.0001) //     37 ................................................................................................
(PID.TID 0000.0001) //     36 ................................................................................................
(PID.TID 0000.0001) //     35 ................................................................................................
(PID.TID 0000.0001) //     34 ................................................................................................
(PID.TID 0000.0001) //     33 ................................................................................................
(PID.TID 0000.0001) //     32 ................................................................................................
(PID.TID 0000.0001) //     31 ................................................................................................
(PID.TID 0000.0001) //     30 ................................................................................................
(PID.TID 0000.0001) //     29 ................................................................................................
(PID.TID 0000.0001) //     28 ................................................................................................
(PID.TID 0000.0001) //     27 ................................................................................................
(PID.TID 0000.0001) //     26 ................................................................................................
(PID.TID 0000.0001) //     25 ................................................................................................
(PID.TID 0000.0001) //     24 ................................................................................................
(PID.TID 0000.0001) //     23 ................................................................................................
(PID.TID 0000.0001) //     22 ................................................................................................
(PID.TID 0000.0001) //     21 ................................................................................................
(PID.TID 0000.0001) //     20 ................................................................................................
(PID.TID 0000.0001) //     19 ................................................................................................
(PID.TID 0000.0001) //     18 ................................................................................................
(PID.TID 0000.0001) //     17 ................................................................................................
(PID.TID 0000.0001) //     16 ................................................................................................
(PID.TID 0000.0001) //     15 ................................................................................................
(PID.TID 0000.0001) //     14 ................................................................................................
(PID.TID 0000.0001) //     13 ................................................................................................
(PID.TID 0000.0001) //     12 ................................................................................................
(PID.TID 0000.0001) //     11 ................................................................................................
(PID.TID 0000.0001) //     10 ................................................................................................
(PID.TID 0000.0001) //      9 ................................................................................................
(PID.TID 0000.0001) //      8 ................................................................................................
(PID.TID 0000.0001) //      7 ................................................................................................
(PID.TID 0000.0001) //      6 ................................................................................................
(PID.TID 0000.0001) //      5 ................................................................................................
(PID.TID 0000.0001) //      4 ................................................................................................
(PID.TID 0000.0001) //      3 ................................................................................................
(PID.TID 0000.0001) //      2 ................................................................................................
(PID.TID 0000.0001) //      1 ................................................................................................
(PID.TID 0000.0001) //      0 ................................................................................................
(PID.TID 0000.0001) //     -1 ................................................................................................
(PID.TID 0000.0001) //     -2 ................................................................................................
(PID.TID 0000.0001) // =======================================================
(PID.TID 0000.0001) // END OF FIELD                                          =
(PID.TID 0000.0001) // =======================================================
(PID.TID 0000.0001) 
(PID.TID 0000.0001) // =======================================================
(PID.TID 0000.0001) // Field hFacC at iteration          1
(PID.TID 0000.0001) // CMIN =          1.000000000000000E+00
(PID.TID 0000.0001) // CMAX =          1.000000000000000E+00
(PID.TID 0000.0001) // CINT =          0.000000000000000E+00
(PID.TID 0000.0001) // SYMBOLS (CMIN->CMAX): -abcdefghijklmnopqrstuvwxyz+
(PID.TID 0000.0001) //                  0.0: .
(PID.TID 0000.0001) // RANGE I (Lo:Hi:Step):(  -2:  93:   1)
(PID.TID 0000.0001) // RANGE J (Lo:Hi:Step):(  43:  -2:  -1)
(PID.TID 0000.0001) // RANGE K (Lo:Hi:Step):(   1:   1:   1)
(PID.TID 0000.0001) // =======================================================
(PID.TID 0000.0001) K =   1
(PID.TID 0000.0001) //                I=7       I=17      I=27      I=37      I=47      I=57      I=67      I=77      I=87
(PID.TID 0000.0001) // |--J--|**0123456|890123456|890123456|890123456|890123456|890123456|890123456|890123456|890123456|890123
(PID.TID 0000.0001) //     43 ................................................................................................
(PID.TID 0000.0001) //     42 ..............................................--------...........................----...........
(PID.TID 0000.0001) //     41 ................................................................................................
(PID.TID 0000.0001) //     40 ................................................................................................
(PID.TID 0000.0001) //     39 --------................................................................................--------
(PID.TID 0000.0001) //     38 --------...............................................................................---------
(PID.TID 0000.0001) //     37 ------........................................................................--....----.-------
(PID.TID 0000.0001) //     36 ----..........................................-----..........................----.------------..
(PID.TID 0000.0001) //     35 -..--.................................----.----------.------..................-------------..--.
(PID.TID 0000.0001) //     34 -......................................----------------------..................------------.....
(PID.TID 0000.0001) //     33 --.....................................-----------------------...............--.------------....
(PID.TID 0000.0001) //     32 -......................................-----------------------...............--------------.....
(PID.TID 0000.0001) //     31 .......................................-----------------------.............---------------......
(PID.TID 0000.0001) //     30 -.....................................------------------------............-----------------.....
(PID.TID 0000.0001) //     29 -.................................------------------------------.........------------------.....
(PID.TID 0000.0001) //     28 .................................-------------------------------......--.-----------------......
(PID.TID 0000.0001) //     27 ..................................--------------------------------...--------------------.......
(PID.TID 0000.0001) //     26 ..................---....-.....------------------------------------..-.------------------.......
(PID.TID 0000.0001) //     25 ................-----..----...---.----------------------------------....-----------------.......
(PID.TID 0000.0001) //     24 ...............-------.----...---.-------------------------------------.---.-------------.......
(PID.TID 0000.0001) //     23 ................-----------.--------------------------------------------......------------......
(PID.TID 0000.0001) //     22 -----..........------------..--..----------------------------------------.......---------------.
(PID.TID 0000.0001) //     21 -----.........--------------.....----------------------------------------........--------------.
(PID.TID 0000.0001) //     20 ------.......---------------.......-...---------------------------------............------------
(PID.TID 0000.0001) //     19 ------.......-----------------.------...---------------------------------...........------------
(PID.TID 0000.0001) //     18 ------.......----------------------....-----------------------------------..........------------
(PID.TID 0000.0001) //     17 ------.......-..------------------......----------------------------------..........------------
(PID.TID 0000.0001) //     16 ------......--.-----------------........-----------------------------------........-------------
(PID.TID 0000.0001) //     15 ------......--.----------------..........----------------------------------.......--------------
(PID.TID 0000.0001) //     14 -------....--------------------...........---------------------------------......---------------
(PID.TID 0000.0001) //     13 -------...---------------------..........----------------------------------.....----------------
(PID.TID 0000.0001) //     12 --------------------------------.----....----------------------------------....-----------------
(PID.TID 0000.0001) //     11 ----------------------------------------------.---------------------------....------------------
(PID.TID 0000.0001) //     10 ---------------------------------------------.----------------------------...-------------------
(PID.TID 0000.0001) //      9 --------------------------------------------------------------------------...-------------------
(PID.TID 0000.0001) //      8 --------------------------------------------------------------------------..--------------------
(PID.TID 0000.0001) //      7 ------------------------------------------------------------------------------------------------
(PID.TID 0000.0001) //      6 ------------------------------------------------------------------------------------------------
(PID.TID 0000.0001) //      5 ----------------------------.------------------------------------------------.------------------
(PID.TID 0000.0001) //      4 -----------.-..............................--------------------------------...------------------
(PID.TID 0000.0001) //      3 ..............................................----------------------..........-----------.......
(PID.TID 0000.0001) //      2 ..............................................--------...........................----...........
(PID.TID 0000.0001) //      1 ................................................................................................
(PID.TID 0000.0001) //      0 ................................................................................................
(PID.TID 0000.0001) //     -1 --------................................................................................--------
(PID.TID 0000.0001) //     -2 --------...............................................................................---------
(PID.TID 0000.0001) // =======================================================
(PID.TID 0000.0001) // END OF FIELD                                          =
(PID.TID 0000.0001) // =======================================================
(PID.TID 0000.0001) 
(PID.TID 0000.0001) // =======================================================
(PID.TID 0000.0001) // Field hFacW at iteration          1
(PID.TID 0000.0001) // CMIN =          1.000000000000000E+00
(PID.TID 0000.0001) // CMAX =          1.000000000000000E+00
(PID.TID 0000.0001) // CINT =          0.000000000000000E+00
(PID.TID 0000.0001) // SYMBOLS (CMIN->CMAX): -abcdefghijklmnopqrstuvwxyz+
(PID.TID 0000.0001) //                  0.0: .
(PID.TID 0000.0001) // RANGE I (Lo:Hi:Step):(  -2:  93:   1)
(PID.TID 0000.0001) // RANGE J (Lo:Hi:Step):(  43:  -2:  -1)
(PID.TID 0000.0001) // RANGE K (Lo:Hi:Step):(   1:   1:   1)
(PID.TID 0000.0001) // =======================================================
(PID.TID 0000.0001) K =   1
(PID.TID 0000.0001) //                I=7       I=17      I=27      I=37      I=47      I=57      I=67      I=77      I=87
(PID.TID 0000.0001) // |--J--|**0123456|890123456|890123456|890123456|890123456|890123456|890123456|890123456|890123456|890123
(PID.TID 0000.0001) //     43 ...............................................---------------------...........----------.......
(PID.TID 0000.0001) //     42 ...............................................-------............................---...........
(PID.TID 0000.0001) //     41 ................................................................................................
(PID.TID 0000.0001) //     40 ................................................................................................
(PID.TID 0000.0001) //     39 --------.................................................................................-------
(PID.TID 0000.0001) //     38 --------................................................................................--------
(PID.TID 0000.0001) //     37 ------.........................................................................-.....---..------
(PID.TID 0000.0001) //     36 ----...........................................----...........................---..-----------..
(PID.TID 0000.0001) //     35 -...-..................................---..---------..-----...................------------...-.
(PID.TID 0000.0001) //     34 -.......................................---------------------...................-----------.....
(PID.TID 0000.0001) //     33 --......................................----------------------................-..-----------....
(PID.TID 0000.0001) //     32 -.......................................----------------------................-------------.....
(PID.TID 0000.0001) //     31 ........................................----------------------..............--------------......
(PID.TID 0000.0001) //     30 -......................................-----------------------.............----------------.....
(PID.TID 0000.0001) //     29 -..................................-----------------------------..........-----------------.....
(PID.TID 0000.0001) //     28 ..................................------------------------------.......-..----------------......
(PID.TID 0000.0001) //     27 ...................................-------------------------------....-------------------.......
(PID.TID 0000.0001) //     26 ...................--...........-----------------------------------.....-----------------.......
(PID.TID 0000.0001) //     25 .................----...---....--..---------------------------------.....----------------.......
(PID.TID 0000.0001) //     24 ................------..---....--..------------------------------------..--..------------.......
(PID.TID 0000.0001) //     23 .................----------..-------------------------------------------.......-----------......
(PID.TID 0000.0001) //     22 -----...........-----------...-...---------------------------------------........--------------.
(PID.TID 0000.0001) //     21 -----..........-------------......---------------------------------------.........-------------.
(PID.TID 0000.0001) //     20 ------........--------------............--------------------------------.............-----------
(PID.TID 0000.0001) //     19 ------........----------------..-----....--------------------------------............-----------
(PID.TID 0000.0001) //     18 ------........---------------------.....----------------------------------...........-----------
(PID.TID 0000.0001) //     17 ------...........-----------------.......---------------------------------...........-----------
(PID.TID 0000.0001) //     16 ------.......-..----------------.........----------------------------------.........------------
(PID.TID 0000.0001) //     15 ------.......-..---------------...........---------------------------------........-------------
(PID.TID 0000.0001) //     14 -------.....-------------------............--------------------------------.......--------------
(PID.TID 0000.0001) //     13 -------....--------------------...........---------------------------------......---------------
(PID.TID 0000.0001) //     12 --------------------------------..---.....---------------------------------.....----------------
(PID.TID 0000.0001) //     11 ----------------------------------------------..--------------------------.....-----------------
(PID.TID 0000.0001) //     10 ---------------------------------------------..---------------------------....------------------
(PID.TID 0000.0001) //      9 --------------------------------------------------------------------------....------------------
(PID.TID 0000.0001) //      8 --------------------------------------------------------------------------...-------------------
(PID.TID 0000.0001) //      7 ------------------------------------------------------------------------------------------------
(PID.TID 0000.0001) //      6 ------------------------------------------------------------------------------------------------
(PID.TID 0000.0001) //      5 ----------------------------..-----------------------------------------------..-----------------
(PID.TID 0000.0001) //      4 -----------.................................-------------------------------....-----------------
(PID.TID 0000.0001) //      3 ...............................................---------------------...........----------.......
(PID.TID 0000.0001) //      2 ...............................................-------............................---...........
(PID.TID 0000.0001) //      1 ................................................................................................
(PID.TID 0000.0001) //      0 ................................................................................................
(PID.TID 0000.0001) //     -1 --------.................................................................................-------
(PID.TID 0000.0001) //     -2 --------................................................................................--------
(PID.TID 0000.0001) // =======================================================
(PID.TID 0000.0001) // END OF FIELD                                          =
(PID.TID 0000.0001) // =======================================================
(PID.TID 0000.0001) 
(PID.TID 0000.0001) // =======================================================
(PID.TID 0000.0001) // Field hFacS at iteration          1
(PID.TID 0000.0001) // CMIN =          1.000000000000000E+00
(PID.TID 0000.0001) // CMAX =          1.000000000000000E+00
(PID.TID 0000.0001) // CINT =          0.000000000000000E+00
(PID.TID 0000.0001) // SYMBOLS (CMIN->CMAX): -abcdefghijklmnopqrstuvwxyz+
(PID.TID 0000.0001) //                  0.0: .
(PID.TID 0000.0001) // RANGE I (Lo:Hi:Step):(  -2:  93:   1)
(PID.TID 0000.0001) // RANGE J (Lo:Hi:Step):(  43:  -2:  -1)
(PID.TID 0000.0001) // RANGE K (Lo:Hi:Step):(   1:   1:   1)
(PID.TID 0000.0001) // =======================================================
(PID.TID 0000.0001) K =   1
(PID.TID 0000.0001) //                I=7       I=17      I=27      I=37      I=47      I=57      I=67      I=77      I=87
(PID.TID 0000.0001) // |--J--|**0123456|890123456|890123456|890123456|890123456|890123456|890123456|890123456|890123456|890123
(PID.TID 0000.0001) //     43 ................................................................................................
(PID.TID 0000.0001) //     42 ................................................................................................
(PID.TID 0000.0001) //     41 ................................................................................................
(PID.TID 0000.0001) //     40 ................................................................................................
(PID.TID 0000.0001) //     39 --------................................................................................--------
(PID.TID 0000.0001) //     38 ------.................................................................................-.-------
(PID.TID 0000.0001) //     37 ----..........................................................................--....----.-----..
(PID.TID 0000.0001) //     36 -..-..........................................-----...........................---.---------..-..
(PID.TID 0000.0001) //     35 -......................................---.----------.------...................------------.....
(PID.TID 0000.0001) //     34 -......................................----------------------...................-----------.....
(PID.TID 0000.0001) //     33 -......................................-----------------------...............--.-----------.....
(PID.TID 0000.0001) //     32 .......................................-----------------------...............-------------......
(PID.TID 0000.0001) //     31 .......................................-----------------------.............---------------......
(PID.TID 0000.0001) //     30 -.....................................------------------------............-----------------.....
(PID.TID 0000.0001) //     29 ..................................------------------------------.........-----------------......
(PID.TID 0000.0001) //     28 ..................................------------------------------......--.----------------.......
(PID.TID 0000.0001) //     27 ..................................--------------------------------...-.------------------.......
(PID.TID 0000.0001) //     26 ..................---....-.....--.---------------------------------.....-----------------.......
(PID.TID 0000.0001) //     25 ................-----..----...---.----------------------------------....---.-------------.......
(PID.TID 0000.0001) //     24 ................------.----...---.-------------------------------------.......-----------.......
(PID.TID 0000.0001) //     23 ................-----------..--..---------------------------------------........----------......
(PID.TID 0000.0001) //     22 -----..........------------......----------------------------------------........--------------.
(PID.TID 0000.0001) //     21 -----.........--------------.......-...---------------------------------............-----------.
(PID.TID 0000.0001) //     20 ------.......---------------.......-....--------------------------------............------------
(PID.TID 0000.0001) //     19 ------.......-----------------.----.....---------------------------------...........------------
(PID.TID 0000.0001) //     18 ------.......-..------------------......----------------------------------..........------------
(PID.TID 0000.0001) //     17 ------.......-..----------------........----------------------------------..........------------
(PID.TID 0000.0001) //     16 ------......--.----------------..........----------------------------------........-------------
(PID.TID 0000.0001) //     15 ------......--.----------------...........---------------------------------.......--------------
(PID.TID 0000.0001) //     14 -------....--------------------...........---------------------------------......---------------
(PID.TID 0000.0001) //     13 -------...---------------------..........----------------------------------.....----------------
(PID.TID 0000.0001) //     12 --------------------------------.----....-----.---------------------------.....-----------------
(PID.TID 0000.0001) //     11 ---------------------------------------------..---------------------------....------------------
(PID.TID 0000.0001) //     10 ---------------------------------------------.----------------------------...-------------------
(PID.TID 0000.0001) //      9 --------------------------------------------------------------------------...-------------------
(PID.TID 0000.0001) //      8 --------------------------------------------------------------------------..--------------------
(PID.TID 0000.0001) //      7 ------------------------------------------------------------------------------------------------
(PID.TID 0000.0001) //      6 ----------------------------.------------------------------------------------.------------------
(PID.TID 0000.0001) //      5 -----------.-..............................--------------------------------...------------------
(PID.TID 0000.0001) //      4 ..............................................----------------------..........-----------.......
(PID.TID 0000.0001) //      3 ..............................................--------...........................----...........
(PID.TID 0000.0001) //      2 ................................................................................................
(PID.TID 0000.0001) //      1 ................................................................................................
(PID.TID 0000.0001) //      0 ................................................................................................
(PID.TID 0000.0001) //     -1 --------................................................................................--------
(PID.TID 0000.0001) //     -2 ................................................................................................
(PID.TID 0000.0001) // =======================================================
(PID.TID 0000.0001) // END OF FIELD                                          =
(PID.TID 0000.0001) // =======================================================
(PID.TID 0000.0001) 
(PID.TID 0000.0001) %MON fCori_max                    =   1.4323448157692E-04
(PID.TID 0000.0001) %MON fCori_min                    =  -1.4112379284621E-04
(PID.TID 0000.0001) %MON fCori_mean                   =   3.6726790147928E-06
(PID.TID 0000.0001) %MON fCori_sd                     =   9.7510077443651E-05
(PID.TID 0000.0001) %MON fCoriG_max                   =   1.4226580169407E-04
(PID.TID 0000.0001) %MON fCoriG_min                   =  -1.4226580169407E-04
(PID.TID 0000.0001) %MON fCoriG_mean                  =   7.5291817533716E-23
(PID.TID 0000.0001) %MON fCoriG_sd                    =   9.6335367303778E-05
(PID.TID 0000.0001)  PACKAGES_BOOT: opening data.pkg
(PID.TID 0000.0001)  OPEN_COPY_DATA_FILE: opening file data.pkg
(PID.TID 0000.0001) // =======================================================
(PID.TID 0000.0001) // Parameter file "data.pkg"
(PID.TID 0000.0001) // =======================================================
(PID.TID 0000.0001) ># Packages
(PID.TID 0000.0001) > &PACKAGES
(PID.TID 0000.0001) > useGMRedi=.TRUE.
(PID.TID 0000.0001) > &
(PID.TID 0000.0001) >
(PID.TID 0000.0001) 
(PID.TID 0000.0001)  PACKAGES_BOOT: finished reading data.pkg
(PID.TID 0000.0001)  GM_READPARMS: opening data.gmredi
(PID.TID 0000.0001)  OPEN_COPY_DATA_FILE: opening file data.gmredi
(PID.TID 0000.0001) // =======================================================
(PID.TID 0000.0001) // Parameter file "data.gmredi"
(PID.TID 0000.0001) // =======================================================
(PID.TID 0000.0001) ># from MOM
(PID.TID 0000.0001) ># GM_background_K: 	isopycnal diffusion coefficien
(PID.TID 0000.0001) ># GM_maxSlope:		max slope of isopycnals
(PID.TID 0000.0001) ># GM_Scrit:		transition for scaling diffusion coefficient
(PID.TID 0000.0001) ># GM_Sd:		half width scaling for diffusion coefficient
(PID.TID 0000.0001) ># real background diff:	horizontal diffusion
(PID.TID 0000.0001) >
(PID.TID 0000.0001) ># ifdef GM_VISBECK_VARIABLE_K, include following in GM_PARM01
(PID.TID 0000.0001) ># GM_Visbeck_alpha   = 0.,
(PID.TID 0000.0001) ># GM_Visbeck_length  = 2.e+5,
(PID.TID 0000.0001) ># GM_Visbeck_depth   = 1.e+3,
(PID.TID 0000.0001) ># GM_Visbeck_maxval_K= 2.5e+3,
(PID.TID 0000.0001) >
(PID.TID 0000.0001) > &GM_PARM01
(PID.TID 0000.0001) >  GM_background_K    = 1.e+3,
(PID.TID 0000.0001) >  GM_taper_scheme    = 'gkw91',
(PID.TID 0000.0001) >  GM_maxSlope        = 1.e-2,
(PID.TID 0000.0001) >  GM_Scrit           = 4.e-3,
(PID.TID 0000.0001) >  GM_Sd              = 1.e-3,
(PID.TID 0000.0001) > &end
(PID.TID 0000.0001) >
(PID.TID 0000.0001) >
(PID.TID 0000.0001) 
(PID.TID 0000.0001)  GM_READPARMS: finished reading data.gmredi
(PID.TID 0000.0001) GMREDI_CHECK: #define GMREDI
(PID.TID 0000.0001) // CG2D normalisation factor =          0.7375667548770356281382515E-04
(PID.TID 0000.0001) 
(PID.TID 0000.0001) // =======================================================
(PID.TID 0000.0001) // Model configuration
(PID.TID 0000.0001) // =======================================================
(PID.TID 0000.0001) //
(PID.TID 0000.0001) // "Physical" paramters ( PARM01 in namelist )
(PID.TID 0000.0001) //
(PID.TID 0000.0001) tRef =   /* Reference temperature profile ( oC or oK ) */
(PID.TID 0000.0001)    15 @  2.000000000000000E+01              /* K =  1: 15 */
(PID.TID 0000.0001)     ;
(PID.TID 0000.0001) sRef =   /* Reference salinity profile ( ppt ) */
(PID.TID 0000.0001)    15 @  3.500000000000000E+01              /* K =  1: 15 */
(PID.TID 0000.0001)     ;
(PID.TID 0000.0001) viscAh =   /* Lateral eddy viscosity ( m^2/s ) */
(PID.TID 0000.0001)                 5.000000000000000E+05
(PID.TID 0000.0001)     ;
(PID.TID 0000.0001) viscAh =   /* Lateral biharmonic viscosity ( m^4/s ) */
(PID.TID 0000.0001)                 0.000000000000000E+00
(PID.TID 0000.0001)     ;
(PID.TID 0000.0001) no_slip_sides =  /* Viscous BCs: No-slip sides */
(PID.TID 0000.0001)                   T
(PID.TID 0000.0001)     ;
(PID.TID 0000.0001) viscAz =   /* Vertical eddy viscosity ( m^2/s ) */
(PID.TID 0000.0001)                 1.000000000000000E-03
(PID.TID 0000.0001)     ;
(PID.TID 0000.0001) viscAr =   /* Vertical eddy viscosity ( units of r^2/s ) */
(PID.TID 0000.0001)                 1.000000000000000E-03
(PID.TID 0000.0001)     ;
(PID.TID 0000.0001) diffKhT =   /* Laplacian diffusion of heat laterally ( m^2/s ) */
(PID.TID 0000.0001)                 0.000000000000000E+00
(PID.TID 0000.0001)     ;
(PID.TID 0000.0001) diffK4T =   /* Bihaarmonic diffusion of heat laterally ( m^4/s ) */
(PID.TID 0000.0001)                 0.000000000000000E+00
(PID.TID 0000.0001)     ;
(PID.TID 0000.0001) diffKzT =   /* Laplacian diffusion of heat vertically ( m^2/s ) */
(PID.TID 0000.0001)                 3.000000000000000E-05
(PID.TID 0000.0001)     ;
(PID.TID 0000.0001) diffKrT =   /* Laplacian diffusion of heat vertically ( m^2/s ) */
(PID.TID 0000.0001)                 3.000000000000000E-05
(PID.TID 0000.0001)     ;
(PID.TID 0000.0001) diffKhS =   /* Laplacian diffusion of salt laterally ( m^2/s ) */
(PID.TID 0000.0001)                 0.000000000000000E+00
(PID.TID 0000.0001)     ;
(PID.TID 0000.0001) diffK4S =   /* Bihaarmonic diffusion of salt laterally ( m^4/s ) */
(PID.TID 0000.0001)                 0.000000000000000E+00
(PID.TID 0000.0001)     ;
(PID.TID 0000.0001) diffKzS =   /* Laplacian diffusion of salt vertically ( m^2/s ) */
(PID.TID 0000.0001)                 3.000000000000000E-05
(PID.TID 0000.0001)     ;
(PID.TID 0000.0001) diffKrS =   /* Laplacian diffusion of salt vertically ( m^2/s ) */
(PID.TID 0000.0001)                 3.000000000000000E-05
(PID.TID 0000.0001)     ;
(PID.TID 0000.0001) tAlpha =   /* Linear EOS thermal expansion coefficient ( 1/degree ) */
(PID.TID 0000.0001)                 2.000000000000000E-04
(PID.TID 0000.0001)     ;
(PID.TID 0000.0001) sBeta =   /* Linear EOS haline contraction coefficient ( 1/ppt ) */
(PID.TID 0000.0001)                 7.400000000000000E-04
(PID.TID 0000.0001)     ;
(PID.TID 0000.0001)   1  13.497  32.600  24.570  -0.202   0.771  -0.005  -0.002   0.000   0.000   0.000   0.000   0.000
(PID.TID 0000.0001)   2  13.488  32.600  24.840  -0.203   0.770  -0.005  -0.002   0.000   0.000   0.000   0.000   0.000
(PID.TID 0000.0001)   3  13.476  32.600  25.221  -0.205   0.770  -0.005  -0.002   0.000   0.000   0.000   0.000   0.000
(PID.TID 0000.0001)   4   8.469  35.150  28.657  -0.163   0.781  -0.005  -0.002   0.001   0.000   0.000   0.000   0.000
(PID.TID 0000.0001)   5   8.451  35.150  29.405  -0.167   0.780  -0.005  -0.002   0.001   0.000   0.000   0.000   0.000
(PID.TID 0000.0001)   6   5.940  34.900  30.574  -0.145   0.784  -0.006  -0.002   0.001   0.000   0.000   0.000   0.000
(PID.TID 0000.0001)   7   4.425  34.900  31.991  -0.135   0.786  -0.006  -0.003   0.000   0.000   0.000   0.000   0.000
(PID.TID 0000.0001)   8   2.911  34.750  33.505  -0.125   0.787  -0.006  -0.003   0.000   0.000   0.000   0.000   0.000
(PID.TID 0000.0001)   9   1.893  34.800  35.333  -0.123   0.787  -0.006  -0.003   0.000   0.000   0.000   0.000   0.000
(PID.TID 0000.0001)  10   1.367  34.800  37.279  -0.129   0.785  -0.006  -0.003  -0.001   0.000   0.000   0.000   0.000
(PID.TID 0000.0001)  11   1.328  34.800  39.372  -0.141   0.781  -0.006  -0.003  -0.002   0.000   0.000   0.000   0.000
(PID.TID 0000.0001)  12   0.792  34.800  41.739  -0.149   0.778  -0.006  -0.003  -0.001   0.000   0.000   0.000   0.000
(PID.TID 0000.0001)  13   0.737  34.750  44.192  -0.163   0.774  -0.005  -0.002  -0.003   0.000   0.000   0.000   0.000
(PID.TID 0000.0001)  14   0.188  34.750  46.956  -0.174   0.770  -0.005  -0.002  -0.002   0.000   0.000   0.000   0.000
(PID.TID 0000.0001)  15   0.596  34.750  49.726  -0.195   0.764  -0.005  -0.002  -0.001   0.000   0.000   0.000   0.000
(PID.TID 0000.0001) rhonil =   /* Reference density ( kg/m^3 ) */
(PID.TID 0000.0001)                 1.035000000000000E+03
(PID.TID 0000.0001)     ;
(PID.TID 0000.0001) rhoConst =   /* Reference density ( kg/m^3 ) */
(PID.TID 0000.0001)                 1.035000000000000E+03
(PID.TID 0000.0001)     ;
(PID.TID 0000.0001) gravity =   /* Gravitational acceleration ( m/s^2 ) */
(PID.TID 0000.0001)                 9.810000000000000E+00
(PID.TID 0000.0001)     ;
(PID.TID 0000.0001) gBaro =   /* Barotropic gravity ( m/s^2 ) */
(PID.TID 0000.0001)                 9.810000000000000E+00
(PID.TID 0000.0001)     ;
(PID.TID 0000.0001) f0 =   /* Reference coriolis parameter ( 1/s ) */
(PID.TID 0000.0001)                 1.000000000000000E-04
(PID.TID 0000.0001)     ;
(PID.TID 0000.0001) beta =   /* Beta ( 1/(m.s) ) */
(PID.TID 0000.0001)                 9.999999999999999E-12
(PID.TID 0000.0001)     ;
(PID.TID 0000.0001) freeSurfFac =   /* Implicit free surface factor */
(PID.TID 0000.0001)                 1.000000000000000E+00
(PID.TID 0000.0001)     ;
(PID.TID 0000.0001) implicitFreeSurface =   /* Implicit free surface on/off flag */
(PID.TID 0000.0001)                   T
(PID.TID 0000.0001)     ;
(PID.TID 0000.0001) rigidLid =   /* Rigid lid on/off flag */
(PID.TID 0000.0001)                   F
(PID.TID 0000.0001)     ;
(PID.TID 0000.0001) implicSurfPress =   /* Surface Pressure implicit factor (0-1)*/
(PID.TID 0000.0001)                 1.000000000000000E+00
(PID.TID 0000.0001)     ;
(PID.TID 0000.0001) implicDiv2Dflow =   /* Barot. Flow Div. implicit factor (0-1)*/
(PID.TID 0000.0001)                 1.000000000000000E+00
(PID.TID 0000.0001)     ;
(PID.TID 0000.0001) staggerTimeStep =   /* Stagger time stepping on/off flag */
(PID.TID 0000.0001)                   F
(PID.TID 0000.0001)     ;
(PID.TID 0000.0001) momStepping =  /* Momentum equation on/off flag */
(PID.TID 0000.0001)                   T
(PID.TID 0000.0001)     ;
(PID.TID 0000.0001) momAdvection =  /* Momentum advection on/off flag */
(PID.TID 0000.0001)                   T
(PID.TID 0000.0001)     ;
(PID.TID 0000.0001) momViscosity =  /* Momentum viscosity on/off flag */
(PID.TID 0000.0001)                   T
(PID.TID 0000.0001)     ;
(PID.TID 0000.0001) useCoriolis =  /* Coriolis on/off flag */
(PID.TID 0000.0001)                   T
(PID.TID 0000.0001)     ;
(PID.TID 0000.0001) momForcing =  /* Momentum forcing on/off flag */
(PID.TID 0000.0001)                   T
(PID.TID 0000.0001)     ;
(PID.TID 0000.0001) momPressureForcing =  /* Momentum pressure term on/off flag */
(PID.TID 0000.0001)                   T
(PID.TID 0000.0001)     ;
(PID.TID 0000.0001) tempStepping =  /* Temperature equation on/off flag */
(PID.TID 0000.0001)                   T
(PID.TID 0000.0001)     ;
(PID.TID 0000.0001) nonHydrostatic =  /* Non-Hydrostatic on/off flag */
(PID.TID 0000.0001)                   F
(PID.TID 0000.0001)     ;
(PID.TID 0000.0001) //
(PID.TID 0000.0001) // Elliptic solver(s) paramters ( PARM02 in namelist )
(PID.TID 0000.0001) //
(PID.TID 0000.0001) cg2dMaxIters =   /* Upper limit on 2d con. grad iterations  */
(PID.TID 0000.0001)                    1000
(PID.TID 0000.0001)     ;
(PID.TID 0000.0001) cg2dChkResFreq =   /* 2d con. grad convergence test frequency */
(PID.TID 0000.0001)                       1
(PID.TID 0000.0001)     ;
(PID.TID 0000.0001) cg2dTargetResidual =   /* 2d con. grad target residual  */
(PID.TID 0000.0001)                 1.000000000000000E-17
(PID.TID 0000.0001)     ;
(PID.TID 0000.0001) //
(PID.TID 0000.0001) // Time stepping paramters ( PARM03 in namelist )
(PID.TID 0000.0001) //
(PID.TID 0000.0001) nIter0 =   /* Base timestep number  */
(PID.TID 0000.0001)                       0
(PID.TID 0000.0001)     ;
(PID.TID 0000.0001) nTimeSteps =   /* Number of timesteps */
(PID.TID 0000.0001)                      20
(PID.TID 0000.0001)     ;
(PID.TID 0000.0001) deltatTmom =   /* Momentum equation timestep ( s ) */
(PID.TID 0000.0001)                 1.200000000000000E+03
(PID.TID 0000.0001)     ;
(PID.TID 0000.0001) deltatTtracer =   /* Tracer equation timestep ( s ) */
(PID.TID 0000.0001)                 4.320000000000000E+04
(PID.TID 0000.0001)     ;
(PID.TID 0000.0001) deltatTClock  =   /* Model clock timestep ( s ) */
(PID.TID 0000.0001)                 4.320000000000000E+04
(PID.TID 0000.0001)     ;
(PID.TID 0000.0001) cAdjFreq =   /* Convective adjustment interval ( s ) */
(PID.TID 0000.0001)                 0.000000000000000E+00
(PID.TID 0000.0001)     ;
(PID.TID 0000.0001) abeps =   /* Adams-Bashforth stabilizing weight */
(PID.TID 0000.0001)                 1.000000000000000E-01
(PID.TID 0000.0001)     ;
(PID.TID 0000.0001) tauCD =   /* CD coupling time-scale ( s ) */
(PID.TID 0000.0001)                 3.214280000000000E+05
(PID.TID 0000.0001)     ;
(PID.TID 0000.0001) rCD =   /* Normalised CD coupling parameter */
(PID.TID 0000.0001)                 9.962666600296178E-01
(PID.TID 0000.0001)     ;
(PID.TID 0000.0001) startTime =   /* Run start time ( s ). */
(PID.TID 0000.0001)                 0.000000000000000E+00
(PID.TID 0000.0001)     ;
(PID.TID 0000.0001) endTime =   /* Integration ending time ( s ). */
(PID.TID 0000.0001)                 8.640000000000000E+05
(PID.TID 0000.0001)     ;
(PID.TID 0000.0001) pChkPtFreq =   /* Permanent restart/checkpoint file interval ( s ). */
(PID.TID 0000.0001)                 3.110400000000000E+07
(PID.TID 0000.0001)     ;
(PID.TID 0000.0001) chkPtFreq =   /* Rolling restart/checkpoint file interval ( s ). */
(PID.TID 0000.0001)                 3.110400000000000E+07
(PID.TID 0000.0001)     ;
(PID.TID 0000.0001) dumpFreq =   /* Model state write out interval ( s ). */
(PID.TID 0000.0001)                 3.110400000000000E+07
(PID.TID 0000.0001)     ;
(PID.TID 0000.0001) //
(PID.TID 0000.0001) // Gridding paramters ( PARM04 in namelist )
(PID.TID 0000.0001) //
(PID.TID 0000.0001) usingCartesianGrid =   /* Cartesian coordinates flag ( True / False ) */
(PID.TID 0000.0001)                   F
(PID.TID 0000.0001)     ;
(PID.TID 0000.0001) usingSphericalPolarGrid =   /* Spherical coordinates flag ( True / False ) */
(PID.TID 0000.0001)                   T
(PID.TID 0000.0001)     ;
(PID.TID 0000.0001) groundAtK1 =   /* Lower Boundary (ground) at the surface(k=1) ( T / F ) */
(PID.TID 0000.0001)                   F
(PID.TID 0000.0001)     ;
(PID.TID 0000.0001) Ro_SeaLevel =   /* r(1) ( units of r ) */
(PID.TID 0000.0001)                 0.000000000000000E+00
(PID.TID 0000.0001)     ;
(PID.TID 0000.0001) rkFac =   /* minus Vertical index orientation  */
(PID.TID 0000.0001)                 1.000000000000000E+00
(PID.TID 0000.0001)     ;
(PID.TID 0000.0001) horiVertRatio =   /* Ratio on units : Horiz - Vertical */
(PID.TID 0000.0001)                 1.000000000000000E+00
(PID.TID 0000.0001)     ;
(PID.TID 0000.0001) delZ =   /* W spacing ( m ) */
(PID.TID 0000.0001)                 5.000000000000000E+01,      /* K =  1 */
(PID.TID 0000.0001)                 7.000000000000000E+01,      /* K =  2 */
(PID.TID 0000.0001)                 1.000000000000000E+02,      /* K =  3 */
(PID.TID 0000.0001)                 1.400000000000000E+02,      /* K =  4 */
(PID.TID 0000.0001)                 1.900000000000000E+02,      /* K =  5 */
(PID.TID 0000.0001)                 2.400000000000000E+02,      /* K =  6 */
(PID.TID 0000.0001)                 2.900000000000000E+02,      /* K =  7 */
(PID.TID 0000.0001)                 3.400000000000000E+02,      /* K =  8 */
(PID.TID 0000.0001)                 3.900000000000000E+02,      /* K =  9 */
(PID.TID 0000.0001)                 4.400000000000000E+02,      /* K = 10 */
(PID.TID 0000.0001)                 4.900000000000000E+02,      /* K = 11 */
(PID.TID 0000.0001)                 5.400000000000000E+02,      /* K = 12 */
(PID.TID 0000.0001)                 5.900000000000000E+02,      /* K = 13 */
(PID.TID 0000.0001)                 6.400000000000000E+02,      /* K = 14 */
(PID.TID 0000.0001)                 6.900000000000000E+02       /* K = 15 */
(PID.TID 0000.0001)     ;
(PID.TID 0000.0001) delP =   /* W spacing ( Pa ) */
(PID.TID 0000.0001)    15 @  1.234567000000000E+05              /* K =  1: 15 */
(PID.TID 0000.0001)     ;
(PID.TID 0000.0001) delR =   /* W spacing ( units of r ) */
(PID.TID 0000.0001)                 5.000000000000000E+01,      /* K =  1 */
(PID.TID 0000.0001)                 7.000000000000000E+01,      /* K =  2 */
(PID.TID 0000.0001)                 1.000000000000000E+02,      /* K =  3 */
(PID.TID 0000.0001)                 1.400000000000000E+02,      /* K =  4 */
(PID.TID 0000.0001)                 1.900000000000000E+02,      /* K =  5 */
(PID.TID 0000.0001)                 2.400000000000000E+02,      /* K =  6 */
(PID.TID 0000.0001)                 2.900000000000000E+02,      /* K =  7 */
(PID.TID 0000.0001)                 3.400000000000000E+02,      /* K =  8 */
(PID.TID 0000.0001)                 3.900000000000000E+02,      /* K =  9 */
(PID.TID 0000.0001)                 4.400000000000000E+02,      /* K = 10 */
(PID.TID 0000.0001)                 4.900000000000000E+02,      /* K = 11 */
(PID.TID 0000.0001)                 5.400000000000000E+02,      /* K = 12 */
(PID.TID 0000.0001)                 5.900000000000000E+02,      /* K = 13 */
(PID.TID 0000.0001)                 6.400000000000000E+02,      /* K = 14 */
(PID.TID 0000.0001)                 6.900000000000000E+02       /* K = 15 */
(PID.TID 0000.0001)     ;
(PID.TID 0000.0001) delX =   /* U spacing ( m - cartesian, degrees - spherical ) */
(PID.TID 0000.0001)    90 @  4.000000000000000E+00              /* I =  1: 90 */
(PID.TID 0000.0001)     ;
(PID.TID 0000.0001) delY =   /* V spacing ( m - cartesian, degrees - spherical ) */
(PID.TID 0000.0001)    40 @  4.000000000000000E+00              /* J =  1: 40 */
(PID.TID 0000.0001)     ;
(PID.TID 0000.0001) phiMin =    /* South edge (ignored - cartesian, degrees - spherical ) */
(PID.TID 0000.0001)                -7.800000000000000E+01
(PID.TID 0000.0001)     ;
(PID.TID 0000.0001) thetaMin =    /* West edge ( ignored - cartesian, degrees - spherical ) */
(PID.TID 0000.0001)                 0.000000000000000E+00
(PID.TID 0000.0001)     ;
(PID.TID 0000.0001) rSphere =    /* Radius ( ignored - cartesian, m - spherical ) */
(PID.TID 0000.0001)                 6.370000000000000E+06
(PID.TID 0000.0001)     ;
(PID.TID 0000.0001) xcoord =   /* P-point X coord ( m - cartesian, degrees - spherical ) */
(PID.TID 0000.0001)                 2.000000000000000E+00,      /* I =  1 */
(PID.TID 0000.0001)                 6.000000000000000E+00,      /* I =  2 */
(PID.TID 0000.0001)                 1.000000000000000E+01,      /* I =  3 */
(PID.TID 0000.0001)                 1.400000000000000E+01,      /* I =  4 */
(PID.TID 0000.0001)                 1.800000000000000E+01,      /* I =  5 */
(PID.TID 0000.0001)                 2.200000000000000E+01,      /* I =  6 */
(PID.TID 0000.0001)                 2.600000000000000E+01,      /* I =  7 */
(PID.TID 0000.0001)                 3.000000000000000E+01,      /* I =  8 */
(PID.TID 0000.0001)                 3.400000000000000E+01,      /* I =  9 */
(PID.TID 0000.0001)                 3.800000000000000E+01,      /* I = 10 */
(PID.TID 0000.0001)                 4.200000000000000E+01,      /* I = 11 */
(PID.TID 0000.0001)                 4.600000000000000E+01,      /* I = 12 */
(PID.TID 0000.0001)                 5.000000000000000E+01,      /* I = 13 */
(PID.TID 0000.0001)                 5.400000000000000E+01,      /* I = 14 */
(PID.TID 0000.0001)                 5.800000000000000E+01,      /* I = 15 */
(PID.TID 0000.0001)                 6.200000000000000E+01,      /* I = 16 */
(PID.TID 0000.0001)                 6.600000000000000E+01,      /* I = 17 */
(PID.TID 0000.0001)                 7.000000000000000E+01,      /* I = 18 */
(PID.TID 0000.0001)                 7.400000000000000E+01,      /* I = 19 */
(PID.TID 0000.0001)                 7.800000000000000E+01,      /* I = 20 */
(PID.TID 0000.0001)                 8.200000000000000E+01,      /* I = 21 */
(PID.TID 0000.0001)                 8.600000000000000E+01,      /* I = 22 */
(PID.TID 0000.0001)                 9.000000000000000E+01,      /* I = 23 */
(PID.TID 0000.0001)                 9.400000000000000E+01,      /* I = 24 */
(PID.TID 0000.0001)                 9.800000000000000E+01,      /* I = 25 */
(PID.TID 0000.0001)                 1.020000000000000E+02,      /* I = 26 */
(PID.TID 0000.0001)                 1.060000000000000E+02,      /* I = 27 */
(PID.TID 0000.0001)                 1.100000000000000E+02,      /* I = 28 */
(PID.TID 0000.0001)                 1.140000000000000E+02,      /* I = 29 */
(PID.TID 0000.0001)                 1.180000000000000E+02,      /* I = 30 */
(PID.TID 0000.0001)                 1.220000000000000E+02,      /* I = 31 */
(PID.TID 0000.0001)                 1.260000000000000E+02,      /* I = 32 */
(PID.TID 0000.0001)                 1.300000000000000E+02,      /* I = 33 */
(PID.TID 0000.0001)                 1.340000000000000E+02,      /* I = 34 */
(PID.TID 0000.0001)                 1.380000000000000E+02,      /* I = 35 */
(PID.TID 0000.0001)                 1.420000000000000E+02,      /* I = 36 */
(PID.TID 0000.0001)                 1.460000000000000E+02,      /* I = 37 */
(PID.TID 0000.0001)                 1.500000000000000E+02,      /* I = 38 */
(PID.TID 0000.0001)                 1.540000000000000E+02,      /* I = 39 */
(PID.TID 0000.0001)                 1.580000000000000E+02,      /* I = 40 */
(PID.TID 0000.0001)                 1.620000000000000E+02,      /* I = 41 */
(PID.TID 0000.0001)                 1.660000000000000E+02,      /* I = 42 */
(PID.TID 0000.0001)                 1.700000000000000E+02,      /* I = 43 */
(PID.TID 0000.0001)                 1.740000000000000E+02,      /* I = 44 */
(PID.TID 0000.0001)                 1.780000000000000E+02,      /* I = 45 */
(PID.TID 0000.0001)                 1.820000000000000E+02,      /* I = 46 */
(PID.TID 0000.0001)                 1.860000000000000E+02,      /* I = 47 */
(PID.TID 0000.0001)                 1.900000000000000E+02,      /* I = 48 */
(PID.TID 0000.0001)                 1.940000000000000E+02,      /* I = 49 */
(PID.TID 0000.0001)                 1.980000000000000E+02,      /* I = 50 */
(PID.TID 0000.0001)                 2.020000000000000E+02,      /* I = 51 */
(PID.TID 0000.0001)                 2.060000000000000E+02,      /* I = 52 */
(PID.TID 0000.0001)                 2.100000000000000E+02,      /* I = 53 */
(PID.TID 0000.0001)                 2.140000000000000E+02,      /* I = 54 */
(PID.TID 0000.0001)                 2.180000000000000E+02,      /* I = 55 */
(PID.TID 0000.0001)                 2.220000000000000E+02,      /* I = 56 */
(PID.TID 0000.0001)                 2.260000000000000E+02,      /* I = 57 */
(PID.TID 0000.0001)                 2.300000000000000E+02,      /* I = 58 */
(PID.TID 0000.0001)                 2.340000000000000E+02,      /* I = 59 */
(PID.TID 0000.0001)                 2.380000000000000E+02,      /* I = 60 */
(PID.TID 0000.0001)                 2.420000000000000E+02,      /* I = 61 */
(PID.TID 0000.0001)                 2.460000000000000E+02,      /* I = 62 */
(PID.TID 0000.0001)                 2.500000000000000E+02,      /* I = 63 */
(PID.TID 0000.0001)                 2.540000000000000E+02,      /* I = 64 */
(PID.TID 0000.0001)                 2.580000000000000E+02,      /* I = 65 */
(PID.TID 0000.0001)                 2.620000000000000E+02,      /* I = 66 */
(PID.TID 0000.0001)                 2.660000000000000E+02,      /* I = 67 */
(PID.TID 0000.0001)                 2.700000000000000E+02,      /* I = 68 */
(PID.TID 0000.0001)                 2.740000000000000E+02,      /* I = 69 */
(PID.TID 0000.0001)                 2.780000000000000E+02,      /* I = 70 */
(PID.TID 0000.0001)                 2.820000000000000E+02,      /* I = 71 */
(PID.TID 0000.0001)                 2.860000000000000E+02,      /* I = 72 */
(PID.TID 0000.0001)                 2.900000000000000E+02,      /* I = 73 */
(PID.TID 0000.0001)                 2.940000000000000E+02,      /* I = 74 */
(PID.TID 0000.0001)                 2.980000000000000E+02,      /* I = 75 */
(PID.TID 0000.0001)                 3.020000000000000E+02,      /* I = 76 */
(PID.TID 0000.0001)                 3.060000000000000E+02,      /* I = 77 */
(PID.TID 0000.0001)                 3.100000000000000E+02,      /* I = 78 */
(PID.TID 0000.0001)                 3.140000000000000E+02,      /* I = 79 */
(PID.TID 0000.0001)                 3.180000000000000E+02,      /* I = 80 */
(PID.TID 0000.0001)                 3.220000000000000E+02,      /* I = 81 */
(PID.TID 0000.0001)                 3.260000000000000E+02,      /* I = 82 */
(PID.TID 0000.0001)                 3.300000000000000E+02,      /* I = 83 */
(PID.TID 0000.0001)                 3.340000000000000E+02,      /* I = 84 */
(PID.TID 0000.0001)                 3.380000000000000E+02,      /* I = 85 */
(PID.TID 0000.0001)                 3.420000000000000E+02,      /* I = 86 */
(PID.TID 0000.0001)                 3.460000000000000E+02,      /* I = 87 */
(PID.TID 0000.0001)                 3.500000000000000E+02,      /* I = 88 */
(PID.TID 0000.0001)                 3.540000000000000E+02,      /* I = 89 */
(PID.TID 0000.0001)                 3.580000000000000E+02       /* I = 90 */
(PID.TID 0000.0001)     ;
(PID.TID 0000.0001) ycoord =   /* P-point Y coord ( m - cartesian, degrees - spherical ) */
(PID.TID 0000.0001)                -7.600000000000000E+01,      /* J =  1 */
(PID.TID 0000.0001)                -7.200000000000000E+01,      /* J =  2 */
(PID.TID 0000.0001)                -6.800000000000000E+01,      /* J =  3 */
(PID.TID 0000.0001)                -6.400000000000000E+01,      /* J =  4 */
(PID.TID 0000.0001)                -6.000000000000000E+01,      /* J =  5 */
(PID.TID 0000.0001)                -5.600000000000000E+01,      /* J =  6 */
(PID.TID 0000.0001)                -5.200000000000000E+01,      /* J =  7 */
(PID.TID 0000.0001)                -4.800000000000000E+01,      /* J =  8 */
(PID.TID 0000.0001)                -4.400000000000000E+01,      /* J =  9 */
(PID.TID 0000.0001)                -4.000000000000000E+01,      /* J = 10 */
(PID.TID 0000.0001)                -3.600000000000000E+01,      /* J = 11 */
(PID.TID 0000.0001)                -3.200000000000000E+01,      /* J = 12 */
(PID.TID 0000.0001)                -2.800000000000000E+01,      /* J = 13 */
(PID.TID 0000.0001)                -2.400000000000000E+01,      /* J = 14 */
(PID.TID 0000.0001)                -2.000000000000000E+01,      /* J = 15 */
(PID.TID 0000.0001)                -1.600000000000000E+01,      /* J = 16 */
(PID.TID 0000.0001)                -1.200000000000000E+01,      /* J = 17 */
(PID.TID 0000.0001)                -8.000000000000000E+00,      /* J = 18 */
(PID.TID 0000.0001)                -4.000000000000000E+00,      /* J = 19 */
(PID.TID 0000.0001)                 0.000000000000000E+00,      /* J = 20 */
(PID.TID 0000.0001)                 4.000000000000000E+00,      /* J = 21 */
(PID.TID 0000.0001)                 8.000000000000000E+00,      /* J = 22 */
(PID.TID 0000.0001)                 1.200000000000000E+01,      /* J = 23 */
(PID.TID 0000.0001)                 1.600000000000000E+01,      /* J = 24 */
(PID.TID 0000.0001)                 2.000000000000000E+01,      /* J = 25 */
(PID.TID 0000.0001)                 2.400000000000000E+01,      /* J = 26 */
(PID.TID 0000.0001)                 2.800000000000000E+01,      /* J = 27 */
(PID.TID 0000.0001)                 3.200000000000000E+01,      /* J = 28 */
(PID.TID 0000.0001)                 3.600000000000000E+01,      /* J = 29 */
(PID.TID 0000.0001)                 4.000000000000000E+01,      /* J = 30 */
(PID.TID 0000.0001)                 4.400000000000000E+01,      /* J = 31 */
(PID.TID 0000.0001)                 4.800000000000000E+01,      /* J = 32 */
(PID.TID 0000.0001)                 5.200000000000000E+01,      /* J = 33 */
(PID.TID 0000.0001)                 5.600000000000000E+01,      /* J = 34 */
(PID.TID 0000.0001)                 6.000000000000000E+01,      /* J = 35 */
(PID.TID 0000.0001)                 6.400000000000000E+01,      /* J = 36 */
(PID.TID 0000.0001)                 6.800000000000000E+01,      /* J = 37 */
(PID.TID 0000.0001)                 7.200000000000000E+01,      /* J = 38 */
(PID.TID 0000.0001)                 7.600000000000000E+01,      /* J = 39 */
(PID.TID 0000.0001)                 8.000000000000000E+01       /* J = 40 */
(PID.TID 0000.0001)     ;
(PID.TID 0000.0001) rcoord =   /* P-point R coordinate (  units of r ) */
(PID.TID 0000.0001)                -2.500000000000000E+01,      /* K =  1 */
(PID.TID 0000.0001)                -8.500000000000000E+01,      /* K =  2 */
(PID.TID 0000.0001)                -1.700000000000000E+02,      /* K =  3 */
(PID.TID 0000.0001)                -2.900000000000000E+02,      /* K =  4 */
(PID.TID 0000.0001)                -4.550000000000000E+02,      /* K =  5 */
(PID.TID 0000.0001)                -6.700000000000000E+02,      /* K =  6 */
(PID.TID 0000.0001)                -9.350000000000000E+02,      /* K =  7 */
(PID.TID 0000.0001)                -1.250000000000000E+03,      /* K =  8 */
(PID.TID 0000.0001)                -1.615000000000000E+03,      /* K =  9 */
(PID.TID 0000.0001)                -2.030000000000000E+03,      /* K = 10 */
(PID.TID 0000.0001)                -2.495000000000000E+03,      /* K = 11 */
(PID.TID 0000.0001)                -3.010000000000000E+03,      /* K = 12 */
(PID.TID 0000.0001)                -3.575000000000000E+03,      /* K = 13 */
(PID.TID 0000.0001)                -4.190000000000000E+03,      /* K = 14 */
(PID.TID 0000.0001)                -4.855000000000000E+03       /* K = 15 */
(PID.TID 0000.0001)     ;
(PID.TID 0000.0001) dxF =  /* dxF(:,1,:,1) ( m - cartesian, degrees - spherical ) */
(PID.TID 0000.0001)    90 @  1.075850604052271E+05              /* I =  1: 90 */
(PID.TID 0000.0001)     ;
(PID.TID 0000.0001) dxF =  /* dxF(1,:,1,:) ( m - cartesian, degrees - spherical ) */
(PID.TID 0000.0001)                 1.075850604052271E+05,      /* J =  1 */
(PID.TID 0000.0001)                 1.374229146297914E+05,      /* J =  2 */
(PID.TID 0000.0001)                 1.665912582279823E+05,      /* J =  3 */
(PID.TID 0000.0001)                 1.949479859617814E+05,      /* J =  4 */
(PID.TID 0000.0001)                 2.223549467040776E+05,      /* J =  5 */
(PID.TID 0000.0001)                 2.486786164970726E+05,      /* J =  6 */
(PID.TID 0000.0001)                 2.737907490675810E+05,      /* J =  7 */
(PID.TID 0000.0001)                 2.975690006299820E+05,      /* J =  8 */
(PID.TID 0000.0001)                 3.198975259328452E+05,      /* J =  9 */
(PID.TID 0000.0001)                 3.406675426453503E+05,      /* J = 10 */
(PID.TID 0000.0001)                 3.597778613338689E+05,      /* J = 11 */
(PID.TID 0000.0001)                 3.771353784467131E+05,      /* J = 12 */
(PID.TID 0000.0001)                 3.926555299052806E+05,      /* J = 13 */
(PID.TID 0000.0001)                 4.062627030917454E+05,      /* J = 14 */
(PID.TID 0000.0001)                 4.178906052261313E+05,      /* J = 15 */
(PID.TID 0000.0001)                 4.274825863380723E+05,      /* J = 16 */
(PID.TID 0000.0001)                 4.349919152597734E+05,      /* J = 17 */
(PID.TID 0000.0001)                 4.403820072955634E+05,      /* J = 18 */
(PID.TID 0000.0001)                 4.436266024588540E+05,      /* J = 19 */
(PID.TID 0000.0001)                 4.447098934081552E+05,      /* J = 20 */
(PID.TID 0000.0001)                 4.436266024588540E+05,      /* J = 21 */
(PID.TID 0000.0001)                 4.403820072955634E+05,      /* J = 22 */
(PID.TID 0000.0001)                 4.349919152597734E+05,      /* J = 23 */
(PID.TID 0000.0001)                 4.274825863380723E+05,      /* J = 24 */
(PID.TID 0000.0001)                 4.178906052261313E+05,      /* J = 25 */
(PID.TID 0000.0001)                 4.062627030917454E+05,      /* J = 26 */
(PID.TID 0000.0001)                 3.926555299052806E+05,      /* J = 27 */
(PID.TID 0000.0001)                 3.771353784467131E+05,      /* J = 28 */
(PID.TID 0000.0001)                 3.597778613338689E+05,      /* J = 29 */
(PID.TID 0000.0001)                 3.406675426453503E+05,      /* J = 30 */
(PID.TID 0000.0001)                 3.198975259328452E+05,      /* J = 31 */
(PID.TID 0000.0001)                 2.975690006299820E+05,      /* J = 32 */
(PID.TID 0000.0001)                 2.737907490675810E+05,      /* J = 33 */
(PID.TID 0000.0001)                 2.486786164970726E+05,      /* J = 34 */
(PID.TID 0000.0001)                 2.223549467040776E+05,      /* J = 35 */
(PID.TID 0000.0001)                 1.949479859617814E+05,      /* J = 36 */
(PID.TID 0000.0001)                 1.665912582279823E+05,      /* J = 37 */
(PID.TID 0000.0001)                 1.374229146297914E+05,      /* J = 38 */
(PID.TID 0000.0001)                 1.075850604052271E+05,      /* J = 39 */
(PID.TID 0000.0001)                 7.722306258078101E+04       /* J = 40 */
(PID.TID 0000.0001)     ;
(PID.TID 0000.0001) dyF =  /* dyF(:,1,:,1) ( m - cartesian, degrees - spherical ) */
(PID.TID 0000.0001)    90 @  4.447098934081552E+05              /* I =  1: 90 */
(PID.TID 0000.0001)     ;
(PID.TID 0000.0001) dyF =  /* dyF(1,:,1,:) ( m - cartesian, degrees - spherical ) */
(PID.TID 0000.0001)    40 @  4.447098934081552E+05              /* J =  1: 40 */
(PID.TID 0000.0001)     ;
(PID.TID 0000.0001) dxG =  /* dxG(:,1,:,1) ( m - cartesian, degrees - spherical ) */
(PID.TID 0000.0001)    90 @  9.246038586187513E+04              /* I =  1: 90 */
(PID.TID 0000.0001)     ;
(PID.TID 0000.0001) dxG =  /* dxG(1,:,1,:) ( m - cartesian, degrees - spherical ) */
(PID.TID 0000.0001)                 9.246038586187513E+04,      /* J =  1 */
(PID.TID 0000.0001)                 1.225786591246834E+05,      /* J =  2 */
(PID.TID 0000.0001)                 1.520997414818001E+05,      /* J =  3 */
(PID.TID 0000.0001)                 1.808798091874300E+05,      /* J =  4 */
(PID.TID 0000.0001)                 2.087786486446736E+05,      /* J =  5 */
(PID.TID 0000.0001)                 2.356603395120766E+05,      /* J =  6 */
(PID.TID 0000.0001)                 2.613939168938713E+05,      /* J =  7 */
(PID.TID 0000.0001)                 2.858540093877838E+05,      /* J =  8 */
(PID.TID 0000.0001)                 3.089214498819035E+05,      /* J =  9 */
(PID.TID 0000.0001)                 3.304838561248741E+05,      /* J = 10 */
(PID.TID 0000.0001)                 3.504361782409254E+05,      /* J = 11 */
(PID.TID 0000.0001)                 3.686812105223083E+05,      /* J = 12 */
(PID.TID 0000.0001)                 3.851300650057322E+05,      /* J = 13 */
(PID.TID 0000.0001)                 3.997026045255871E+05,      /* J = 14 */
(PID.TID 0000.0001)                 4.123278331341585E+05,      /* J = 15 */
(PID.TID 0000.0001)                 4.229442419867491E+05,      /* J = 16 */
(PID.TID 0000.0001)                 4.315001090065869E+05,      /* J = 17 */
(PID.TID 0000.0001)                 4.379537508695839E+05,      /* J = 18 */
(PID.TID 0000.0001)                 4.422737260813013E+05,      /* J = 19 */
(PID.TID 0000.0001)     2 @  4.444389881567501E+05,             /* J = 20: 21 */
(PID.TID 0000.0001)                 4.422737260813013E+05,      /* J = 22 */
(PID.TID 0000.0001)                 4.379537508695839E+05,      /* J = 23 */
(PID.TID 0000.0001)                 4.315001090065869E+05,      /* J = 24 */
(PID.TID 0000.0001)                 4.229442419867491E+05,      /* J = 25 */
(PID.TID 0000.0001)                 4.123278331341585E+05,      /* J = 26 */
(PID.TID 0000.0001)                 3.997026045255871E+05,      /* J = 27 */
(PID.TID 0000.0001)                 3.851300650057322E+05,      /* J = 28 */
(PID.TID 0000.0001)                 3.686812105223083E+05,      /* J = 29 */
(PID.TID 0000.0001)                 3.504361782409254E+05,      /* J = 30 */
(PID.TID 0000.0001)                 3.304838561248741E+05,      /* J = 31 */
(PID.TID 0000.0001)                 3.089214498819035E+05,      /* J = 32 */
(PID.TID 0000.0001)                 2.858540093877838E+05,      /* J = 33 */
(PID.TID 0000.0001)                 2.613939168938713E+05,      /* J = 34 */
(PID.TID 0000.0001)                 2.356603395120766E+05,      /* J = 35 */
(PID.TID 0000.0001)                 2.087786486446736E+05,      /* J = 36 */
(PID.TID 0000.0001)                 1.808798091874300E+05,      /* J = 37 */
(PID.TID 0000.0001)                 1.520997414818001E+05,      /* J = 38 */
(PID.TID 0000.0001)                 1.225786591246834E+05,      /* J = 39 */
(PID.TID 0000.0001)                 9.246038586187513E+04       /* J = 40 */
(PID.TID 0000.0001)     ;
(PID.TID 0000.0001) dyG =  /* dyG(:,1,:,1) ( m - cartesian, degrees - spherical ) */
(PID.TID 0000.0001)    90 @  4.447098934081552E+05              /* I =  1: 90 */
(PID.TID 0000.0001)     ;
(PID.TID 0000.0001) dyG =  /* dyG(1,:,1,:) ( m - cartesian, degrees - spherical ) */
(PID.TID 0000.0001)    40 @  4.447098934081552E+05              /* J =  1: 40 */
(PID.TID 0000.0001)     ;
(PID.TID 0000.0001) dxC =  /* dxC(:,1,:,1) ( m - cartesian, degrees - spherical ) */
(PID.TID 0000.0001)    90 @  1.075850604052271E+05              /* I =  1: 90 */
(PID.TID 0000.0001)     ;
(PID.TID 0000.0001) dxC =  /* dxC(1,:,1,:) ( m - cartesian, degrees - spherical ) */
(PID.TID 0000.0001)                 1.075850604052271E+05,      /* J =  1 */
(PID.TID 0000.0001)                 1.374229146297914E+05,      /* J =  2 */
(PID.TID 0000.0001)                 1.665912582279823E+05,      /* J =  3 */
(PID.TID 0000.0001)                 1.949479859617814E+05,      /* J =  4 */
(PID.TID 0000.0001)                 2.223549467040776E+05,      /* J =  5 */
(PID.TID 0000.0001)                 2.486786164970726E+05,      /* J =  6 */
(PID.TID 0000.0001)                 2.737907490675810E+05,      /* J =  7 */
(PID.TID 0000.0001)                 2.975690006299820E+05,      /* J =  8 */
(PID.TID 0000.0001)                 3.198975259328452E+05,      /* J =  9 */
(PID.TID 0000.0001)                 3.406675426453503E+05,      /* J = 10 */
(PID.TID 0000.0001)                 3.597778613338689E+05,      /* J = 11 */
(PID.TID 0000.0001)                 3.771353784467131E+05,      /* J = 12 */
(PID.TID 0000.0001)                 3.926555299052806E+05,      /* J = 13 */
(PID.TID 0000.0001)                 4.062627030917454E+05,      /* J = 14 */
(PID.TID 0000.0001)                 4.178906052261313E+05,      /* J = 15 */
(PID.TID 0000.0001)                 4.274825863380723E+05,      /* J = 16 */
(PID.TID 0000.0001)                 4.349919152597734E+05,      /* J = 17 */
(PID.TID 0000.0001)                 4.403820072955634E+05,      /* J = 18 */
(PID.TID 0000.0001)                 4.436266024588540E+05,      /* J = 19 */
(PID.TID 0000.0001)                 4.447098934081552E+05,      /* J = 20 */
(PID.TID 0000.0001)                 4.436266024588540E+05,      /* J = 21 */
(PID.TID 0000.0001)                 4.403820072955634E+05,      /* J = 22 */
(PID.TID 0000.0001)                 4.349919152597734E+05,      /* J = 23 */
(PID.TID 0000.0001)                 4.274825863380723E+05,      /* J = 24 */
(PID.TID 0000.0001)                 4.178906052261313E+05,      /* J = 25 */
(PID.TID 0000.0001)                 4.062627030917454E+05,      /* J = 26 */
(PID.TID 0000.0001)                 3.926555299052806E+05,      /* J = 27 */
(PID.TID 0000.0001)                 3.771353784467131E+05,      /* J = 28 */
(PID.TID 0000.0001)                 3.597778613338689E+05,      /* J = 29 */
(PID.TID 0000.0001)                 3.406675426453503E+05,      /* J = 30 */
(PID.TID 0000.0001)                 3.198975259328452E+05,      /* J = 31 */
(PID.TID 0000.0001)                 2.975690006299820E+05,      /* J = 32 */
(PID.TID 0000.0001)                 2.737907490675810E+05,      /* J = 33 */
(PID.TID 0000.0001)                 2.486786164970726E+05,      /* J = 34 */
(PID.TID 0000.0001)                 2.223549467040776E+05,      /* J = 35 */
(PID.TID 0000.0001)                 1.949479859617814E+05,      /* J = 36 */
(PID.TID 0000.0001)                 1.665912582279823E+05,      /* J = 37 */
(PID.TID 0000.0001)                 1.374229146297914E+05,      /* J = 38 */
(PID.TID 0000.0001)                 1.075850604052271E+05,      /* J = 39 */
(PID.TID 0000.0001)                 7.722306258078101E+04       /* J = 40 */
(PID.TID 0000.0001)     ;
(PID.TID 0000.0001) dyC =  /* dyC(:,1,:,1) ( m - cartesian, degrees - spherical ) */
(PID.TID 0000.0001)    90 @  4.447098934081552E+05              /* I =  1: 90 */
(PID.TID 0000.0001)     ;
(PID.TID 0000.0001) dyC =  /* dyC(1,:,1,:) ( m - cartesian, degrees - spherical ) */
(PID.TID 0000.0001)    40 @  4.447098934081552E+05              /* J =  1: 40 */
(PID.TID 0000.0001)     ;
(PID.TID 0000.0001) dxV =  /* dxV(:,1,:,1) ( m - cartesian, degrees - spherical ) */
(PID.TID 0000.0001)    90 @  9.246038586187513E+04              /* I =  1: 90 */
(PID.TID 0000.0001)     ;
(PID.TID 0000.0001) dxV =  /* dxV(1,:,1,:) ( m - cartesian, degrees - spherical ) */
(PID.TID 0000.0001)                 9.246038586187513E+04,      /* J =  1 */
(PID.TID 0000.0001)                 1.225786591246834E+05,      /* J =  2 */
(PID.TID 0000.0001)                 1.520997414818001E+05,      /* J =  3 */
(PID.TID 0000.0001)                 1.808798091874300E+05,      /* J =  4 */
(PID.TID 0000.0001)                 2.087786486446736E+05,      /* J =  5 */
(PID.TID 0000.0001)                 2.356603395120766E+05,      /* J =  6 */
(PID.TID 0000.0001)                 2.613939168938713E+05,      /* J =  7 */
(PID.TID 0000.0001)                 2.858540093877838E+05,      /* J =  8 */
(PID.TID 0000.0001)                 3.089214498819035E+05,      /* J =  9 */
(PID.TID 0000.0001)                 3.304838561248741E+05,      /* J = 10 */
(PID.TID 0000.0001)                 3.504361782409254E+05,      /* J = 11 */
(PID.TID 0000.0001)                 3.686812105223083E+05,      /* J = 12 */
(PID.TID 0000.0001)                 3.851300650057322E+05,      /* J = 13 */
(PID.TID 0000.0001)                 3.997026045255871E+05,      /* J = 14 */
(PID.TID 0000.0001)                 4.123278331341585E+05,      /* J = 15 */
(PID.TID 0000.0001)                 4.229442419867491E+05,      /* J = 16 */
(PID.TID 0000.0001)                 4.315001090065869E+05,      /* J = 17 */
(PID.TID 0000.0001)                 4.379537508695839E+05,      /* J = 18 */
(PID.TID 0000.0001)                 4.422737260813013E+05,      /* J = 19 */
(PID.TID 0000.0001)     2 @  4.444389881567501E+05,             /* J = 20: 21 */
(PID.TID 0000.0001)                 4.422737260813013E+05,      /* J = 22 */
(PID.TID 0000.0001)                 4.379537508695839E+05,      /* J = 23 */
(PID.TID 0000.0001)                 4.315001090065869E+05,      /* J = 24 */
(PID.TID 0000.0001)                 4.229442419867491E+05,      /* J = 25 */
(PID.TID 0000.0001)                 4.123278331341585E+05,      /* J = 26 */
(PID.TID 0000.0001)                 3.997026045255871E+05,      /* J = 27 */
(PID.TID 0000.0001)                 3.851300650057322E+05,      /* J = 28 */
(PID.TID 0000.0001)                 3.686812105223083E+05,      /* J = 29 */
(PID.TID 0000.0001)                 3.504361782409254E+05,      /* J = 30 */
(PID.TID 0000.0001)                 3.304838561248741E+05,      /* J = 31 */
(PID.TID 0000.0001)                 3.089214498819035E+05,      /* J = 32 */
(PID.TID 0000.0001)                 2.858540093877838E+05,      /* J = 33 */
(PID.TID 0000.0001)                 2.613939168938713E+05,      /* J = 34 */
(PID.TID 0000.0001)                 2.356603395120766E+05,      /* J = 35 */
(PID.TID 0000.0001)                 2.087786486446736E+05,      /* J = 36 */
(PID.TID 0000.0001)                 1.808798091874300E+05,      /* J = 37 */
(PID.TID 0000.0001)                 1.520997414818001E+05,      /* J = 38 */
(PID.TID 0000.0001)                 1.225786591246834E+05,      /* J = 39 */
(PID.TID 0000.0001)                 9.246038586187513E+04       /* J = 40 */
(PID.TID 0000.0001)     ;
(PID.TID 0000.0001) dyU =  /* dyU(:,1,:,1) ( m - cartesian, degrees - spherical ) */
(PID.TID 0000.0001)    90 @  4.447098934081552E+05              /* I =  1: 90 */
(PID.TID 0000.0001)     ;
(PID.TID 0000.0001) dyU =  /* dyU(1,:,1,:) ( m - cartesian, degrees - spherical ) */
(PID.TID 0000.0001)    40 @  4.447098934081552E+05              /* J =  1: 40 */
(PID.TID 0000.0001)     ;
(PID.TID 0000.0001) rA =  /* rA(:,1,:,1) ( m - cartesian, degrees - spherical ) */
(PID.TID 0000.0001)    90 @  4.783442523123644E+10              /* I =  1: 90 */
(PID.TID 0000.0001)     ;
(PID.TID 0000.0001) rA =  /* rA(1,:,1,:) ( m - cartesian, degrees - spherical ) */
(PID.TID 0000.0001)                 4.783442523123644E+10,      /* J =  1 */
(PID.TID 0000.0001)                 6.110091968306396E+10,      /* J =  2 */
(PID.TID 0000.0001)                 7.406973659603816E+10,      /* J =  3 */
(PID.TID 0000.0001)                 8.667769319778082E+10,      /* J =  4 */
(PID.TID 0000.0001)                 9.886336479107460E+10,      /* J =  5 */
(PID.TID 0000.0001)                 1.105673840088176E+11,      /* J =  6 */
(PID.TID 0000.0001)                 1.217327300458637E+11,      /* J =  7 */
(PID.TID 0000.0001)                 1.323050064586577E+11,      /* J =  8 */
(PID.TID 0000.0001)                 1.422327061792379E+11,      /* J =  9 */
(PID.TID 0000.0001)                 1.514674624524945E+11,      /* J = 10 */
(PID.TID 0000.0001)                 1.599642844741386E+11,      /* J = 11 */
(PID.TID 0000.0001)                 1.676817765813786E+11,      /* J = 12 */
(PID.TID 0000.0001)                 1.745823399284268E+11,      /* J = 13 */
(PID.TID 0000.0001)                 1.806323556642997E+11,      /* J = 14 */
(PID.TID 0000.0001)                 1.858023487204767E+11,      /* J = 15 */
(PID.TID 0000.0001)                 1.900671314104744E+11,      /* J = 16 */
(PID.TID 0000.0001)                 1.934059261417216E+11,      /* J = 17 */
(PID.TID 0000.0001)                 1.958024666419019E+11,      /* J = 18 */
(PID.TID 0000.0001)                 1.972450772065981E+11,      /* J = 19 */
(PID.TID 0000.0001)                 1.977267295821496E+11,      /* J = 20 */
(PID.TID 0000.0001)                 1.972450772065981E+11,      /* J = 21 */
(PID.TID 0000.0001)                 1.958024666419019E+11,      /* J = 22 */
(PID.TID 0000.0001)                 1.934059261417216E+11,      /* J = 23 */
(PID.TID 0000.0001)                 1.900671314104744E+11,      /* J = 24 */
(PID.TID 0000.0001)                 1.858023487204767E+11,      /* J = 25 */
(PID.TID 0000.0001)                 1.806323556642997E+11,      /* J = 26 */
(PID.TID 0000.0001)                 1.745823399284268E+11,      /* J = 27 */
(PID.TID 0000.0001)                 1.676817765813786E+11,      /* J = 28 */
(PID.TID 0000.0001)                 1.599642844741386E+11,      /* J = 29 */
(PID.TID 0000.0001)                 1.514674624524945E+11,      /* J = 30 */
(PID.TID 0000.0001)                 1.422327061792379E+11,      /* J = 31 */
(PID.TID 0000.0001)                 1.323050064586577E+11,      /* J = 32 */
(PID.TID 0000.0001)                 1.217327300458637E+11,      /* J = 33 */
(PID.TID 0000.0001)                 1.105673840088176E+11,      /* J = 34 */
(PID.TID 0000.0001)                 9.886336479107460E+10,      /* J = 35 */
(PID.TID 0000.0001)                 8.667769319778082E+10,      /* J = 36 */
(PID.TID 0000.0001)                 7.406973659603816E+10,      /* J = 37 */
(PID.TID 0000.0001)                 6.110091968306396E+10,      /* J = 38 */
(PID.TID 0000.0001)                 4.783442523123644E+10,      /* J = 39 */
(PID.TID 0000.0001)                 3.433488626798226E+10       /* J = 40 */
(PID.TID 0000.0001)     ;
(PID.TID 0000.0001) rAw =  /* rAw(:,1,:,1) ( m - cartesian, degrees - spherical ) */
(PID.TID 0000.0001)    90 @  4.783442523123644E+10              /* I =  1: 90 */
(PID.TID 0000.0001)     ;
(PID.TID 0000.0001) rAw =  /* rAw(1,:,1,:) ( m - cartesian, degrees - spherical ) */
(PID.TID 0000.0001)                 4.783442523123644E+10,      /* J =  1 */
(PID.TID 0000.0001)                 6.110091968306396E+10,      /* J =  2 */
(PID.TID 0000.0001)                 7.406973659603816E+10,      /* J =  3 */
(PID.TID 0000.0001)                 8.667769319778082E+10,      /* J =  4 */
(PID.TID 0000.0001)                 9.886336479107460E+10,      /* J =  5 */
(PID.TID 0000.0001)                 1.105673840088176E+11,      /* J =  6 */
(PID.TID 0000.0001)                 1.217327300458637E+11,      /* J =  7 */
(PID.TID 0000.0001)                 1.323050064586577E+11,      /* J =  8 */
(PID.TID 0000.0001)                 1.422327061792379E+11,      /* J =  9 */
(PID.TID 0000.0001)                 1.514674624524945E+11,      /* J = 10 */
(PID.TID 0000.0001)                 1.599642844741386E+11,      /* J = 11 */
(PID.TID 0000.0001)                 1.676817765813786E+11,      /* J = 12 */
(PID.TID 0000.0001)                 1.745823399284268E+11,      /* J = 13 */
(PID.TID 0000.0001)                 1.806323556642997E+11,      /* J = 14 */
(PID.TID 0000.0001)                 1.858023487204767E+11,      /* J = 15 */
(PID.TID 0000.0001)                 1.900671314104744E+11,      /* J = 16 */
(PID.TID 0000.0001)                 1.934059261417216E+11,      /* J = 17 */
(PID.TID 0000.0001)                 1.958024666419019E+11,      /* J = 18 */
(PID.TID 0000.0001)                 1.972450772065981E+11,      /* J = 19 */
(PID.TID 0000.0001)                 1.977267295821496E+11,      /* J = 20 */
(PID.TID 0000.0001)                 1.972450772065981E+11,      /* J = 21 */
(PID.TID 0000.0001)                 1.958024666419019E+11,      /* J = 22 */
(PID.TID 0000.0001)                 1.934059261417216E+11,      /* J = 23 */
(PID.TID 0000.0001)                 1.900671314104744E+11,      /* J = 24 */
(PID.TID 0000.0001)                 1.858023487204767E+11,      /* J = 25 */
(PID.TID 0000.0001)                 1.806323556642997E+11,      /* J = 26 */
(PID.TID 0000.0001)                 1.745823399284268E+11,      /* J = 27 */
(PID.TID 0000.0001)                 1.676817765813786E+11,      /* J = 28 */
(PID.TID 0000.0001)                 1.599642844741386E+11,      /* J = 29 */
(PID.TID 0000.0001)                 1.514674624524945E+11,      /* J = 30 */
(PID.TID 0000.0001)                 1.422327061792379E+11,      /* J = 31 */
(PID.TID 0000.0001)                 1.323050064586577E+11,      /* J = 32 */
(PID.TID 0000.0001)                 1.217327300458637E+11,      /* J = 33 */
(PID.TID 0000.0001)                 1.105673840088176E+11,      /* J = 34 */
(PID.TID 0000.0001)                 9.886336479107460E+10,      /* J = 35 */
(PID.TID 0000.0001)                 8.667769319778082E+10,      /* J = 36 */
(PID.TID 0000.0001)                 7.406973659603816E+10,      /* J = 37 */
(PID.TID 0000.0001)                 6.110091968306396E+10,      /* J = 38 */
(PID.TID 0000.0001)                 4.783442523123644E+10,      /* J = 39 */
(PID.TID 0000.0001)                 3.433488626798226E+10       /* J = 40 */
(PID.TID 0000.0001)     ;
(PID.TID 0000.0001) rAs =  /* rAs(:,1,:,1) ( m - cartesian, degrees - spherical ) */
(PID.TID 0000.0001)    90 @  4.110969866729052E+10              /* I =  1: 90 */
(PID.TID 0000.0001)     ;
(PID.TID 0000.0001) rAs =  /* rAs(1,:,1,:) ( m - cartesian, degrees - spherical ) */
(PID.TID 0000.0001)                 4.110969866729052E+10,      /* J =  1 */
(PID.TID 0000.0001)                 5.450087291636662E+10,      /* J =  2 */
(PID.TID 0000.0001)                 6.762652439100241E+10,      /* J =  3 */
(PID.TID 0000.0001)                 8.042270623660014E+10,      /* J =  4 */
(PID.TID 0000.0001)                 9.282707674147511E+10,      /* J =  5 */
(PID.TID 0000.0001)                 1.047792030594104E+11,      /* J =  6 */
(PID.TID 0000.0001)                 1.162208556324094E+11,      /* J =  7 */
(PID.TID 0000.0001)                 1.270962918792466E+11,      /* J =  8 */
(PID.TID 0000.0001)                 1.373525277677230E+11,      /* J =  9 */
(PID.TID 0000.0001)                 1.469395959475424E+11,      /* J = 10 */
(PID.TID 0000.0001)                 1.558107891862222E+11,      /* J = 11 */
(PID.TID 0000.0001)                 1.639228879220324E+11,      /* J = 12 */
(PID.TID 0000.0001)                 1.712363708253575E+11,      /* J = 13 */
(PID.TID 0000.0001)                 1.777156073426414E+11,      /* J = 14 */
(PID.TID 0000.0001)                 1.833290312848624E+11,      /* J = 15 */
(PID.TID 0000.0001)                 1.880492946148330E+11,      /* J = 16 */
(PID.TID 0000.0001)                 1.918534006840893E+11,      /* J = 17 */
(PID.TID 0000.0001)                 1.947228162702492E+11,      /* J = 18 */
(PID.TID 0000.0001)                 1.966435618690094E+11,      /* J = 19 */
(PID.TID 0000.0001)     2 @  1.976062798008856E+11,             /* J = 20: 21 */
(PID.TID 0000.0001)                 1.966435618690094E+11,      /* J = 22 */
(PID.TID 0000.0001)                 1.947228162702492E+11,      /* J = 23 */
(PID.TID 0000.0001)                 1.918534006840893E+11,      /* J = 24 */
(PID.TID 0000.0001)                 1.880492946148330E+11,      /* J = 25 */
(PID.TID 0000.0001)                 1.833290312848624E+11,      /* J = 26 */
(PID.TID 0000.0001)                 1.777156073426414E+11,      /* J = 27 */
(PID.TID 0000.0001)                 1.712363708253575E+11,      /* J = 28 */
(PID.TID 0000.0001)                 1.639228879220324E+11,      /* J = 29 */
(PID.TID 0000.0001)                 1.558107891862222E+11,      /* J = 30 */
(PID.TID 0000.0001)                 1.469395959475424E+11,      /* J = 31 */
(PID.TID 0000.0001)                 1.373525277677230E+11,      /* J = 32 */
(PID.TID 0000.0001)                 1.270962918792466E+11,      /* J = 33 */
(PID.TID 0000.0001)                 1.162208556324094E+11,      /* J = 34 */
(PID.TID 0000.0001)                 1.047792030594104E+11,      /* J = 35 */
(PID.TID 0000.0001)                 9.282707674147511E+10,      /* J = 36 */
(PID.TID 0000.0001)                 8.042270623660014E+10,      /* J = 37 */
(PID.TID 0000.0001)                 6.762652439100241E+10,      /* J = 38 */
(PID.TID 0000.0001)                 5.450087291636662E+10,      /* J = 39 */
(PID.TID 0000.0001)                 4.110969866729052E+10       /* J = 40 */
(PID.TID 0000.0001)     ;
(PID.TID 0000.0001) 
(PID.TID 0000.0001)  MDSREADFIELD: opening global file: theta.bin
(PID.TID 0000.0001) // =======================================================
(PID.TID 0000.0001) // Field Initial Temperature at iteration          1
(PID.TID 0000.0001) // CMIN =         -2.511639595031738E+00
(PID.TID 0000.0001) // CMAX =          2.946808624267578E+01
(PID.TID 0000.0001) // CINT =          1.184434290285464E+00
(PID.TID 0000.0001) // SYMBOLS (CMIN->CMAX): -abcdefghijklmnopqrstuvwxyz+
(PID.TID 0000.0001) //                  0.0: .
(PID.TID 0000.0001) // RANGE I (Lo:Hi:Step):(   1:  90:   1)
(PID.TID 0000.0001) // RANGE J (Lo:Hi:Step):(  40:   1:  -1)
(PID.TID 0000.0001) // RANGE K (Lo:Hi:Step):(   1:   1:   1)
(PID.TID 0000.0001) // =======================================================
(PID.TID 0000.0001) K =   1
(PID.TID 0000.0001)                I=10      I=20      I=30      I=40      I=50      I=60      I=70      I=80      I=90
(PID.TID 0000.0001) |--J--|123456789|123456789|123456789|123456789|123456789|123456789|123456789|123456789|123456789|
(PID.TID 0000.0001)     40 ..........................................................................................
(PID.TID 0000.0001)     39 cdeee................................................................................aaaab
(PID.TID 0000.0001)     38 fgggg...............................................................................abbbde
(PID.TID 0000.0001)     37 hhh........................................................................bb....deee.eeef
(PID.TID 0000.0001)     36 h..........................................bbba-..........................bccd.efghhiiihhh
(PID.TID 0000.0001)     35 hh.................................--aa.bbcddddccd.efgggg..................cdeeffghijjjj..
(PID.TID 0000.0001)     34 ....................................aabbcdeeeeeeeeffffghhh..................befgghijkkkk..
(PID.TID 0000.0001)     33 ....................................abccddeeeeefffffggghiii...............dd.cfjkkkllllkk.
(PID.TID 0000.0001)     32 ....................................bcddeefffgggghhhhiiijjj...............dcbcglnnmmmmml..
(PID.TID 0000.0001)     31 ....................................efhhiiijjjjjjjjkkkllllk.............hhklkjnppooonnm...
(PID.TID 0000.0001)     30 ...................................mmmnmmmmnmmmmmmmmnnnnnnm............loqrrrrrqqqpppooo..
(PID.TID 0000.0001)     29 ...............................qqqqqqqqqqqpppppppppppqqqpponn.........sssssssrrrrrrrqqqq..
(PID.TID 0000.0001)     28 ..............................ppssssssssssssrrrrrssrsssrrqppp......tt.uutttttttsttsssrr...
(PID.TID 0000.0001)     27 ...............................uuttuuuuuuuuuuuuuuuuuuttsssrrqrr...uuvvwvvvvvvvuuuuttts....
(PID.TID 0000.0001)     26 ...............vwv....v.....uuvvvvwwwwxxwwwwwwwwwwvvvuuutttsstuu..v.wwwxxxwwwwwvvuuutr....
(PID.TID 0000.0001)     25 .............wwwxx..xxxx...wvw.xxxyyyyyyyxxxxxxxxwwwvvvvvvvvvwwxx....yyxxxxxxxwwwvvutr....
(PID.TID 0000.0001)     24 ............wwwxxyy.xyyy...wxy.yyyyyyyyyyyyxxxxxxxxwwwwwwwwxxxyyyxwx.yyx.xxxxxxwwwwvus....
(PID.TID 0000.0001)     23 .............xxyyzzyyyyz.zyxyyyyzzzzzzzzyyyyyyyyyyyxxxxxxxxyyyyxxxwww......xyyxxxxxwwvv...
(PID.TID 0000.0001)     22 xx..........xyyyzzzyzzzz..xx..yzzzzzzzzzzzzzzzzzzyyyyyyyxxxxyyxxwxxxyx.......yyyyyyyyyxxxx
(PID.TID 0000.0001)     21 yy.........xxyyyzzzzzzzzz.....zzzzzz++++++zzzzyzyyyyyyxxwwwwwwwvwwwwwv........yyyyyyyyyyyy
(PID.TID 0000.0001)     20 xxx.......yyyyyyyzzzzzzz+.......z...z++++++zzzzzzyyyyyxxxwwwwvvvvvuuu............yyyxxxxxx
(PID.TID 0000.0001)     19 wvv.......zzzyyxxyzzzzzzzzz.zzzzzz...++++++++++++zzzyyyyxxxxxwwwwwwwvt...........yyyxxxwxx
(PID.TID 0000.0001)     18 vut.......zzzyyxxyyzzzzzzzzzz++z....z+++++++++++++++zzzzyyyxxxwwwvvwvuu..........yyyxxvvww
(PID.TID 0000.0001)     17 uut.......z..zyyyyyyzzzyyyzyzz+......zzzzzzzz++zzzzzzzzzzyyyxwwvvuvvuut..........yyxxwuuvv
(PID.TID 0000.0001)     16 uur......yy.yyyyyxxyyyyxxxxxy........zzyyzyyzyzzzyyyzyyyyyyxxwwvvvuuutts........yyyxxwvuuu
(PID.TID 0000.0001)     15 uts......yy.yyxxxwwwwwwwwvww..........yxxxxxxxxxxxxxxxxxxxxxxwvvvvuutsss.......xxxxxxwwvvu
(PID.TID 0000.0001)     14 utsp....xyxxxxwwwwwvuuuuuuuv...........wwwwwwwwwwwwwvvwwwwwwwwvvvuuutssr......uwwwwwwwvvvu
(PID.TID 0000.0001)     13 tttr...vwwwvvuuuuuutuutttttt..........wvvuuuuuuuuuuutuuuuvvwwvuuuttttssq.....vvvvvvuvvuuut
(PID.TID 0000.0001)     12 sssssttuuutssssssssrstsrrrrss.srrr....uuttssssssssrrrrrrrsttttttssssrrrp....tuuttsssssssss
(PID.TID 0000.0001)     11 ppprssssrrrqqqqqppoppqpopppppppppppqrrssrrr.rrqqqqqqppppqqrrppqqqqqqqqp....ppssrqqqqpppppp
(PID.TID 0000.0001)     10 lllnooonmmmmlnnnnnmmmnmlmmllmmnmnnooopqppp.ppppppoooooooooonmnnnoonnnoo...omoponmmnnnmmmll
(PID.TID 0000.0001)      9 ihhihhiihhhhghiihiiiijiiiijjjjkklmmmmnnmmnmlmmnnnnnmmmmmmllkkklmllkllmm...mlmmllkjiijjihhi
(PID.TID 0000.0001)      8 ffeeeeefeeefggffeeefgggffgggghiijijjjjkkkkkjjklllllllkkkkjjiijkkkjjjjjk..kkjjiihggffffeeee
(PID.TID 0000.0001)      7 ccccccddddddeedeedddddddeeffffffggfffghhiiiiijjjiiihhhhhhhhhhhiiiiiiiiiiiiihhgfedddcddcccc
(PID.TID 0000.0001)      6 bbbbccccccccccccdccccdddddddddeeddeedeeefghgggggfeeeddeeffffeefggggghhhhhgfeeddccbbbbbbbbb
(PID.TID 0000.0001)      5 bbcccbbbbcccccccccccccccc.cccccdddccccccddeeeeeedcbbbbcccdddddddeeeeeedddd.cbbbbbbbbbbbbbb
(PID.TID 0000.0001)      4 bbbbbbbb.b..............................bbbbbbbbbbbbbbbbbbbbbbbbbbbbbbbb...baaaaabbbbbbbbb
(PID.TID 0000.0001)      3 ...........................................baaaaabbbbaaaaaaaabbbb..........bbaaaaaabbb....
(PID.TID 0000.0001)      2 ...........................................bbbbaaaa...........................aaaa........
(PID.TID 0000.0001)      1 ..........................................................................................
(PID.TID 0000.0001) // =======================================================
(PID.TID 0000.0001) // END OF FIELD                                          =
(PID.TID 0000.0001) // =======================================================
(PID.TID 0000.0001) 
(PID.TID 0000.0001)  MDSREADFIELD: opening global file: sal.bin
(PID.TID 0000.0001) // =======================================================
(PID.TID 0000.0001) // Field Initial Salinity at iteration          1
(PID.TID 0000.0001) // CMIN =          3.166564941406250E+01
(PID.TID 0000.0001) // CMAX =          3.739540100097656E+01
(PID.TID 0000.0001) // CINT =          2.122130217375579E-01
(PID.TID 0000.0001) // SYMBOLS (CMIN->CMAX): -abcdefghijklmnopqrstuvwxyz+
(PID.TID 0000.0001) //                  0.0: .
(PID.TID 0000.0001) // RANGE I (Lo:Hi:Step):(   1:  90:   1)
(PID.TID 0000.0001) // RANGE J (Lo:Hi:Step):(  40:   1:  -1)
(PID.TID 0000.0001) // RANGE K (Lo:Hi:Step):(   1:   1:   1)
(PID.TID 0000.0001) // =======================================================
(PID.TID 0000.0001) K =   1
(PID.TID 0000.0001)                I=10      I=20      I=30      I=40      I=50      I=60      I=70      I=80      I=90
(PID.TID 0000.0001) |--J--|123456789|123456789|123456789|123456789|123456789|123456789|123456789|123456789|123456789|
(PID.TID 0000.0001)     40 ..........................................................................................
(PID.TID 0000.0001)     39 ppppo................................................................................lmmno
(PID.TID 0000.0001)     38 pponn...............................................................................jlmnop
(PID.TID 0000.0001)     37 ppn........................................................................hh....mnnn.ooop
(PID.TID 0000.0001)     36 o..........................................eddc-..........................hjjk.mopppqqpqqq
(PID.TID 0000.0001)     35 oo.................................ffff.ffggggec-a.ccdddd..................knnnnoopppqrq..
(PID.TID 0000.0001)     34 ....................................ffgffggggggeccdefeedbb..................hloonoppqrrr..
(PID.TID 0000.0001)     33 ....................................cfgfffffffeeeeeeeedddcc...............hh.imopqqrrrrqq.
(PID.TID 0000.0001)     32 ....................................cfgggggggggggffffeeeedc...............a-cflqssssssss..
(PID.TID 0000.0001)     31 ....................................hijjjjjkkkkkjiiihhggfee.............ggjlmmruuttttss...
(PID.TID 0000.0001)     30 ...................................mmmmmmmmnnmmmllkkkjjhgff............mruvwvuuuuuuuuuuu..
(PID.TID 0000.0001)     29 ...............................nnnnoonnnnnnooonnmmnnnmmljhghi.........tuwwwwwwwvvvvwwwww..
(PID.TID 0000.0001)     28 ..............................llooooonnooopppppppppppppomkiii......rt.vwwwxxxxxyxxyyyxw...
(PID.TID 0000.0001)     27 ...............................ooooopooppqqqqqqqrqqqqqqqonlkkln...vvvvvwwwxxyy+++zzzyx....
(PID.TID 0000.0001)     26 ...............wwv....r.....nmnoooopppppppqqqqrqqqppooooonnmmmnp..v.vvvvvvvwxy++++zyxv....
(PID.TID 0000.0001)     25 .............vvvwu..jgef...klk.nnoooopppooopopppponnmlmmmmmmmlmlm....tsssstuvxyyxxwuut....
(PID.TID 0000.0001)     24 ............tttvvso.fgff...jii.mmnnnooononnnnnonmnmllllkkkkkjiiijkkn.sss.tssrtuuuttssr....
(PID.TID 0000.0001)     23 .............tstroljgihf.aeihikllllmmmmmmlmmmmmllmlllllmmllkjijjjkklm......ssstuuttsrrr...
(PID.TID 0000.0001)     22 tt..........tsrrqnnmmllj..ii..klmmmnonnmmmnnnnnnnnnnnnnoommmlkkkkkkjfe.......uuutttsrqqqqq
(PID.TID 0000.0001)     21 ok.........rrqqpppppponll.....klnnnnnnnnnnooooppqpppppoooooomnmmmlkigg........utttttsrqqpo
(PID.TID 0000.0001)     20 poo.......qrrqpppqpopomkh.......n...mmnooooppqrqqrqqqqppqpppopoonnnon............uuuttssrr
(PID.TID 0000.0001)     19 ssq.......qqqpppoomlmmlkiji.gfjmmm...lnonnpppqrrrsssrrqqrqqpppppoopoon...........vvvuttuut
(PID.TID 0000.0001)     18 vus.......qppoooonllllllllllkkno....nnnnnnoooqrrrsssrssstssrrrrrqrsrqpq..........xxwvvvvvv
(PID.TID 0000.0001)     17 vut.......q..poooonmlmmnnmnnnno......pponopppssqprssstuuuuuttttstsrrrqp..........yyyyyxwww
(PID.TID 0000.0001)     16 tts......qq.opppppnonmmoooooo........qqpopqqprsrprsttuvvvvvvvvuuussrrqqp........yz+zzyxwvv
(PID.TID 0000.0001)     15 tsq......qq.opqpqqqqqooppqqp..........qqqrrrpqrqrsssstuuuuvwwvvuutrrqppp.......wxyyxxyxwvu
(PID.TID 0000.0001)     14 ssqp....qqqpppqqrsssssstsssr...........rrrsrrrrrrrrsssrrrstuuutttsrqpooo......uwwvvvvwvuuu
(PID.TID 0000.0001)     13 sssq...rrrrrrrrrssssttssttts..........rrssssrrrrrrrssqqpqqrrrrrqqpoonnml.....uvvutttttsstt
(PID.TID 0000.0001)     12 rrsrrrrrrsrrrrrrrrrrrrqqsttss.ssts....rrrrrrrrrrqqqqqpppooooonnnnnmmlmlk....oputssrrrrrqrs
(PID.TID 0000.0001)     11 onprrrrrrrrrrrrrqqqqppooqrqrrrqqpqqrrrrrrrq.qqqpppoonnnnnmlllllkkllkklk....kkqsrqrrpppoono
(PID.TID 0000.0001)     10 mlmnppppnnnnmnoppponnnnnnoooooooooppqqqqpp.pppppoonmmllmllkkkkkkkkkkkki...iknoonnoonnnnnnm
(PID.TID 0000.0001)      9 kkkkkkkkkkkkjjkkkkkjklllllmmmmmnnnnnooonnonmmmnnnnnmmmmmlllllllkkkkkkkg...ikmnnmmllkkllllk
(PID.TID 0000.0001)      8 jjjkkkkkkkkkkjjjjjjjkkkkjkkkkkkllllmmmnmmmmlllmmmnmmmmllllmlllllllllklk..giklllkkkkkkkkkkk
(PID.TID 0000.0001)      7 kkklkkkkkkkllkkkkkkkkkkkjjjjjjjjkkkkkkkklllllllllllkkkkkkllllllllllllmmiijkkkkkjjjkjjjjjjj
(PID.TID 0000.0001)      6 kkkkjjkjjjjjkkkkkkkkkkkkkjjjjjjjjjjjjjjjjjjkkkkkkkkkkkkkkkkkklllllllllllkkkkkkkkjjjjiijjjj
(PID.TID 0000.0001)      5 kkkkjjjjjjjjjjjjjjjjjjkkk.kjjjjjjkjjjjjjjjjjkkkkkkkkkkkkjjjjkkkkkkkklkkkjj.kkkkjjjjjjkkkkk
(PID.TID 0000.0001)      4 llkkkjjk.k..............................jkkkkkkklllkkjjjiiiijjjiiijjjjjj...kkjjkkkklllkkkk
(PID.TID 0000.0001)      3 ...........................................kkkjkkkkkjjiiiijjjjjjj..........kklllllllll....
(PID.TID 0000.0001)      2 ...........................................lllkkkkk...........................mmll........
(PID.TID 0000.0001)      1 ..........................................................................................
(PID.TID 0000.0001) // =======================================================
(PID.TID 0000.0001) // END OF FIELD                                          =
(PID.TID 0000.0001) // =======================================================
(PID.TID 0000.0001) 
(PID.TID 0000.0001)  MDSREADFIELD: opening global file: tren_taux.bin
(PID.TID 0000.0001)  MDSREADFIELD: opening global file: tren_tauy.bin
(PID.TID 0000.0001)  MDSREADFIELD: opening global file: shi_qnet.bin
(PID.TID 0000.0001)  MDSREADFIELD: opening global file: shi_empr.bin
(PID.TID 0000.0001)  MDSREADFIELD: opening global file: theta_surf.bin
(PID.TID 0000.0001)  MDSREADFIELD: opening global file: sal_surf.bin
(PID.TID 0000.0001) // =======================================================
(PID.TID 0000.0001) // Model current state
(PID.TID 0000.0001) // =======================================================
(PID.TID 0000.0001) 
(PID.TID 0000.0001) // =======================================================
(PID.TID 0000.0001) // Begin MONITOR dynamic field statistics
(PID.TID 0000.0001) // =======================================================
(PID.TID 0000.0001) %MON time_tsnumber                =                     0
(PID.TID 0000.0001) %MON time_secondsf                =   0.0000000000000E+00
(PID.TID 0000.0001) %MON time_secondsi                =                     0
(PID.TID 0000.0001) %MON dynstat_eta_max              =   0.0000000000000E+00
(PID.TID 0000.0001) %MON dynstat_eta_min              =   0.0000000000000E+00
(PID.TID 0000.0001) %MON dynstat_eta_mean             =   0.0000000000000E+00
(PID.TID 0000.0001) %MON dynstat_eta_sd               =   0.0000000000000E+00
(PID.TID 0000.0001) %MON dynstat_eta_del2             =   0.0000000000000E+00
(PID.TID 0000.0001) %MON dynstat_uvel_max             =   0.0000000000000E+00
(PID.TID 0000.0001) %MON dynstat_uvel_min             =   0.0000000000000E+00
(PID.TID 0000.0001) %MON dynstat_uvel_mean            =   0.0000000000000E+00
(PID.TID 0000.0001) %MON dynstat_uvel_sd              =   0.0000000000000E+00
(PID.TID 0000.0001) %MON dynstat_uvel_del2            =   0.0000000000000E+00
(PID.TID 0000.0001) %MON dynstat_vvel_max             =   0.0000000000000E+00
(PID.TID 0000.0001) %MON dynstat_vvel_min             =   0.0000000000000E+00
(PID.TID 0000.0001) %MON dynstat_vvel_mean            =   0.0000000000000E+00
(PID.TID 0000.0001) %MON dynstat_vvel_sd              =   0.0000000000000E+00
(PID.TID 0000.0001) %MON dynstat_vvel_del2            =   0.0000000000000E+00
(PID.TID 0000.0001) %MON dynstat_wvel_max             =   0.0000000000000E+00
(PID.TID 0000.0001) %MON dynstat_wvel_min             =   0.0000000000000E+00
(PID.TID 0000.0001) %MON dynstat_wvel_mean            =   0.0000000000000E+00
(PID.TID 0000.0001) %MON dynstat_wvel_sd              =   0.0000000000000E+00
(PID.TID 0000.0001) %MON dynstat_wvel_del2            =   0.0000000000000E+00
(PID.TID 0000.0001) %MON dynstat_theta_max            =   2.9468086242676E+01
(PID.TID 0000.0001) %MON dynstat_theta_min            =  -2.5116395950317E+00
(PID.TID 0000.0001) %MON dynstat_theta_mean           =   3.4705461492347E+00
(PID.TID 0000.0001) %MON dynstat_theta_sd             =   4.2402245232329E+00
(PID.TID 0000.0001) %MON dynstat_theta_del2           =   1.5375138401156E-01
(PID.TID 0000.0001) %MON dynstat_salt_max             =   3.7402008056641E+01
(PID.TID 0000.0001) %MON dynstat_salt_min             =   3.1665649414062E+01
(PID.TID 0000.0001) %MON dynstat_salt_mean            =   3.4719323675863E+01
(PID.TID 0000.0001) %MON dynstat_salt_sd              =   2.8104212645721E-01
(PID.TID 0000.0001) %MON dynstat_salt_del2            =   2.4955272592180E-02
(PID.TID 0000.0001) %MON advcfl_uvel_max              =   0.0000000000000E+00
(PID.TID 0000.0001) %MON advcfl_vvel_max              =   0.0000000000000E+00
(PID.TID 0000.0001) %MON advcfl_wvel_max              =   0.0000000000000E+00
(PID.TID 0000.0001) %MON advcfl_W_hf_max              =   0.0000000000000E+00
(PID.TID 0000.0001) %MON ke_max                       =   0.0000000000000E+00
(PID.TID 0000.0001) %MON ke_mean                      =   0.0000000000000E+00
(PID.TID 0000.0001) %MON ke_volint                    =   0.0000000000000E+00
(PID.TID 0000.0001) %MON ke_volmean                   =   0.0000000000000E+00
(PID.TID 0000.0001) // =======================================================
(PID.TID 0000.0001) // End MONITOR dynamic field statistics
(PID.TID 0000.0001) // =======================================================
 S/R EXTERNAL_FIELDS_LOAD: Reading new data  0. 0
(PID.TID 0000.0001)  MDSREADFIELD: opening global file: tren_taux.bin
(PID.TID 0000.0001)  MDSREADFIELD: opening global file: tren_taux.bin
(PID.TID 0000.0001)  MDSREADFIELD: opening global file: tren_tauy.bin
(PID.TID 0000.0001)  MDSREADFIELD: opening global file: tren_tauy.bin
(PID.TID 0000.0001)  MDSREADFIELD: opening global file: shi_qnet.bin
(PID.TID 0000.0001)  MDSREADFIELD: opening global file: shi_qnet.bin
(PID.TID 0000.0001)  MDSREADFIELD: opening global file: shi_empr.bin
(PID.TID 0000.0001)  MDSREADFIELD: opening global file: shi_empr.bin
(PID.TID 0000.0001)  MDSREADFIELD: opening global file: theta_surf.bin
(PID.TID 0000.0001)  MDSREADFIELD: opening global file: theta_surf.bin
(PID.TID 0000.0001)  MDSREADFIELD: opening global file: sal_surf.bin
(PID.TID 0000.0001)  MDSREADFIELD: opening global file: sal_surf.bin
time,SST,SSS,fu,fv,Q,E-P,i0,i1,a,b =   0.0000E+00  0.0000E+00  0.0000E+00  0.0000E+00  0.0000E+00  2.4389E-01  0.0000E+00    12     1  5.0000E-01  5.0000E-01
time,fu0,fu1,fu =   0.0000E+00  0.0000E+00  0.0000E+00  0.0000E+00  5.0000E-01  5.0000E-01
 cg2d: Sum(rhs),rhsMax =   6.30745455865167E-15  2.92934433413851E+00
(PID.TID 0000.0001)                    cg2d_init_res =    6.28101049391337E+00
(PID.TID 0000.0001)                       cg2d_iters =    30
(PID.TID 0000.0001)                         cg2d_res =    2.17434230043815E-18
(PID.TID 0000.0001) // =======================================================
(PID.TID 0000.0001) // Begin MONITOR dynamic field statistics
(PID.TID 0000.0001) // =======================================================
(PID.TID 0000.0001) %MON time_tsnumber                =                     1
(PID.TID 0000.0001) %MON time_secondsf                =   4.3200000000000E+04
(PID.TID 0000.0001) %MON time_secondsi                =                 43200
(PID.TID 0000.0001) %MON dynstat_eta_max              =   1.2965945173527E-01
(PID.TID 0000.0001) %MON dynstat_eta_min              =  -1.4742405589625E-01
(PID.TID 0000.0001) %MON dynstat_eta_mean             =   7.3941102310975E-19
(PID.TID 0000.0001) %MON dynstat_eta_sd               =   2.7815690198747E-02
(PID.TID 0000.0001) %MON dynstat_eta_del2             =   1.1580616689925E-02
(PID.TID 0000.0001) %MON dynstat_uvel_max             =   7.6889830474032E-03
(PID.TID 0000.0001) %MON dynstat_uvel_min             =  -8.9072479547210E-03
(PID.TID 0000.0001) %MON dynstat_uvel_mean            =  -3.3930936820337E-04
(PID.TID 0000.0001) %MON dynstat_uvel_sd              =   1.1013980138751E-03
(PID.TID 0000.0001) %MON dynstat_uvel_del2            =   3.3482206453628E-04
(PID.TID 0000.0001) %MON dynstat_vvel_max             =   1.7097888078750E-02
(PID.TID 0000.0001) %MON dynstat_vvel_min             =  -1.6285445607561E-02
(PID.TID 0000.0001) %MON dynstat_vvel_mean            =   9.3754111050149E-04
(PID.TID 0000.0001) %MON dynstat_vvel_sd              =   3.4586543022488E-03
(PID.TID 0000.0001) %MON dynstat_vvel_del2            =   4.9498020314432E-04
(PID.TID 0000.0001) %MON dynstat_wvel_max             =   0.0000000000000E+00
(PID.TID 0000.0001) %MON dynstat_wvel_min             =   0.0000000000000E+00
(PID.TID 0000.0001) %MON dynstat_wvel_mean            =   0.0000000000000E+00
(PID.TID 0000.0001) %MON dynstat_wvel_sd              =   0.0000000000000E+00
(PID.TID 0000.0001) %MON dynstat_wvel_del2            =   0.0000000000000E+00
(PID.TID 0000.0001) %MON dynstat_theta_max            =   2.9475378049884E+01
(PID.TID 0000.0001) %MON dynstat_theta_min            =  -1.8983425752574E+00
(PID.TID 0000.0001) %MON dynstat_theta_mean           =   3.4705826564796E+00
(PID.TID 0000.0001) %MON dynstat_theta_sd             =   4.2400066795531E+00
(PID.TID 0000.0001) %MON dynstat_theta_del2           =   1.5376327241773E-01
(PID.TID 0000.0001) %MON dynstat_salt_max             =   3.7401976553769E+01
(PID.TID 0000.0001) %MON dynstat_salt_min             =   3.1664490468198E+01
(PID.TID 0000.0001) %MON dynstat_salt_mean            =   3.4719323642420E+01
(PID.TID 0000.0001) %MON dynstat_salt_sd              =   2.8093870863466E-01
(PID.TID 0000.0001) %MON dynstat_salt_del2            =   2.5058088744805E-02
(PID.TID 0000.0001) %MON advcfl_uvel_max              =   1.5976785592346E-03
(PID.TID 0000.0001) %MON advcfl_vvel_max              =   1.6609227182721E-03
(PID.TID 0000.0001) %MON advcfl_wvel_max              =   0.0000000000000E+00
(PID.TID 0000.0001) %MON advcfl_W_hf_max              =   0.0000000000000E+00
(PID.TID 0000.0001) %MON ke_max                       =   1.3973673493401E-04
(PID.TID 0000.0001) %MON ke_mean                      =   5.5029452115058E-06
(PID.TID 0000.0001) %MON ke_volint                    =   9.3826452292699E+12
(PID.TID 0000.0001) %MON ke_volmean                   =   6.4720891782280E-06
(PID.TID 0000.0001) // =======================================================
(PID.TID 0000.0001) // End MONITOR dynamic field statistics
(PID.TID 0000.0001) // =======================================================
time,SST,SSS,fu,fv,Q,E-P,i0,i1,a,b =   4.3200E+04  0.0000E+00  0.0000E+00  0.0000E+00  0.0000E+00  2.3576E-01  0.0000E+00    12     1  5.1667E-01  4.8333E-01
time,fu0,fu1,fu =   4.3200E+04  0.0000E+00  0.0000E+00  0.0000E+00  5.1667E-01  4.8333E-01
 cg2d: Sum(rhs),rhsMax =  -4.80171458150380E-15  5.02852709606441E+00
(PID.TID 0000.0001)                    cg2d_init_res =    3.98206821549309E+00
(PID.TID 0000.0001)                       cg2d_iters =    29
(PID.TID 0000.0001)                         cg2d_res =    8.69676804653713E-18
(PID.TID 0000.0001) // =======================================================
(PID.TID 0000.0001) // Begin MONITOR dynamic field statistics
(PID.TID 0000.0001) // =======================================================
(PID.TID 0000.0001) %MON time_tsnumber                =                     2
(PID.TID 0000.0001) %MON time_secondsf                =   8.6400000000000E+04
(PID.TID 0000.0001) %MON time_secondsi                =                 86400
(PID.TID 0000.0001) %MON dynstat_eta_max              =   2.6055374393659E-01
(PID.TID 0000.0001) %MON dynstat_eta_min              =  -2.8927991065431E-01
(PID.TID 0000.0001) %MON dynstat_eta_mean             =   2.2469675678326E-18
(PID.TID 0000.0001) %MON dynstat_eta_sd               =   6.4557642510314E-02
(PID.TID 0000.0001) %MON dynstat_eta_del2             =   2.2415469588931E-02
(PID.TID 0000.0001) %MON dynstat_uvel_max             =   1.6303448244253E-02
(PID.TID 0000.0001) %MON dynstat_uvel_min             =  -1.6678959535156E-02
(PID.TID 0000.0001) %MON dynstat_uvel_mean            =  -8.5830321416648E-04
(PID.TID 0000.0001) %MON dynstat_uvel_sd              =   1.9542792266454E-03
(PID.TID 0000.0001) %MON dynstat_uvel_del2            =   6.1791477580275E-04
(PID.TID 0000.0001) %MON dynstat_vvel_max             =   3.0492254910859E-02
(PID.TID 0000.0001) %MON dynstat_vvel_min             =  -2.7398903557490E-02
(PID.TID 0000.0001) %MON dynstat_vvel_mean            =   1.8242260272778E-03
(PID.TID 0000.0001) %MON dynstat_vvel_sd              =   6.3235031591046E-03
(PID.TID 0000.0001) %MON dynstat_vvel_del2            =   8.8172376628417E-04
(PID.TID 0000.0001) %MON dynstat_wvel_max             =   1.1581504179293E-04
(PID.TID 0000.0001) %MON dynstat_wvel_min             =  -1.3438811162648E-04
(PID.TID 0000.0001) %MON dynstat_wvel_mean            =   9.3719823396740E-23
(PID.TID 0000.0001) %MON dynstat_wvel_sd              =   1.7379382638303E-05
(PID.TID 0000.0001) %MON dynstat_wvel_del2            =   8.5422144339682E-06
(PID.TID 0000.0001) %MON dynstat_theta_max            =   2.9471907441321E+01
(PID.TID 0000.0001) %MON dynstat_theta_min            =  -1.8983607199576E+00
(PID.TID 0000.0001) %MON dynstat_theta_mean           =   3.4697303204188E+00
(PID.TID 0000.0001) %MON dynstat_theta_sd             =   4.2381928577781E+00
(PID.TID 0000.0001) %MON dynstat_theta_del2           =   1.5136367679716E-01
(PID.TID 0000.0001) %MON dynstat_salt_max             =   3.7399559259529E+01
(PID.TID 0000.0001) %MON dynstat_salt_min             =   3.1672933008948E+01
(PID.TID 0000.0001) %MON dynstat_salt_mean            =   3.4719250517453E+01
(PID.TID 0000.0001) %MON dynstat_salt_sd              =   2.8093395660446E-01
(PID.TID 0000.0001) %MON dynstat_salt_del2            =   2.5030183819761E-02
(PID.TID 0000.0001) %MON advcfl_uvel_max              =   4.1542460768308E-03
(PID.TID 0000.0001) %MON advcfl_vvel_max              =   2.9620780461030E-03
(PID.TID 0000.0001) %MON advcfl_wvel_max              =   2.1229064049060E-01
(PID.TID 0000.0001) %MON advcfl_W_hf_max              =   2.1544753516333E-01
(PID.TID 0000.0001) %MON ke_max                       =   4.5992043663885E-04
(PID.TID 0000.0001) %MON ke_mean                      =   1.9418805730084E-05
(PID.TID 0000.0001) %MON ke_volint                    =   3.1699158611475E+13
(PID.TID 0000.0001) %MON ke_volmean                   =   2.1865878587016E-05
(PID.TID 0000.0001) // =======================================================
(PID.TID 0000.0001) // End MONITOR dynamic field statistics
(PID.TID 0000.0001) // =======================================================
time,SST,SSS,fu,fv,Q,E-P,i0,i1,a,b =   8.6400E+04  0.0000E+00  0.0000E+00  0.0000E+00  0.0000E+00  2.2763E-01  0.0000E+00    12     1  5.3333E-01  4.6667E-01
time,fu0,fu1,fu =   8.6400E+04  0.0000E+00  0.0000E+00  0.0000E+00  5.3333E-01  4.6667E-01
 cg2d: Sum(rhs),rhsMax =  -5.60385071679548E-14  5.44258221791192E+00
(PID.TID 0000.0001)                    cg2d_init_res =    3.03696046357847E+00
(PID.TID 0000.0001)                       cg2d_iters =    29
(PID.TID 0000.0001)                         cg2d_res =    7.94186040330863E-18
(PID.TID 0000.0001) // =======================================================
(PID.TID 0000.0001) // Begin MONITOR dynamic field statistics
(PID.TID 0000.0001) // =======================================================
(PID.TID 0000.0001) %MON time_tsnumber                =                     3
(PID.TID 0000.0001) %MON time_secondsf                =   1.2960000000000E+05
(PID.TID 0000.0001) %MON time_secondsi                =                129600
(PID.TID 0000.0001) %MON dynstat_eta_max              =   3.9572129257469E-01
(PID.TID 0000.0001) %MON dynstat_eta_min              =  -4.2152141871273E-01
(PID.TID 0000.0001) %MON dynstat_eta_mean             =   4.1173583502873E-18
(PID.TID 0000.0001) %MON dynstat_eta_sd               =   1.0024722351700E-01
(PID.TID 0000.0001) %MON dynstat_eta_del2             =   2.7182692547621E-02
(PID.TID 0000.0001) %MON dynstat_uvel_max             =   2.5364956055522E-02
(PID.TID 0000.0001) %MON dynstat_uvel_min             =  -3.1731727640326E-02
(PID.TID 0000.0001) %MON dynstat_uvel_mean            =  -1.5288683961957E-03
(PID.TID 0000.0001) %MON dynstat_uvel_sd              =   2.8263599668177E-03
(PID.TID 0000.0001) %MON dynstat_uvel_del2            =   8.9602139075650E-04
(PID.TID 0000.0001) %MON dynstat_vvel_max             =   4.0555146362573E-02
(PID.TID 0000.0001) %MON dynstat_vvel_min             =  -3.3596501441507E-02
(PID.TID 0000.0001) %MON dynstat_vvel_mean            =   2.6280291422435E-03
(PID.TID 0000.0001) %MON dynstat_vvel_sd              =   8.6656231651838E-03
(PID.TID 0000.0001) %MON dynstat_vvel_del2            =   1.2326337841887E-03
(PID.TID 0000.0001) %MON dynstat_wvel_max             =   1.4553572125766E-04
(PID.TID 0000.0001) %MON dynstat_wvel_min             =  -1.5871150404864E-04
(PID.TID 0000.0001) %MON dynstat_wvel_mean            =   4.7777869117833E-22
(PID.TID 0000.0001) %MON dynstat_wvel_sd              =   2.5025527511073E-05
(PID.TID 0000.0001) %MON dynstat_wvel_del2            =   9.7580830270674E-06
(PID.TID 0000.0001) %MON dynstat_theta_max            =   2.9473259188062E+01
(PID.TID 0000.0001) %MON dynstat_theta_min            =  -1.8983634820869E+00
(PID.TID 0000.0001) %MON dynstat_theta_mean           =   3.4684926295239E+00
(PID.TID 0000.0001) %MON dynstat_theta_sd             =   4.2356491602990E+00
(PID.TID 0000.0001) %MON dynstat_theta_del2           =   1.4946386272244E-01
(PID.TID 0000.0001) %MON dynstat_salt_max             =   3.7398577155618E+01
(PID.TID 0000.0001) %MON dynstat_salt_min             =   3.1687262329789E+01
(PID.TID 0000.0001) %MON dynstat_salt_mean            =   3.4719142493557E+01
(PID.TID 0000.0001) %MON dynstat_salt_sd              =   2.8097270445219E-01
(PID.TID 0000.0001) %MON dynstat_salt_del2            =   2.4974869132861E-02
(PID.TID 0000.0001) %MON advcfl_uvel_max              =   7.0316737426097E-03
(PID.TID 0000.0001) %MON advcfl_vvel_max              =   3.9396072559492E-03
(PID.TID 0000.0001) %MON advcfl_wvel_max              =   2.3236570073155E-01
(PID.TID 0000.0001) %MON advcfl_W_hf_max              =   2.3817012907083E-01
(PID.TID 0000.0001) %MON ke_max                       =   8.5646787184463E-04
(PID.TID 0000.0001) %MON ke_mean                      =   3.9496716295602E-05
(PID.TID 0000.0001) %MON ke_volint                    =   6.1152152162723E+13
(PID.TID 0000.0001) %MON ke_volmean                   =   4.2182366759753E-05
(PID.TID 0000.0001) // =======================================================
(PID.TID 0000.0001) // End MONITOR dynamic field statistics
(PID.TID 0000.0001) // =======================================================
time,SST,SSS,fu,fv,Q,E-P,i0,i1,a,b =   1.2960E+05  0.0000E+00  0.0000E+00  0.0000E+00  0.0000E+00  2.1950E-01  0.0000E+00    12     1  5.5000E-01  4.5000E-01
time,fu0,fu1,fu =   1.2960E+05  0.0000E+00  0.0000E+00  0.0000E+00  5.5000E-01  4.5000E-01
 cg2d: Sum(rhs),rhsMax =  -9.74220704108575E-15  5.98384908895009E+00
(PID.TID 0000.0001)                    cg2d_init_res =    2.61153839084493E+00
(PID.TID 0000.0001)                       cg2d_iters =    29
(PID.TID 0000.0001)                         cg2d_res =    7.49920826609010E-18
(PID.TID 0000.0001) // =======================================================
(PID.TID 0000.0001) // Begin MONITOR dynamic field statistics
(PID.TID 0000.0001) // =======================================================
(PID.TID 0000.0001) %MON time_tsnumber                =                     4
(PID.TID 0000.0001) %MON time_secondsf                =   1.7280000000000E+05
(PID.TID 0000.0001) %MON time_secondsi                =                172800
(PID.TID 0000.0001) %MON dynstat_eta_max              =   5.2666581683124E-01
(PID.TID 0000.0001) %MON dynstat_eta_min              =  -5.1539247514035E-01
(PID.TID 0000.0001) %MON dynstat_eta_mean             =  -1.2110190589201E-17
(PID.TID 0000.0001) %MON dynstat_eta_sd               =   1.3424555708659E-01
(PID.TID 0000.0001) %MON dynstat_eta_del2             =   2.7591302818113E-02
(PID.TID 0000.0001) %MON dynstat_uvel_max             =   3.5400224425914E-02
(PID.TID 0000.0001) %MON dynstat_uvel_min             =  -4.8740484177159E-02
(PID.TID 0000.0001) %MON dynstat_uvel_mean            =  -2.3202176183902E-03
(PID.TID 0000.0001) %MON dynstat_uvel_sd              =   3.8266490794221E-03
(PID.TID 0000.0001) %MON dynstat_uvel_del2            =   1.1576097401459E-03
(PID.TID 0000.0001) %MON dynstat_vvel_max             =   4.9938575066876E-02
(PID.TID 0000.0001) %MON dynstat_vvel_min             =  -3.6189268221361E-02
(PID.TID 0000.0001) %MON dynstat_vvel_mean            =   3.3214415705272E-03
(PID.TID 0000.0001) %MON dynstat_vvel_sd              =   1.0603747402690E-02
(PID.TID 0000.0001) %MON dynstat_vvel_del2            =   1.5806486893405E-03
(PID.TID 0000.0001) %MON dynstat_wvel_max             =   1.4631199082806E-04
(PID.TID 0000.0001) %MON dynstat_wvel_min             =  -1.7710509053032E-04
(PID.TID 0000.0001) %MON dynstat_wvel_mean            =   3.4800692442560E-22
(PID.TID 0000.0001) %MON dynstat_wvel_sd              =   2.7482133115308E-05
(PID.TID 0000.0001) %MON dynstat_wvel_del2            =   7.8677551552301E-06
(PID.TID 0000.0001) %MON dynstat_theta_max            =   2.9481927976622E+01
(PID.TID 0000.0001) %MON dynstat_theta_min            =  -1.8983667284965E+00
(PID.TID 0000.0001) %MON dynstat_theta_mean           =   3.4669661880736E+00
(PID.TID 0000.0001) %MON dynstat_theta_sd             =   4.2325131891182E+00
(PID.TID 0000.0001) %MON dynstat_theta_del2           =   1.4857939618162E-01
(PID.TID 0000.0001) %MON dynstat_salt_max             =   3.7398717798540E+01
(PID.TID 0000.0001) %MON dynstat_salt_min             =   3.1668089653960E+01
(PID.TID 0000.0001) %MON dynstat_salt_mean            =   3.4719010077390E+01
(PID.TID 0000.0001) %MON dynstat_salt_sd              =   2.8103484969565E-01
(PID.TID 0000.0001) %MON dynstat_salt_del2            =   2.4923182040720E-02
(PID.TID 0000.0001) %MON advcfl_uvel_max              =   1.0800772862901E-02
(PID.TID 0000.0001) %MON advcfl_vvel_max              =   4.8511321085205E-03
(PID.TID 0000.0001) %MON advcfl_wvel_max              =   2.2172639301226E-01
(PID.TID 0000.0001) %MON advcfl_W_hf_max              =   2.2277502287076E-01
(PID.TID 0000.0001) %MON ke_max                       =   1.2811448561318E-03
(PID.TID 0000.0001) %MON ke_mean                      =   6.4505778044971E-05
(PID.TID 0000.0001) %MON ke_volint                    =   9.5086787081588E+13
(PID.TID 0000.0001) %MON ke_volmean                   =   6.5590262727125E-05
(PID.TID 0000.0001) // =======================================================
(PID.TID 0000.0001) // End MONITOR dynamic field statistics
(PID.TID 0000.0001) // =======================================================
time,SST,SSS,fu,fv,Q,E-P,i0,i1,a,b =   1.7280E+05  0.0000E+00  0.0000E+00  0.0000E+00  0.0000E+00  2.1137E-01  0.0000E+00    12     1  5.6667E-01  4.3333E-01
time,fu0,fu1,fu =   1.7280E+05  0.0000E+00  0.0000E+00  0.0000E+00  5.6667E-01  4.3333E-01
 cg2d: Sum(rhs),rhsMax =  -8.65418847695310E-14  7.05781848013025E+00
(PID.TID 0000.0001)                    cg2d_init_res =    2.17503158662476E+00
(PID.TID 0000.0001)                       cg2d_iters =    29
(PID.TID 0000.0001)                         cg2d_res =    6.02544405928965E-18
(PID.TID 0000.0001) // =======================================================
(PID.TID 0000.0001) // Begin MONITOR dynamic field statistics
(PID.TID 0000.0001) // =======================================================
(PID.TID 0000.0001) %MON time_tsnumber                =                     5
(PID.TID 0000.0001) %MON time_secondsf                =   2.1600000000000E+05
(PID.TID 0000.0001) %MON time_secondsi                =                216000
(PID.TID 0000.0001) %MON dynstat_eta_max              =   6.5460950145937E-01
(PID.TID 0000.0001) %MON dynstat_eta_min              =  -6.4231738202390E-01
(PID.TID 0000.0001) %MON dynstat_eta_mean             =  -2.2091263180095E-17
(PID.TID 0000.0001) %MON dynstat_eta_sd               =   1.6747172057349E-01
(PID.TID 0000.0001) %MON dynstat_eta_del2             =   2.6422889033070E-02
(PID.TID 0000.0001) %MON dynstat_uvel_max             =   4.5989977856962E-02
(PID.TID 0000.0001) %MON dynstat_uvel_min             =  -6.4719198250939E-02
(PID.TID 0000.0001) %MON dynstat_uvel_mean            =  -3.1975523767679E-03
(PID.TID 0000.0001) %MON dynstat_uvel_sd              =   4.9384805935171E-03
(PID.TID 0000.0001) %MON dynstat_uvel_del2            =   1.3865849670390E-03
(PID.TID 0000.0001) %MON dynstat_vvel_max             =   6.2059363663092E-02
(PID.TID 0000.0001) %MON dynstat_vvel_min             =  -4.4655272540566E-02
(PID.TID 0000.0001) %MON dynstat_vvel_mean            =   3.8836503635729E-03
(PID.TID 0000.0001) %MON dynstat_vvel_sd              =   1.2166731762043E-02
(PID.TID 0000.0001) %MON dynstat_vvel_del2            =   1.8925112391831E-03
(PID.TID 0000.0001) %MON dynstat_wvel_max             =   1.5591504966664E-04
(PID.TID 0000.0001) %MON dynstat_wvel_min             =  -1.8920329426959E-04
(PID.TID 0000.0001) %MON dynstat_wvel_mean            =  -5.1117127624330E-23
(PID.TID 0000.0001) %MON dynstat_wvel_sd              =   2.9180074967603E-05
(PID.TID 0000.0001) %MON dynstat_wvel_del2            =   7.2680781967503E-06
(PID.TID 0000.0001) %MON dynstat_theta_max            =   2.9490981383804E+01
(PID.TID 0000.0001) %MON dynstat_theta_min            =  -1.8991370369737E+00
(PID.TID 0000.0001) %MON dynstat_theta_mean           =   3.4652251824480E+00
(PID.TID 0000.0001) %MON dynstat_theta_sd             =   4.2288809930656E+00
(PID.TID 0000.0001) %MON dynstat_theta_del2           =   1.4823148767756E-01
(PID.TID 0000.0001) %MON dynstat_salt_max             =   3.7399158287983E+01
(PID.TID 0000.0001) %MON dynstat_salt_min             =   3.1630449414753E+01
(PID.TID 0000.0001) %MON dynstat_salt_mean            =   3.4718862003345E+01
(PID.TID 0000.0001) %MON dynstat_salt_sd              =   2.8110320873321E-01
(PID.TID 0000.0001) %MON dynstat_salt_del2            =   2.4883401240632E-02
(PID.TID 0000.0001) %MON advcfl_uvel_max              =   1.4341617076202E-02
(PID.TID 0000.0001) %MON advcfl_vvel_max              =   6.0285695236039E-03
(PID.TID 0000.0001) %MON advcfl_wvel_max              =   2.3275005733767E-01
(PID.TID 0000.0001) %MON advcfl_W_hf_max              =   2.3260406551808E-01
(PID.TID 0000.0001) %MON ke_max                       =   1.7170031740387E-03
(PID.TID 0000.0001) %MON ke_mean                      =   9.2937765037532E-05
(PID.TID 0000.0001) %MON ke_volint                    =   1.3109015371656E+14
(PID.TID 0000.0001) %MON ke_volmean                   =   9.0425156713213E-05
(PID.TID 0000.0001) // =======================================================
(PID.TID 0000.0001) // End MONITOR dynamic field statistics
(PID.TID 0000.0001) // =======================================================
time,SST,SSS,fu,fv,Q,E-P,i0,i1,a,b =   2.1600E+05  0.0000E+00  0.0000E+00  0.0000E+00  0.0000E+00  2.0324E-01  0.0000E+00    12     1  5.8333E-01  4.1667E-01
time,fu0,fu1,fu =   2.1600E+05  0.0000E+00  0.0000E+00  0.0000E+00  5.8333E-01  4.1667E-01
 cg2d: Sum(rhs),rhsMax =   9.19056497572512E-14  8.11176098289966E+00
(PID.TID 0000.0001)                    cg2d_init_res =    1.84434498421478E+00
(PID.TID 0000.0001)                       cg2d_iters =    29
(PID.TID 0000.0001)                         cg2d_res =    5.09884275916399E-18
(PID.TID 0000.0001) // =======================================================
(PID.TID 0000.0001) // Begin MONITOR dynamic field statistics
(PID.TID 0000.0001) // =======================================================
(PID.TID 0000.0001) %MON time_tsnumber                =                     6
(PID.TID 0000.0001) %MON time_secondsf                =   2.5920000000000E+05
(PID.TID 0000.0001) %MON time_secondsi                =                259200
(PID.TID 0000.0001) %MON dynstat_eta_max              =   7.7412968571439E-01
(PID.TID 0000.0001) %MON dynstat_eta_min              =  -7.3669908966167E-01
(PID.TID 0000.0001) %MON dynstat_eta_mean             =  -2.6970490298812E-17
(PID.TID 0000.0001) %MON dynstat_eta_sd               =   2.0011112224682E-01
(PID.TID 0000.0001) %MON dynstat_eta_del2             =   2.5145125549098E-02
(PID.TID 0000.0001) %MON dynstat_uvel_max             =   5.6742208026464E-02
(PID.TID 0000.0001) %MON dynstat_uvel_min             =  -7.7134910185066E-02
(PID.TID 0000.0001) %MON dynstat_uvel_mean            =  -4.1236521523979E-03
(PID.TID 0000.0001) %MON dynstat_uvel_sd              =   6.1343699701254E-03
(PID.TID 0000.0001) %MON dynstat_uvel_del2            =   1.5929970441931E-03
(PID.TID 0000.0001) %MON dynstat_vvel_max             =   7.2272025419413E-02
(PID.TID 0000.0001) %MON dynstat_vvel_min             =  -5.5279622231529E-02
(PID.TID 0000.0001) %MON dynstat_vvel_mean            =   4.3027668919772E-03
(PID.TID 0000.0001) %MON dynstat_vvel_sd              =   1.3369803735381E-02
(PID.TID 0000.0001) %MON dynstat_vvel_del2            =   2.1635310234637E-03
(PID.TID 0000.0001) %MON dynstat_wvel_max             =   1.6783163694682E-04
(PID.TID 0000.0001) %MON dynstat_wvel_min             =  -1.9594346057818E-04
(PID.TID 0000.0001) %MON dynstat_wvel_mean            =   1.0059954185938E-21
(PID.TID 0000.0001) %MON dynstat_wvel_sd              =   3.0904848314265E-05
(PID.TID 0000.0001) %MON dynstat_wvel_del2            =   7.9878221288411E-06
(PID.TID 0000.0001) %MON dynstat_theta_max            =   2.9496705717636E+01
(PID.TID 0000.0001) %MON dynstat_theta_min            =  -1.8991360898179E+00
(PID.TID 0000.0001) %MON dynstat_theta_mean           =   3.4633404031673E+00
(PID.TID 0000.0001) %MON dynstat_theta_sd             =   4.2248428035440E+00
(PID.TID 0000.0001) %MON dynstat_theta_del2           =   1.4785724442670E-01
(PID.TID 0000.0001) %MON dynstat_salt_max             =   3.7399905098940E+01
(PID.TID 0000.0001) %MON dynstat_salt_min             =   3.1582935773982E+01
(PID.TID 0000.0001) %MON dynstat_salt_mean            =   3.4718704941883E+01
(PID.TID 0000.0001) %MON dynstat_salt_sd              =   2.8116707960811E-01
(PID.TID 0000.0001) %MON dynstat_salt_del2            =   2.4835223504139E-02
(PID.TID 0000.0001) %MON advcfl_uvel_max              =   1.7092908672820E-02
(PID.TID 0000.0001) %MON advcfl_vvel_max              =   7.0206477175293E-03
(PID.TID 0000.0001) %MON advcfl_wvel_max              =   2.5829944842847E-01
(PID.TID 0000.0001) %MON advcfl_W_hf_max              =   2.4743852661225E-01
(PID.TID 0000.0001) %MON ke_max                       =   2.4504410728450E-03
(PID.TID 0000.0001) %MON ke_mean                      =   1.2337409779231E-04
(PID.TID 0000.0001) %MON ke_volint                    =   1.6711422330589E+14
(PID.TID 0000.0001) %MON ke_volmean                   =   1.1527433146593E-04
(PID.TID 0000.0001) // =======================================================
(PID.TID 0000.0001) // End MONITOR dynamic field statistics
(PID.TID 0000.0001) // =======================================================
time,SST,SSS,fu,fv,Q,E-P,i0,i1,a,b =   2.5920E+05  0.0000E+00  0.0000E+00  0.0000E+00  0.0000E+00  1.9511E-01  0.0000E+00    12     1  6.0000E-01  4.0000E-01
time,fu0,fu1,fu =   2.5920E+05  0.0000E+00  0.0000E+00  0.0000E+00  6.0000E-01  4.0000E-01
 cg2d: Sum(rhs),rhsMax =  -2.45567455259277E-14  9.00993895245720E+00
(PID.TID 0000.0001)                    cg2d_init_res =    1.61457437413334E+00
(PID.TID 0000.0001)                       cg2d_iters =    29
(PID.TID 0000.0001)                         cg2d_res =    4.52761813607155E-18
(PID.TID 0000.0001) // =======================================================
(PID.TID 0000.0001) // Begin MONITOR dynamic field statistics
(PID.TID 0000.0001) // =======================================================
(PID.TID 0000.0001) %MON time_tsnumber                =                     7
(PID.TID 0000.0001) %MON time_secondsf                =   3.0240000000000E+05
(PID.TID 0000.0001) %MON time_secondsi                =                302400
(PID.TID 0000.0001) %MON dynstat_eta_max              =   8.7568103346095E-01
(PID.TID 0000.0001) %MON dynstat_eta_min              =  -8.2263890586870E-01
(PID.TID 0000.0001) %MON dynstat_eta_mean             =   1.9399286150262E-17
(PID.TID 0000.0001) %MON dynstat_eta_sd               =   2.3186354740939E-01
(PID.TID 0000.0001) %MON dynstat_eta_del2             =   2.4057741192084E-02
(PID.TID 0000.0001) %MON dynstat_uvel_max             =   6.7583947468108E-02
(PID.TID 0000.0001) %MON dynstat_uvel_min             =  -8.4623690995980E-02
(PID.TID 0000.0001) %MON dynstat_uvel_mean            =  -5.0607567067770E-03
(PID.TID 0000.0001) %MON dynstat_uvel_sd              =   7.3815275770214E-03
(PID.TID 0000.0001) %MON dynstat_uvel_del2            =   1.7860132800103E-03
(PID.TID 0000.0001) %MON dynstat_vvel_max             =   8.0680529047323E-02
(PID.TID 0000.0001) %MON dynstat_vvel_min             =  -6.6329955113913E-02
(PID.TID 0000.0001) %MON dynstat_vvel_mean            =   4.5759687303444E-03
(PID.TID 0000.0001) %MON dynstat_vvel_sd              =   1.4232717318262E-02
(PID.TID 0000.0001) %MON dynstat_vvel_del2            =   2.4015516945159E-03
(PID.TID 0000.0001) %MON dynstat_wvel_max             =   1.7693666219044E-04
(PID.TID 0000.0001) %MON dynstat_wvel_min             =  -1.9590460659375E-04
(PID.TID 0000.0001) %MON dynstat_wvel_mean            =   5.1273754848380E-22
(PID.TID 0000.0001) %MON dynstat_wvel_sd              =   3.2569545755665E-05
(PID.TID 0000.0001) %MON dynstat_wvel_del2            =   9.0738520444394E-06
(PID.TID 0000.0001) %MON dynstat_theta_max            =   2.9500632805655E+01
(PID.TID 0000.0001) %MON dynstat_theta_min            =  -1.8991598987330E+00
(PID.TID 0000.0001) %MON dynstat_theta_mean           =   3.4613772997559E+00
(PID.TID 0000.0001) %MON dynstat_theta_sd             =   4.2204939368141E+00
(PID.TID 0000.0001) %MON dynstat_theta_del2           =   1.4729591138492E-01
(PID.TID 0000.0001) %MON dynstat_salt_max             =   3.7400627654282E+01
(PID.TID 0000.0001) %MON dynstat_salt_min             =   3.1529649669247E+01
(PID.TID 0000.0001) %MON dynstat_salt_mean            =   3.4718544291696E+01
(PID.TID 0000.0001) %MON dynstat_salt_sd              =   2.8122096843298E-01
(PID.TID 0000.0001) %MON dynstat_salt_del2            =   2.4771551300982E-02
(PID.TID 0000.0001) %MON advcfl_uvel_max              =   1.8752404304105E-02
(PID.TID 0000.0001) %MON advcfl_vvel_max              =   7.8374664168882E-03
(PID.TID 0000.0001) %MON advcfl_wvel_max              =   2.6579426406762E-01
(PID.TID 0000.0001) %MON advcfl_W_hf_max              =   2.5374865271084E-01
(PID.TID 0000.0001) %MON ke_max                       =   3.1579003208494E-03
(PID.TID 0000.0001) %MON ke_mean                      =   1.5462515463377E-04
(PID.TID 0000.0001) %MON ke_volint                    =   2.0156124731874E+14
(PID.TID 0000.0001) %MON ke_volmean                   =   1.3903567018097E-04
(PID.TID 0000.0001) // =======================================================
(PID.TID 0000.0001) // End MONITOR dynamic field statistics
(PID.TID 0000.0001) // =======================================================
time,SST,SSS,fu,fv,Q,E-P,i0,i1,a,b =   3.0240E+05  0.0000E+00  0.0000E+00  0.0000E+00  0.0000E+00  1.8698E-01  0.0000E+00    12     1  6.1667E-01  3.8333E-01
time,fu0,fu1,fu =   3.0240E+05  0.0000E+00  0.0000E+00  0.0000E+00  6.1667E-01  3.8333E-01
 cg2d: Sum(rhs),rhsMax =   1.15608911332998E-13  9.66149210264507E+00
(PID.TID 0000.0001)                    cg2d_init_res =    1.46201396231449E+00
(PID.TID 0000.0001)                       cg2d_iters =    29
(PID.TID 0000.0001)                         cg2d_res =    4.21445223427220E-18
(PID.TID 0000.0001) // =======================================================
(PID.TID 0000.0001) // Begin MONITOR dynamic field statistics
(PID.TID 0000.0001) // =======================================================
(PID.TID 0000.0001) %MON time_tsnumber                =                     8
(PID.TID 0000.0001) %MON time_secondsf                =   3.4560000000000E+05
(PID.TID 0000.0001) %MON time_secondsi                =                345600
(PID.TID 0000.0001) %MON dynstat_eta_max              =   9.5304451383556E-01
(PID.TID 0000.0001) %MON dynstat_eta_min              =  -8.6990770383870E-01
(PID.TID 0000.0001) %MON dynstat_eta_mean             =   5.0279273162762E-17
(PID.TID 0000.0001) %MON dynstat_eta_sd               =   2.6225923913345E-01
(PID.TID 0000.0001) %MON dynstat_eta_del2             =   2.3172889212887E-02
(PID.TID 0000.0001) %MON dynstat_uvel_max             =   7.8371466036758E-02
(PID.TID 0000.0001) %MON dynstat_uvel_min             =  -8.7118156146996E-02
(PID.TID 0000.0001) %MON dynstat_uvel_mean            =  -5.9727066883925E-03
(PID.TID 0000.0001) %MON dynstat_uvel_sd              =   8.6431954329195E-03
(PID.TID 0000.0001) %MON dynstat_uvel_del2            =   1.9623178820157E-03
(PID.TID 0000.0001) %MON dynstat_vvel_max             =   8.7282542335332E-02
(PID.TID 0000.0001) %MON dynstat_vvel_min             =  -7.6862189013740E-02
(PID.TID 0000.0001) %MON dynstat_vvel_mean            =   4.7089568440859E-03
(PID.TID 0000.0001) %MON dynstat_vvel_sd              =   1.4783378808938E-02
(PID.TID 0000.0001) %MON dynstat_vvel_del2            =   2.6086625375871E-03
(PID.TID 0000.0001) %MON dynstat_wvel_max             =   1.8430749520559E-04
(PID.TID 0000.0001) %MON dynstat_wvel_min             =  -1.9328724851221E-04
(PID.TID 0000.0001) %MON dynstat_wvel_mean            =   1.0418650295564E-21
(PID.TID 0000.0001) %MON dynstat_wvel_sd              =   3.3964582569921E-05
(PID.TID 0000.0001) %MON dynstat_wvel_del2            =   1.0023748229063E-05
(PID.TID 0000.0001) %MON dynstat_theta_max            =   2.9504848367239E+01
(PID.TID 0000.0001) %MON dynstat_theta_min            =  -1.8991844373235E+00
(PID.TID 0000.0001) %MON dynstat_theta_mean           =   3.4593962643677E+00
(PID.TID 0000.0001) %MON dynstat_theta_sd             =   4.2159421133664E+00
(PID.TID 0000.0001) %MON dynstat_theta_del2           =   1.4662111319512E-01
(PID.TID 0000.0001) %MON dynstat_salt_max             =   3.7401314158453E+01
(PID.TID 0000.0001) %MON dynstat_salt_min             =   3.1475350789770E+01
(PID.TID 0000.0001) %MON dynstat_salt_mean            =   3.4718384848709E+01
(PID.TID 0000.0001) %MON dynstat_salt_sd              =   2.8126873537773E-01
(PID.TID 0000.0001) %MON dynstat_salt_del2            =   2.4717154032350E-02
(PID.TID 0000.0001) %MON advcfl_uvel_max              =   1.9305171720461E-02
(PID.TID 0000.0001) %MON advcfl_vvel_max              =   8.4787990660367E-03
(PID.TID 0000.0001) %MON advcfl_wvel_max              =   2.3679850519906E-01
(PID.TID 0000.0001) %MON advcfl_W_hf_max              =   2.2700960627186E-01
(PID.TID 0000.0001) %MON ke_max                       =   3.6519580795997E-03
(PID.TID 0000.0001) %MON ke_mean                      =   1.8575715655727E-04
(PID.TID 0000.0001) %MON ke_volint                    =   2.3326985544370E+14
(PID.TID 0000.0001) %MON ke_volmean                   =   1.6090806698246E-04
(PID.TID 0000.0001) // =======================================================
(PID.TID 0000.0001) // End MONITOR dynamic field statistics
(PID.TID 0000.0001) // =======================================================
time,SST,SSS,fu,fv,Q,E-P,i0,i1,a,b =   3.4560E+05  0.0000E+00  0.0000E+00  0.0000E+00  0.0000E+00  1.7885E-01  0.0000E+00    12     1  6.3333E-01  3.6667E-01
time,fu0,fu1,fu =   3.4560E+05  0.0000E+00  0.0000E+00  0.0000E+00  6.3333E-01  3.6667E-01
 cg2d: Sum(rhs),rhsMax =  -1.13020703906841E-13  1.00538836201467E+01
(PID.TID 0000.0001)                    cg2d_init_res =    1.35438398808947E+00
(PID.TID 0000.0001)                       cg2d_iters =    29
(PID.TID 0000.0001)                         cg2d_res =    3.99837533226285E-18
(PID.TID 0000.0001) // =======================================================
(PID.TID 0000.0001) // Begin MONITOR dynamic field statistics
(PID.TID 0000.0001) // =======================================================
(PID.TID 0000.0001) %MON time_tsnumber                =                     9
(PID.TID 0000.0001) %MON time_secondsf                =   3.8880000000000E+05
(PID.TID 0000.0001) %MON time_secondsi                =                388800
(PID.TID 0000.0001) %MON dynstat_eta_max              =   1.0049054542240E+00
(PID.TID 0000.0001) %MON dynstat_eta_min              =  -9.3301512079879E-01
(PID.TID 0000.0001) %MON dynstat_eta_mean             =   1.0934563861043E-17
(PID.TID 0000.0001) %MON dynstat_eta_sd               =   2.9075625873785E-01
(PID.TID 0000.0001) %MON dynstat_eta_del2             =   2.2465390640513E-02
(PID.TID 0000.0001) %MON dynstat_uvel_max             =   8.8930735778852E-02
(PID.TID 0000.0001) %MON dynstat_uvel_min             =  -8.5519668337491E-02
(PID.TID 0000.0001) %MON dynstat_uvel_mean            =  -6.8266309044164E-03
(PID.TID 0000.0001) %MON dynstat_uvel_sd              =   9.8833296782071E-03
(PID.TID 0000.0001) %MON dynstat_uvel_del2            =   2.1200878903949E-03
(PID.TID 0000.0001) %MON dynstat_vvel_max             =   9.3956542366133E-02
(PID.TID 0000.0001) %MON dynstat_vvel_min             =  -8.6358674816605E-02
(PID.TID 0000.0001) %MON dynstat_vvel_mean            =   4.7149227480429E-03
(PID.TID 0000.0001) %MON dynstat_vvel_sd              =   1.5061173217226E-02
(PID.TID 0000.0001) %MON dynstat_vvel_del2            =   2.7830068914409E-03
(PID.TID 0000.0001) %MON dynstat_wvel_max             =   2.0042199759354E-04
(PID.TID 0000.0001) %MON dynstat_wvel_min             =  -2.0635611553494E-04
(PID.TID 0000.0001) %MON dynstat_wvel_mean            =   3.7545141634831E-21
(PID.TID 0000.0001) %MON dynstat_wvel_sd              =   3.4931790489608E-05
(PID.TID 0000.0001) %MON dynstat_wvel_del2            =   1.0731081836783E-05
(PID.TID 0000.0001) %MON dynstat_theta_max            =   2.9509136220423E+01
(PID.TID 0000.0001) %MON dynstat_theta_min            =  -1.8996044619529E+00
(PID.TID 0000.0001) %MON dynstat_theta_mean           =   3.4574514631108E+00
(PID.TID 0000.0001) %MON dynstat_theta_sd             =   4.2112820144149E+00
(PID.TID 0000.0001) %MON dynstat_theta_del2           =   1.4590714521583E-01
(PID.TID 0000.0001) %MON dynstat_salt_max             =   3.7401964873908E+01
(PID.TID 0000.0001) %MON dynstat_salt_min             =   3.1424160313779E+01
(PID.TID 0000.0001) %MON dynstat_salt_mean            =   3.4718231128883E+01
(PID.TID 0000.0001) %MON dynstat_salt_sd              =   2.8130804243461E-01
(PID.TID 0000.0001) %MON dynstat_salt_del2            =   2.4663678258167E-02
(PID.TID 0000.0001) %MON advcfl_uvel_max              =   1.8950950705917E-02
(PID.TID 0000.0001) %MON advcfl_vvel_max              =   9.1271246499831E-03
(PID.TID 0000.0001) %MON advcfl_wvel_max              =   2.3860913933111E-01
(PID.TID 0000.0001) %MON advcfl_W_hf_max              =   2.3502580709763E-01
(PID.TID 0000.0001) %MON ke_max                       =   4.2459436279215E-03
(PID.TID 0000.0001) %MON ke_mean                      =   2.1615080523523E-04
(PID.TID 0000.0001) %MON ke_volint                    =   2.6154965191694E+14
(PID.TID 0000.0001) %MON ke_volmean                   =   1.8041529125073E-04
(PID.TID 0000.0001) // =======================================================
(PID.TID 0000.0001) // End MONITOR dynamic field statistics
(PID.TID 0000.0001) // =======================================================
time,SST,SSS,fu,fv,Q,E-P,i0,i1,a,b =   3.8880E+05  0.0000E+00  0.0000E+00  0.0000E+00  0.0000E+00  1.7072E-01  0.0000E+00    12     1  6.5000E-01  3.5000E-01
time,fu0,fu1,fu =   3.8880E+05  0.0000E+00  0.0000E+00  0.0000E+00  6.5000E-01  3.5000E-01
 cg2d: Sum(rhs),rhsMax =  -1.90333859784175E-14  1.02172304661238E+01
(PID.TID 0000.0001)                    cg2d_init_res =    1.27021971596903E+00
(PID.TID 0000.0001)                       cg2d_iters =    29
(PID.TID 0000.0001)                         cg2d_res =    3.76274250383440E-18
(PID.TID 0000.0001) // =======================================================
(PID.TID 0000.0001) // Begin MONITOR dynamic field statistics
(PID.TID 0000.0001) // =======================================================
(PID.TID 0000.0001) %MON time_tsnumber                =                    10
(PID.TID 0000.0001) %MON time_secondsf                =   4.3200000000000E+05
(PID.TID 0000.0001) %MON time_secondsi                =                432000
(PID.TID 0000.0001) %MON dynstat_eta_max              =   1.0331153925543E+00
(PID.TID 0000.0001) %MON dynstat_eta_min              =  -1.0347343539921E+00
(PID.TID 0000.0001) %MON dynstat_eta_mean             =   5.0765209789558E-17
(PID.TID 0000.0001) %MON dynstat_eta_sd               =   3.1678170489659E-01
(PID.TID 0000.0001) %MON dynstat_eta_del2             =   2.1929509820441E-02
(PID.TID 0000.0001) %MON dynstat_uvel_max             =   9.9093964753542E-02
(PID.TID 0000.0001) %MON dynstat_uvel_min             =  -8.1162145122238E-02
(PID.TID 0000.0001) %MON dynstat_uvel_mean            =  -7.5939655051456E-03
(PID.TID 0000.0001) %MON dynstat_uvel_sd              =   1.1071548111855E-02
(PID.TID 0000.0001) %MON dynstat_uvel_del2            =   2.2579936249578E-03
(PID.TID 0000.0001) %MON dynstat_vvel_max             =   9.9831661399666E-02
(PID.TID 0000.0001) %MON dynstat_vvel_min             =  -9.4537845140790E-02
(PID.TID 0000.0001) %MON dynstat_vvel_mean            =   4.6128680787855E-03
(PID.TID 0000.0001) %MON dynstat_vvel_sd              =   1.5117262399646E-02
(PID.TID 0000.0001) %MON dynstat_vvel_del2            =   2.9248122509055E-03
(PID.TID 0000.0001) %MON dynstat_wvel_max             =   2.1594679493592E-04
(PID.TID 0000.0001) %MON dynstat_wvel_min             =  -2.1690235756369E-04
(PID.TID 0000.0001) %MON dynstat_wvel_mean            =  -2.3649972072756E-21
(PID.TID 0000.0001) %MON dynstat_wvel_sd              =   3.5409932694061E-05
(PID.TID 0000.0001) %MON dynstat_wvel_del2            =   1.1215046652168E-05
(PID.TID 0000.0001) %MON dynstat_theta_max            =   2.9511559476192E+01
(PID.TID 0000.0001) %MON dynstat_theta_min            =  -1.8996055715282E+00
(PID.TID 0000.0001) %MON dynstat_theta_mean           =   3.4555884830062E+00
(PID.TID 0000.0001) %MON dynstat_theta_sd             =   4.2066035908376E+00
(PID.TID 0000.0001) %MON dynstat_theta_del2           =   1.4519831516498E-01
(PID.TID 0000.0001) %MON dynstat_salt_max             =   3.7402590531321E+01
(PID.TID 0000.0001) %MON dynstat_salt_min             =   3.1378856419508E+01
(PID.TID 0000.0001) %MON dynstat_salt_mean            =   3.4718087285912E+01
(PID.TID 0000.0001) %MON dynstat_salt_sd              =   2.8133856682329E-01
(PID.TID 0000.0001) %MON dynstat_salt_del2            =   2.4611781848792E-02
(PID.TID 0000.0001) %MON advcfl_uvel_max              =   1.7985334149428E-02
(PID.TID 0000.0001) %MON advcfl_vvel_max              =   9.6978453513004E-03
(PID.TID 0000.0001) %MON advcfl_wvel_max              =   2.4257081190537E-01
(PID.TID 0000.0001) %MON advcfl_W_hf_max              =   2.2782747021896E-01
(PID.TID 0000.0001) %MON ke_max                       =   5.1668606334188E-03
(PID.TID 0000.0001) %MON ke_mean                      =   2.4552568838689E-04
(PID.TID 0000.0001) %MON ke_volint                    =   2.8618251086252E+14
(PID.TID 0000.0001) %MON ke_volmean                   =   1.9740688113980E-04
(PID.TID 0000.0001) // =======================================================
(PID.TID 0000.0001) // End MONITOR dynamic field statistics
(PID.TID 0000.0001) // =======================================================
time,SST,SSS,fu,fv,Q,E-P,i0,i1,a,b =   4.3200E+05  0.0000E+00  0.0000E+00  0.0000E+00  0.0000E+00  1.6259E-01  0.0000E+00    12     1  6.6667E-01  3.3333E-01
time,fu0,fu1,fu =   4.3200E+05  0.0000E+00  0.0000E+00  0.0000E+00  6.6667E-01  3.3333E-01
 cg2d: Sum(rhs),rhsMax =   8.02344302108793E-14  1.01918058429089E+01
(PID.TID 0000.0001)                    cg2d_init_res =    1.20081165367424E+00
(PID.TID 0000.0001)                       cg2d_iters =    29
(PID.TID 0000.0001)                         cg2d_res =    3.49277010497886E-18
(PID.TID 0000.0001) // =======================================================
(PID.TID 0000.0001) // Begin MONITOR dynamic field statistics
(PID.TID 0000.0001) // =======================================================
(PID.TID 0000.0001) %MON time_tsnumber                =                    11
(PID.TID 0000.0001) %MON time_secondsf                =   4.7520000000000E+05
(PID.TID 0000.0001) %MON time_secondsi                =                475200
(PID.TID 0000.0001) %MON dynstat_eta_max              =   1.0407991565023E+00
(PID.TID 0000.0001) %MON dynstat_eta_min              =  -1.1069862059031E+00
(PID.TID 0000.0001) %MON dynstat_eta_mean             =   5.8051530477128E-17
(PID.TID 0000.0001) %MON dynstat_eta_sd               =   3.3979833139996E-01
(PID.TID 0000.0001) %MON dynstat_eta_del2             =   2.1510998574776E-02
(PID.TID 0000.0001) %MON dynstat_uvel_max             =   1.0870898970263E-01
(PID.TID 0000.0001) %MON dynstat_uvel_min             =  -8.0340761801877E-02
(PID.TID 0000.0001) %MON dynstat_uvel_mean            =  -8.2512555861126E-03
(PID.TID 0000.0001) %MON dynstat_uvel_sd              =   1.2185969677291E-02
(PID.TID 0000.0001) %MON dynstat_uvel_del2            =   2.3793016883535E-03
(PID.TID 0000.0001) %MON dynstat_vvel_max             =   1.0404810880484E-01
(PID.TID 0000.0001) %MON dynstat_vvel_min             =  -1.0109732182867E-01
(PID.TID 0000.0001) %MON dynstat_vvel_mean            =   4.4255490638074E-03
(PID.TID 0000.0001) %MON dynstat_vvel_sd              =   1.5011004287466E-02
(PID.TID 0000.0001) %MON dynstat_vvel_del2            =   3.0343006702793E-03
(PID.TID 0000.0001) %MON dynstat_wvel_max             =   2.3193411306962E-04
(PID.TID 0000.0001) %MON dynstat_wvel_min             =  -2.3386589965276E-04
(PID.TID 0000.0001) %MON dynstat_wvel_mean            =   2.6281232446711E-22
(PID.TID 0000.0001) %MON dynstat_wvel_sd              =   3.5423551040175E-05
(PID.TID 0000.0001) %MON dynstat_wvel_del2            =   1.1484952776079E-05
(PID.TID 0000.0001) %MON dynstat_theta_max            =   2.9509870758545E+01
(PID.TID 0000.0001) %MON dynstat_theta_min            =  -1.8995997679839E+00
(PID.TID 0000.0001) %MON dynstat_theta_mean           =   3.4538447104132E+00
(PID.TID 0000.0001) %MON dynstat_theta_sd             =   4.2019867869722E+00
(PID.TID 0000.0001) %MON dynstat_theta_del2           =   1.4452010151563E-01
(PID.TID 0000.0001) %MON dynstat_salt_max             =   3.7403208805791E+01
(PID.TID 0000.0001) %MON dynstat_salt_min             =   3.1340633047846E+01
(PID.TID 0000.0001) %MON dynstat_salt_mean            =   3.4717956985816E+01
(PID.TID 0000.0001) %MON dynstat_salt_sd              =   2.8135894881095E-01
(PID.TID 0000.0001) %MON dynstat_salt_del2            =   2.4565242869261E-02
(PID.TID 0000.0001) %MON advcfl_uvel_max              =   1.7152618819836E-02
(PID.TID 0000.0001) %MON advcfl_vvel_max              =   1.0107439404870E-02
(PID.TID 0000.0001) %MON advcfl_wvel_max              =   2.2737235932721E-01
(PID.TID 0000.0001) %MON advcfl_W_hf_max              =   2.1246422747661E-01
(PID.TID 0000.0001) %MON ke_max                       =   6.0854851820089E-03
(PID.TID 0000.0001) %MON ke_mean                      =   2.7387495711978E-04
(PID.TID 0000.0001) %MON ke_volint                    =   3.0733706970005E+14
(PID.TID 0000.0001) %MON ke_volmean                   =   2.1199916167232E-04
(PID.TID 0000.0001) // =======================================================
(PID.TID 0000.0001) // End MONITOR dynamic field statistics
(PID.TID 0000.0001) // =======================================================
time,SST,SSS,fu,fv,Q,E-P,i0,i1,a,b =   4.7520E+05  0.0000E+00  0.0000E+00  0.0000E+00  0.0000E+00  1.5446E-01  0.0000E+00    12     1  6.8333E-01  3.1667E-01
time,fu0,fu1,fu =   4.7520E+05  0.0000E+00  0.0000E+00  0.0000E+00  6.8333E-01  3.1667E-01
 cg2d: Sum(rhs),rhsMax =   1.46604950401752E-13  1.01424161518285E+01
(PID.TID 0000.0001)                    cg2d_init_res =    1.13273570814383E+00
(PID.TID 0000.0001)                       cg2d_iters =    29
(PID.TID 0000.0001)                         cg2d_res =    3.15180300392863E-18
(PID.TID 0000.0001) // =======================================================
(PID.TID 0000.0001) // Begin MONITOR dynamic field statistics
(PID.TID 0000.0001) // =======================================================
(PID.TID 0000.0001) %MON time_tsnumber                =                    12
(PID.TID 0000.0001) %MON time_secondsf                =   5.1840000000000E+05
(PID.TID 0000.0001) %MON time_secondsi                =                518400
(PID.TID 0000.0001) %MON dynstat_eta_max              =   1.0782270074836E+00
(PID.TID 0000.0001) %MON dynstat_eta_min              =  -1.1713515912389E+00
(PID.TID 0000.0001) %MON dynstat_eta_mean             =   1.4328292548865E-16
(PID.TID 0000.0001) %MON dynstat_eta_sd               =   3.5938647095181E-01
(PID.TID 0000.0001) %MON dynstat_eta_del2             =   2.1159977465677E-02
(PID.TID 0000.0001) %MON dynstat_uvel_max             =   1.1763271954109E-01
(PID.TID 0000.0001) %MON dynstat_uvel_min             =  -8.6619699296297E-02
(PID.TID 0000.0001) %MON dynstat_uvel_mean            =  -8.7807269637557E-03
(PID.TID 0000.0001) %MON dynstat_uvel_sd              =   1.3213282722245E-02
(PID.TID 0000.0001) %MON dynstat_uvel_del2            =   2.4841095560290E-03
(PID.TID 0000.0001) %MON dynstat_vvel_max             =   1.0664909697932E-01
(PID.TID 0000.0001) %MON dynstat_vvel_min             =  -1.0575857634997E-01
(PID.TID 0000.0001) %MON dynstat_vvel_mean            =   4.1772359062278E-03
(PID.TID 0000.0001) %MON dynstat_vvel_sd              =   1.4803606446809E-02
(PID.TID 0000.0001) %MON dynstat_vvel_del2            =   3.1133585604296E-03
(PID.TID 0000.0001) %MON dynstat_wvel_max             =   2.4803045785721E-04
(PID.TID 0000.0001) %MON dynstat_wvel_min             =  -2.5372347660937E-04
(PID.TID 0000.0001) %MON dynstat_wvel_mean            =  -4.4201182736330E-22
(PID.TID 0000.0001) %MON dynstat_wvel_sd              =   3.5059227818037E-05
(PID.TID 0000.0001) %MON dynstat_wvel_del2            =   1.1565528685625E-05
(PID.TID 0000.0001) %MON dynstat_theta_max            =   2.9502093411549E+01
(PID.TID 0000.0001) %MON dynstat_theta_min            =  -1.8995902470275E+00
(PID.TID 0000.0001) %MON dynstat_theta_mean           =   3.4522489303046E+00
(PID.TID 0000.0001) %MON dynstat_theta_sd             =   4.1975020994776E+00
(PID.TID 0000.0001) %MON dynstat_theta_del2           =   1.4390397206404E-01
(PID.TID 0000.0001) %MON dynstat_salt_max             =   3.7403834504673E+01
(PID.TID 0000.0001) %MON dynstat_salt_min             =   3.1309433971773E+01
(PID.TID 0000.0001) %MON dynstat_salt_mean            =   3.4717843071202E+01
(PID.TID 0000.0001) %MON dynstat_salt_sd              =   2.8136693432312E-01
(PID.TID 0000.0001) %MON dynstat_salt_del2            =   2.4526254582604E-02
(PID.TID 0000.0001) %MON advcfl_uvel_max              =   1.8560647141956E-02
(PID.TID 0000.0001) %MON advcfl_vvel_max              =   1.0360104548603E-02
(PID.TID 0000.0001) %MON advcfl_wvel_max              =   1.9509057850284E-01
(PID.TID 0000.0001) %MON advcfl_W_hf_max              =   1.9089103610505E-01
(PID.TID 0000.0001) %MON ke_max                       =   6.9686650928876E-03
(PID.TID 0000.0001) %MON ke_mean                      =   3.0132189084427E-04
(PID.TID 0000.0001) %MON ke_volint                    =   3.2540599512876E+14
(PID.TID 0000.0001) %MON ke_volmean                   =   2.2446299184726E-04
(PID.TID 0000.0001) // =======================================================
(PID.TID 0000.0001) // End MONITOR dynamic field statistics
(PID.TID 0000.0001) // =======================================================
time,SST,SSS,fu,fv,Q,E-P,i0,i1,a,b =   5.1840E+05  0.0000E+00  0.0000E+00  0.0000E+00  0.0000E+00  1.4633E-01  0.0000E+00    12     1  7.0000E-01  3.0000E-01
time,fu0,fu1,fu =   5.1840E+05  0.0000E+00  0.0000E+00  0.0000E+00  7.0000E-01  3.0000E-01
 cg2d: Sum(rhs),rhsMax =   2.85049761572509E-14  1.08261344056515E+01
(PID.TID 0000.0001)                    cg2d_init_res =    1.00187218660096E+00
(PID.TID 0000.0001)                       cg2d_iters =    29
(PID.TID 0000.0001)                         cg2d_res =    2.49791249929844E-18
(PID.TID 0000.0001) // =======================================================
(PID.TID 0000.0001) // Begin MONITOR dynamic field statistics
(PID.TID 0000.0001) // =======================================================
(PID.TID 0000.0001) %MON time_tsnumber                =                    13
(PID.TID 0000.0001) %MON time_secondsf                =   5.6160000000000E+05
(PID.TID 0000.0001) %MON time_secondsi                =                561600
(PID.TID 0000.0001) %MON dynstat_eta_max              =   1.1426998253769E+00
(PID.TID 0000.0001) %MON dynstat_eta_min              =  -1.2170859847117E+00
(PID.TID 0000.0001) %MON dynstat_eta_mean             =   4.5902133038174E-17
(PID.TID 0000.0001) %MON dynstat_eta_sd               =   3.7530989078123E-01
(PID.TID 0000.0001) %MON dynstat_eta_del2             =   2.0767514401115E-02
(PID.TID 0000.0001) %MON dynstat_uvel_max             =   1.2572323107862E-01
(PID.TID 0000.0001) %MON dynstat_uvel_min             =  -9.2133783887408E-02
(PID.TID 0000.0001) %MON dynstat_uvel_mean            =  -9.1706304735130E-03
(PID.TID 0000.0001) %MON dynstat_uvel_sd              =   1.4146996623989E-02
(PID.TID 0000.0001) %MON dynstat_uvel_del2            =   2.5760780162325E-03
(PID.TID 0000.0001) %MON dynstat_vvel_max             =   1.0864464000664E-01
(PID.TID 0000.0001) %MON dynstat_vvel_min             =  -1.0830982104371E-01
(PID.TID 0000.0001) %MON dynstat_vvel_mean            =   3.8917445366693E-03
(PID.TID 0000.0001) %MON dynstat_vvel_sd              =   1.4550766111920E-02
(PID.TID 0000.0001) %MON dynstat_vvel_del2            =   3.1663830911898E-03
(PID.TID 0000.0001) %MON dynstat_wvel_max             =   2.6374407739622E-04
(PID.TID 0000.0001) %MON dynstat_wvel_min             =  -2.7241283916139E-04
(PID.TID 0000.0001) %MON dynstat_wvel_mean            =   1.2209689869048E-21
(PID.TID 0000.0001) %MON dynstat_wvel_sd              =   3.4434764822347E-05
(PID.TID 0000.0001) %MON dynstat_wvel_del2            =   1.1492569640182E-05
(PID.TID 0000.0001) %MON dynstat_theta_max            =   2.9486633348350E+01
(PID.TID 0000.0001) %MON dynstat_theta_min            =  -1.8995801518687E+00
(PID.TID 0000.0001) %MON dynstat_theta_mean           =   3.4508222610215E+00
(PID.TID 0000.0001) %MON dynstat_theta_sd             =   4.1932160378328E+00
(PID.TID 0000.0001) %MON dynstat_theta_del2           =   1.4332059804606E-01
(PID.TID 0000.0001) %MON dynstat_salt_max             =   3.7404464729315E+01
(PID.TID 0000.0001) %MON dynstat_salt_min             =   3.1284629959268E+01
(PID.TID 0000.0001) %MON dynstat_salt_mean            =   3.4717747494355E+01
(PID.TID 0000.0001) %MON dynstat_salt_sd              =   2.8136284362968E-01
(PID.TID 0000.0001) %MON dynstat_salt_del2            =   2.4490167188820E-02
(PID.TID 0000.0001) %MON advcfl_uvel_max              =   1.9837206337661E-02
(PID.TID 0000.0001) %MON advcfl_vvel_max              =   1.0553955551376E-02
(PID.TID 0000.0001) %MON advcfl_wvel_max              =   1.9488503097405E-01
(PID.TID 0000.0001) %MON advcfl_W_hf_max              =   1.8571938301759E-01
(PID.TID 0000.0001) %MON ke_max                       =   7.7882527365175E-03
(PID.TID 0000.0001) %MON ke_mean                      =   3.2795716333787E-04
(PID.TID 0000.0001) %MON ke_volint                    =   3.4082341507594E+14
(PID.TID 0000.0001) %MON ke_volmean                   =   2.3509783035582E-04
(PID.TID 0000.0001) // =======================================================
(PID.TID 0000.0001) // End MONITOR dynamic field statistics
(PID.TID 0000.0001) // =======================================================
time,SST,SSS,fu,fv,Q,E-P,i0,i1,a,b =   5.6160E+05  0.0000E+00  0.0000E+00  0.0000E+00  0.0000E+00  1.3821E-01  0.0000E+00    12     1  7.1667E-01  2.8333E-01
time,fu0,fu1,fu =   5.6160E+05  0.0000E+00  0.0000E+00  0.0000E+00  7.1667E-01  2.8333E-01
 cg2d: Sum(rhs),rhsMax =   2.17673101765570E-13  1.11452125017059E+01
(PID.TID 0000.0001)                    cg2d_init_res =    9.33959627527997E-01
(PID.TID 0000.0001)                       cg2d_iters =    28
(PID.TID 0000.0001)                         cg2d_res =    6.68801014877900E-18
(PID.TID 0000.0001) // =======================================================
(PID.TID 0000.0001) // Begin MONITOR dynamic field statistics
(PID.TID 0000.0001) // =======================================================
(PID.TID 0000.0001) %MON time_tsnumber                =                    14
(PID.TID 0000.0001) %MON time_secondsf                =   6.0480000000000E+05
(PID.TID 0000.0001) %MON time_secondsi                =                604800
(PID.TID 0000.0001) %MON dynstat_eta_max              =   1.1757718992168E+00
(PID.TID 0000.0001) %MON dynstat_eta_min              =  -1.2318281804545E+00
(PID.TID 0000.0001) %MON dynstat_eta_mean             =  -9.0457225666011E-17
(PID.TID 0000.0001) %MON dynstat_eta_sd               =   3.8754527526385E-01
(PID.TID 0000.0001) %MON dynstat_eta_del2             =   2.0350778396341E-02
(PID.TID 0000.0001) %MON dynstat_uvel_max             =   1.3283745004403E-01
(PID.TID 0000.0001) %MON dynstat_uvel_min             =  -9.6766559141163E-02
(PID.TID 0000.0001) %MON dynstat_uvel_mean            =  -9.4152753394214E-03
(PID.TID 0000.0001) %MON dynstat_uvel_sd              =   1.4985267014780E-02
(PID.TID 0000.0001) %MON dynstat_uvel_del2            =   2.6551662395736E-03
(PID.TID 0000.0001) %MON dynstat_vvel_max             =   1.0955183930764E-01
(PID.TID 0000.0001) %MON dynstat_vvel_min             =  -1.0863106203783E-01
(PID.TID 0000.0001) %MON dynstat_vvel_mean            =   3.5910290235708E-03
(PID.TID 0000.0001) %MON dynstat_vvel_sd              =   1.4296080326473E-02
(PID.TID 0000.0001) %MON dynstat_vvel_del2            =   3.1951671040132E-03
(PID.TID 0000.0001) %MON dynstat_wvel_max             =   2.7903685216389E-04
(PID.TID 0000.0001) %MON dynstat_wvel_min             =  -2.8680793855952E-04
(PID.TID 0000.0001) %MON dynstat_wvel_mean            =  -1.7624042397415E-21
(PID.TID 0000.0001) %MON dynstat_wvel_sd              =   3.3665992857079E-05
(PID.TID 0000.0001) %MON dynstat_wvel_del2            =   1.1296573168989E-05
(PID.TID 0000.0001) %MON dynstat_theta_max            =   2.9462529415504E+01
(PID.TID 0000.0001) %MON dynstat_theta_min            =  -1.8995717713422E+00
(PID.TID 0000.0001) %MON dynstat_theta_mean           =   3.4495787797332E+00
(PID.TID 0000.0001) %MON dynstat_theta_sd             =   4.1891927523363E+00
(PID.TID 0000.0001) %MON dynstat_theta_del2           =   1.4280626871089E-01
(PID.TID 0000.0001) %MON dynstat_salt_max             =   3.7405073455890E+01
(PID.TID 0000.0001) %MON dynstat_salt_min             =   3.1265729655241E+01
(PID.TID 0000.0001) %MON dynstat_salt_mean            =   3.4717671268690E+01
(PID.TID 0000.0001) %MON dynstat_salt_sd              =   2.8135080942917E-01
(PID.TID 0000.0001) %MON dynstat_salt_del2            =   2.4466433366049E-02
(PID.TID 0000.0001) %MON advcfl_uvel_max              =   2.0959721471398E-02
(PID.TID 0000.0001) %MON advcfl_vvel_max              =   1.0642082688605E-02
(PID.TID 0000.0001) %MON advcfl_wvel_max              =   1.8376227431728E-01
(PID.TID 0000.0001) %MON advcfl_W_hf_max              =   1.7469789544985E-01
(PID.TID 0000.0001) %MON ke_max                       =   8.8188307406617E-03
(PID.TID 0000.0001) %MON ke_mean                      =   3.5372246991185E-04
(PID.TID 0000.0001) %MON ke_volint                    =   3.5392368421259E+14
(PID.TID 0000.0001) %MON ke_volmean                   =   2.4413431292969E-04
(PID.TID 0000.0001) // =======================================================
(PID.TID 0000.0001) // End MONITOR dynamic field statistics
(PID.TID 0000.0001) // =======================================================
time,SST,SSS,fu,fv,Q,E-P,i0,i1,a,b =   6.0480E+05  0.0000E+00  0.0000E+00  0.0000E+00  0.0000E+00  1.3008E-01  0.0000E+00    12     1  7.3333E-01  2.6667E-01
time,fu0,fu1,fu =   6.0480E+05  0.0000E+00  0.0000E+00  0.0000E+00  7.3333E-01  2.6667E-01
 cg2d: Sum(rhs),rhsMax =  -1.46313516857788E-13  1.11323809137047E+01
(PID.TID 0000.0001)                    cg2d_init_res =    9.17197881377622E-01
(PID.TID 0000.0001)                       cg2d_iters =    28
(PID.TID 0000.0001)                         cg2d_res =    6.51513321552246E-18
(PID.TID 0000.0001) // =======================================================
(PID.TID 0000.0001) // Begin MONITOR dynamic field statistics
(PID.TID 0000.0001) // =======================================================
(PID.TID 0000.0001) %MON time_tsnumber                =                    15
(PID.TID 0000.0001) %MON time_secondsf                =   6.4800000000000E+05
(PID.TID 0000.0001) %MON time_secondsi                =                648000
(PID.TID 0000.0001) %MON dynstat_eta_max              =   1.1759370230672E+00
(PID.TID 0000.0001) %MON dynstat_eta_min              =  -1.2186333665183E+00
(PID.TID 0000.0001) %MON dynstat_eta_mean             =  -2.9852242755267E-16
(PID.TID 0000.0001) %MON dynstat_eta_sd               =   3.9627226604638E-01
(PID.TID 0000.0001) %MON dynstat_eta_del2             =   1.9886981920949E-02
(PID.TID 0000.0001) %MON dynstat_uvel_max             =   1.4156588960857E-01
(PID.TID 0000.0001) %MON dynstat_uvel_min             =  -1.0043424497925E-01
(PID.TID 0000.0001) %MON dynstat_uvel_mean            =  -9.5147032314341E-03
(PID.TID 0000.0001) %MON dynstat_uvel_sd              =   1.5729129132733E-02
(PID.TID 0000.0001) %MON dynstat_uvel_del2            =   2.7255201087504E-03
(PID.TID 0000.0001) %MON dynstat_vvel_max             =   1.1024974647602E-01
(PID.TID 0000.0001) %MON dynstat_vvel_min             =  -1.1141398594368E-01
(PID.TID 0000.0001) %MON dynstat_vvel_mean            =   3.2943357188261E-03
(PID.TID 0000.0001) %MON dynstat_vvel_sd              =   1.4066923226957E-02
(PID.TID 0000.0001) %MON dynstat_vvel_del2            =   3.2003467972661E-03
(PID.TID 0000.0001) %MON dynstat_wvel_max             =   2.9408980852082E-04
(PID.TID 0000.0001) %MON dynstat_wvel_min             =  -2.9657890025326E-04
(PID.TID 0000.0001) %MON dynstat_wvel_mean            =   8.8285007512035E-22
(PID.TID 0000.0001) %MON dynstat_wvel_sd              =   3.2843746056081E-05
(PID.TID 0000.0001) %MON dynstat_wvel_del2            =   1.0997151871292E-05
(PID.TID 0000.0001) %MON dynstat_theta_max            =   2.9429777097218E+01
(PID.TID 0000.0001) %MON dynstat_theta_min            =  -1.8995662828070E+00
(PID.TID 0000.0001) %MON dynstat_theta_mean           =   3.4485275578281E+00
(PID.TID 0000.0001) %MON dynstat_theta_sd             =   4.1854876913650E+00
(PID.TID 0000.0001) %MON dynstat_theta_del2           =   1.4233579277388E-01
(PID.TID 0000.0001) %MON dynstat_salt_max             =   3.7405621592992E+01
(PID.TID 0000.0001) %MON dynstat_salt_min             =   3.1252876867055E+01
(PID.TID 0000.0001) %MON dynstat_salt_mean            =   3.4717614822970E+01
(PID.TID 0000.0001) %MON dynstat_salt_sd              =   2.8132861376650E-01
(PID.TID 0000.0001) %MON dynstat_salt_del2            =   2.4449668929587E-02
(PID.TID 0000.0001) %MON advcfl_uvel_max              =   2.1905715214583E-02
(PID.TID 0000.0001) %MON advcfl_vvel_max              =   1.0822975301675E-02
(PID.TID 0000.0001) %MON advcfl_wvel_max              =   1.6382626014084E-01
(PID.TID 0000.0001) %MON advcfl_W_hf_max              =   1.5393495126223E-01
(PID.TID 0000.0001) %MON ke_max                       =   1.0043218303939E-02
(PID.TID 0000.0001) %MON ke_mean                      =   3.7837650930023E-04
(PID.TID 0000.0001) %MON ke_volint                    =   3.6487617868100E+14
(PID.TID 0000.0001) %MON ke_volmean                   =   2.5168927415774E-04
(PID.TID 0000.0001) // =======================================================
(PID.TID 0000.0001) // End MONITOR dynamic field statistics
(PID.TID 0000.0001) // =======================================================
time,SST,SSS,fu,fv,Q,E-P,i0,i1,a,b =   6.4800E+05  0.0000E+00  0.0000E+00  0.0000E+00  0.0000E+00  1.2195E-01  0.0000E+00    12     1  7.5000E-01  2.5000E-01
time,fu0,fu1,fu =   6.4800E+05  0.0000E+00  0.0000E+00  0.0000E+00  7.5000E-01  2.5000E-01
 cg2d: Sum(rhs),rhsMax =   6.44415076855864E-14  1.08400532229118E+01
(PID.TID 0000.0001)                    cg2d_init_res =    9.41554681005632E-01
(PID.TID 0000.0001)                       cg2d_iters =    28
(PID.TID 0000.0001)                         cg2d_res =    8.23207842193817E-18
(PID.TID 0000.0001) // =======================================================
(PID.TID 0000.0001) // Begin MONITOR dynamic field statistics
(PID.TID 0000.0001) // =======================================================
(PID.TID 0000.0001) %MON time_tsnumber                =                    16
(PID.TID 0000.0001) %MON time_secondsf                =   6.9120000000000E+05
(PID.TID 0000.0001) %MON time_secondsi                =                691200
(PID.TID 0000.0001) %MON dynstat_eta_max              =   1.1478301657608E+00
(PID.TID 0000.0001) %MON dynstat_eta_min              =  -1.1860472887396E+00
(PID.TID 0000.0001) %MON dynstat_eta_mean             =  -2.5423821086704E-16
(PID.TID 0000.0001) %MON dynstat_eta_sd               =   4.0183297816898E-01
(PID.TID 0000.0001) %MON dynstat_eta_del2             =   1.9378796694054E-02
(PID.TID 0000.0001) %MON dynstat_uvel_max             =   1.5068732282783E-01
(PID.TID 0000.0001) %MON dynstat_uvel_min             =  -1.0307434886970E-01
(PID.TID 0000.0001) %MON dynstat_uvel_mean            =  -9.4740095383254E-03
(PID.TID 0000.0001) %MON dynstat_uvel_sd              =   1.6381255094414E-02
(PID.TID 0000.0001) %MON dynstat_uvel_del2            =   2.7870312775345E-03
(PID.TID 0000.0001) %MON dynstat_vvel_max             =   1.1060246421148E-01
(PID.TID 0000.0001) %MON dynstat_vvel_min             =  -1.1368434092427E-01
(PID.TID 0000.0001) %MON dynstat_vvel_mean            =   3.0177473001257E-03
(PID.TID 0000.0001) %MON dynstat_vvel_sd              =   1.3874094682656E-02
(PID.TID 0000.0001) %MON dynstat_vvel_del2            =   3.1836775060707E-03
(PID.TID 0000.0001) %MON dynstat_wvel_max             =   3.0893545939853E-04
(PID.TID 0000.0001) %MON dynstat_wvel_min             =  -3.0148716529069E-04
(PID.TID 0000.0001) %MON dynstat_wvel_mean            =   1.3753011281742E-21
(PID.TID 0000.0001) %MON dynstat_wvel_sd              =   3.2026735336528E-05
(PID.TID 0000.0001) %MON dynstat_wvel_del2            =   1.0617596956443E-05
(PID.TID 0000.0001) %MON dynstat_theta_max            =   2.9389422336581E+01
(PID.TID 0000.0001) %MON dynstat_theta_min            =  -1.8995638895452E+00
(PID.TID 0000.0001) %MON dynstat_theta_mean           =   3.4476712042753E+00
(PID.TID 0000.0001) %MON dynstat_theta_sd             =   4.1821519950066E+00
(PID.TID 0000.0001) %MON dynstat_theta_del2           =   1.4191052867746E-01
(PID.TID 0000.0001) %MON dynstat_salt_max             =   3.7406072235142E+01
(PID.TID 0000.0001) %MON dynstat_salt_min             =   3.1247012717298E+01
(PID.TID 0000.0001) %MON dynstat_salt_mean            =   3.4717577688663E+01
(PID.TID 0000.0001) %MON dynstat_salt_sd              =   2.8129807104922E-01
(PID.TID 0000.0001) %MON dynstat_salt_del2            =   2.4438010966822E-02
(PID.TID 0000.0001) %MON advcfl_uvel_max              =   2.2653311459833E-02
(PID.TID 0000.0001) %MON advcfl_vvel_max              =   1.1043522081982E-02
(PID.TID 0000.0001) %MON advcfl_wvel_max              =   1.5010494887662E-01
(PID.TID 0000.0001) %MON advcfl_W_hf_max              =   1.4984515176802E-01
(PID.TID 0000.0001) %MON ke_max                       =   1.1253073075569E-02
(PID.TID 0000.0001) %MON ke_mean                      =   4.0153862562377E-04
(PID.TID 0000.0001) %MON ke_volint                    =   3.7369758723574E+14
(PID.TID 0000.0001) %MON ke_volmean                   =   2.5777422583701E-04
(PID.TID 0000.0001) // =======================================================
(PID.TID 0000.0001) // End MONITOR dynamic field statistics
(PID.TID 0000.0001) // =======================================================
time,SST,SSS,fu,fv,Q,E-P,i0,i1,a,b =   6.9120E+05  0.0000E+00  0.0000E+00  0.0000E+00  0.0000E+00  1.1382E-01  0.0000E+00    12     1  7.6667E-01  2.3333E-01
time,fu0,fu1,fu =   6.9120E+05  0.0000E+00  0.0000E+00  0.0000E+00  7.6667E-01  2.3333E-01
 cg2d: Sum(rhs),rhsMax =  -1.37501121599826E-13  1.07133116683762E+01
(PID.TID 0000.0001)                    cg2d_init_res =    9.61474975063184E-01
(PID.TID 0000.0001)                       cg2d_iters =    28
(PID.TID 0000.0001)                         cg2d_res =    6.52168641613721E-18
(PID.TID 0000.0001) // =======================================================
(PID.TID 0000.0001) // Begin MONITOR dynamic field statistics
(PID.TID 0000.0001) // =======================================================
(PID.TID 0000.0001) %MON time_tsnumber                =                    17
(PID.TID 0000.0001) %MON time_secondsf                =   7.3440000000000E+05
(PID.TID 0000.0001) %MON time_secondsi                =                734400
(PID.TID 0000.0001) %MON dynstat_eta_max              =   1.0968833457111E+00
(PID.TID 0000.0001) %MON dynstat_eta_min              =  -1.1696800893992E+00
(PID.TID 0000.0001) %MON dynstat_eta_mean             =   8.5916605902512E-17
(PID.TID 0000.0001) %MON dynstat_eta_sd               =   4.0467315335026E-01
(PID.TID 0000.0001) %MON dynstat_eta_del2             =   1.8897260051230E-02
(PID.TID 0000.0001) %MON dynstat_uvel_max             =   1.5904828485635E-01
(PID.TID 0000.0001) %MON dynstat_uvel_min             =  -1.0465282330872E-01
(PID.TID 0000.0001) %MON dynstat_uvel_mean            =  -9.3026337401375E-03
(PID.TID 0000.0001) %MON dynstat_uvel_sd              =   1.6945013822154E-02
(PID.TID 0000.0001) %MON dynstat_uvel_del2            =   2.8411858455029E-03
(PID.TID 0000.0001) %MON dynstat_vvel_max             =   1.0988677519924E-01
(PID.TID 0000.0001) %MON dynstat_vvel_min             =  -1.1439860987095E-01
(PID.TID 0000.0001) %MON dynstat_vvel_mean            =   2.7741382450898E-03
(PID.TID 0000.0001) %MON dynstat_vvel_sd              =   1.3715266663416E-02
(PID.TID 0000.0001) %MON dynstat_vvel_del2            =   3.1503292310487E-03
(PID.TID 0000.0001) %MON dynstat_wvel_max             =   3.2336584966049E-04
(PID.TID 0000.0001) %MON dynstat_wvel_min             =  -3.0144513724599E-04
(PID.TID 0000.0001) %MON dynstat_wvel_mean            =  -3.7399295616422E-22
(PID.TID 0000.0001) %MON dynstat_wvel_sd              =   3.1246940834611E-05
(PID.TID 0000.0001) %MON dynstat_wvel_del2            =   1.0179376625779E-05
(PID.TID 0000.0001) %MON dynstat_theta_max            =   2.9343356217116E+01
(PID.TID 0000.0001) %MON dynstat_theta_min            =  -1.8995641717434E+00
(PID.TID 0000.0001) %MON dynstat_theta_mean           =   3.4470072577763E+00
(PID.TID 0000.0001) %MON dynstat_theta_sd             =   4.1792306334676E+00
(PID.TID 0000.0001) %MON dynstat_theta_del2           =   1.4154320787342E-01
(PID.TID 0000.0001) %MON dynstat_salt_max             =   3.7406400437824E+01
(PID.TID 0000.0001) %MON dynstat_salt_min             =   3.1249695777466E+01
(PID.TID 0000.0001) %MON dynstat_salt_mean            =   3.4717558831432E+01
(PID.TID 0000.0001) %MON dynstat_salt_sd              =   2.8126208243206E-01
(PID.TID 0000.0001) %MON dynstat_salt_del2            =   2.4431225253880E-02
(PID.TID 0000.0001) %MON advcfl_uvel_max              =   2.3181800465880E-02
(PID.TID 0000.0001) %MON advcfl_vvel_max              =   1.1112907582403E-02
(PID.TID 0000.0001) %MON advcfl_wvel_max              =   1.7430911739000E-01
(PID.TID 0000.0001) %MON advcfl_W_hf_max              =   1.7401051464545E-01
(PID.TID 0000.0001) %MON ke_max                       =   1.2418327761909E-02
(PID.TID 0000.0001) %MON ke_mean                      =   4.2278020853796E-04
(PID.TID 0000.0001) %MON ke_volint                    =   3.8031943238155E+14
(PID.TID 0000.0001) %MON ke_volmean                   =   2.6234193262554E-04
(PID.TID 0000.0001) // =======================================================
(PID.TID 0000.0001) // End MONITOR dynamic field statistics
(PID.TID 0000.0001) // =======================================================
time,SST,SSS,fu,fv,Q,E-P,i0,i1,a,b =   7.3440E+05  0.0000E+00  0.0000E+00  0.0000E+00  0.0000E+00  1.0569E-01  0.0000E+00    12     1  7.8333E-01  2.1667E-01
time,fu0,fu1,fu =   7.3440E+05  0.0000E+00  0.0000E+00  0.0000E+00  7.8333E-01  2.1667E-01
 cg2d: Sum(rhs),rhsMax =  -5.73152636462737E-15  1.06869033378024E+01
(PID.TID 0000.0001)                    cg2d_init_res =    9.72235607889528E-01
(PID.TID 0000.0001)                       cg2d_iters =    28
(PID.TID 0000.0001)                         cg2d_res =    8.37489778232922E-18
(PID.TID 0000.0001) // =======================================================
(PID.TID 0000.0001) // Begin MONITOR dynamic field statistics
(PID.TID 0000.0001) // =======================================================
(PID.TID 0000.0001) %MON time_tsnumber                =                    18
(PID.TID 0000.0001) %MON time_secondsf                =   7.7760000000000E+05
(PID.TID 0000.0001) %MON time_secondsi                =                777600
(PID.TID 0000.0001) %MON dynstat_eta_max              =   1.0754224306178E+00
(PID.TID 0000.0001) %MON dynstat_eta_min              =  -1.1606263546006E+00
(PID.TID 0000.0001) %MON dynstat_eta_mean             =  -1.0124025089844E-16
(PID.TID 0000.0001) %MON dynstat_eta_sd               =   4.0527998007036E-01
(PID.TID 0000.0001) %MON dynstat_eta_del2             =   1.8461455398601E-02
(PID.TID 0000.0001) %MON dynstat_uvel_max             =   1.6644674230506E-01
(PID.TID 0000.0001) %MON dynstat_uvel_min             =  -1.0517079945832E-01
(PID.TID 0000.0001) %MON dynstat_uvel_mean            =  -9.0134986458058E-03
(PID.TID 0000.0001) %MON dynstat_uvel_sd              =   1.7423682297134E-02
(PID.TID 0000.0001) %MON dynstat_uvel_del2            =   2.8928195931525E-03
(PID.TID 0000.0001) %MON dynstat_vvel_max             =   1.0788458198666E-01
(PID.TID 0000.0001) %MON dynstat_vvel_min             =  -1.1350961227693E-01
(PID.TID 0000.0001) %MON dynstat_vvel_mean            =   2.5732429988057E-03
(PID.TID 0000.0001) %MON dynstat_vvel_sd              =   1.3581064313756E-02
(PID.TID 0000.0001) %MON dynstat_vvel_del2            =   3.1018623975269E-03
(PID.TID 0000.0001) %MON dynstat_wvel_max             =   3.3704129864246E-04
(PID.TID 0000.0001) %MON dynstat_wvel_min             =  -3.0651333591556E-04
(PID.TID 0000.0001) %MON dynstat_wvel_mean            =  -4.2152701761153E-22
(PID.TID 0000.0001) %MON dynstat_wvel_sd              =   3.0520024165126E-05
(PID.TID 0000.0001) %MON dynstat_wvel_del2            =   9.7026274314051E-06
(PID.TID 0000.0001) %MON dynstat_theta_max            =   2.9293952428947E+01
(PID.TID 0000.0001) %MON dynstat_theta_min            =  -1.8995664626142E+00
(PID.TID 0000.0001) %MON dynstat_theta_mean           =   3.4465283032862E+00
(PID.TID 0000.0001) %MON dynstat_theta_sd             =   4.1767589450100E+00
(PID.TID 0000.0001) %MON dynstat_theta_del2           =   1.4120632003781E-01
(PID.TID 0000.0001) %MON dynstat_salt_max             =   3.7406594828598E+01
(PID.TID 0000.0001) %MON dynstat_salt_min             =   3.1262651287732E+01
(PID.TID 0000.0001) %MON dynstat_salt_mean            =   3.4717556722801E+01
(PID.TID 0000.0001) %MON dynstat_salt_sd              =   2.8122378056872E-01
(PID.TID 0000.0001) %MON dynstat_salt_del2            =   2.4428000291909E-02
(PID.TID 0000.0001) %MON advcfl_uvel_max              =   2.3472407706241E-02
(PID.TID 0000.0001) %MON advcfl_vvel_max              =   1.1026548595047E-02
(PID.TID 0000.0001) %MON advcfl_wvel_max              =   1.8783340841503E-01
(PID.TID 0000.0001) %MON advcfl_W_hf_max              =   1.8902695300130E-01
(PID.TID 0000.0001) %MON ke_max                       =   1.3512464820676E-02
(PID.TID 0000.0001) %MON ke_mean                      =   4.4172118483651E-04
(PID.TID 0000.0001) %MON ke_volint                    =   3.8467552016001E+14
(PID.TID 0000.0001) %MON ke_volmean                   =   2.6534673435058E-04
(PID.TID 0000.0001) // =======================================================
(PID.TID 0000.0001) // End MONITOR dynamic field statistics
(PID.TID 0000.0001) // =======================================================
time,SST,SSS,fu,fv,Q,E-P,i0,i1,a,b =   7.7760E+05  0.0000E+00  0.0000E+00  0.0000E+00  0.0000E+00  9.7557E-02  0.0000E+00    12     1  8.0000E-01  2.0000E-01
time,fu0,fu1,fu =   7.7760E+05  0.0000E+00  0.0000E+00  0.0000E+00  8.0000E-01  2.0000E-01
 cg2d: Sum(rhs),rhsMax =   4.18276524527528E-14  1.04539629841064E+01
(PID.TID 0000.0001)                    cg2d_init_res =    9.95002895856309E-01
(PID.TID 0000.0001)                       cg2d_iters =    28
(PID.TID 0000.0001)                         cg2d_res =    8.71148028650890E-18
(PID.TID 0000.0001) // =======================================================
(PID.TID 0000.0001) // Begin MONITOR dynamic field statistics
(PID.TID 0000.0001) // =======================================================
(PID.TID 0000.0001) %MON time_tsnumber                =                    19
(PID.TID 0000.0001) %MON time_secondsf                =   8.2080000000000E+05
(PID.TID 0000.0001) %MON time_secondsi                =                820800
(PID.TID 0000.0001) %MON dynstat_eta_max              =   1.0502731188029E+00
(PID.TID 0000.0001) %MON dynstat_eta_min              =  -1.1478932548961E+00
(PID.TID 0000.0001) %MON dynstat_eta_mean             =   2.7115818749901E-17
(PID.TID 0000.0001) %MON dynstat_eta_sd               =   4.0412947597028E-01
(PID.TID 0000.0001) %MON dynstat_eta_del2             =   1.8070932849495E-02
(PID.TID 0000.0001) %MON dynstat_uvel_max             =   1.7268734368136E-01
(PID.TID 0000.0001) %MON dynstat_uvel_min             =  -1.0535843641731E-01
(PID.TID 0000.0001) %MON dynstat_uvel_mean            =  -8.6221243117321E-03
(PID.TID 0000.0001) %MON dynstat_uvel_sd              =   1.7819808639410E-02
(PID.TID 0000.0001) %MON dynstat_uvel_del2            =   2.9452832875855E-03
(PID.TID 0000.0001) %MON dynstat_vvel_max             =   1.0562477683752E-01
(PID.TID 0000.0001) %MON dynstat_vvel_min             =  -1.1099737971704E-01
(PID.TID 0000.0001) %MON dynstat_vvel_mean            =   2.4217885522059E-03
(PID.TID 0000.0001) %MON dynstat_vvel_sd              =   1.3461529037378E-02
(PID.TID 0000.0001) %MON dynstat_vvel_del2            =   3.0455832239534E-03
(PID.TID 0000.0001) %MON dynstat_wvel_max             =   3.4960476423944E-04
(PID.TID 0000.0001) %MON dynstat_wvel_min             =  -3.1589619437741E-04
(PID.TID 0000.0001) %MON dynstat_wvel_mean            =  -4.5688274145136E-22
(PID.TID 0000.0001) %MON dynstat_wvel_sd              =   2.9856700969846E-05
(PID.TID 0000.0001) %MON dynstat_wvel_del2            =   9.2197007284345E-06
(PID.TID 0000.0001) %MON dynstat_theta_max            =   2.9259648023200E+01
(PID.TID 0000.0001) %MON dynstat_theta_min            =  -1.8995701194207E+00
(PID.TID 0000.0001) %MON dynstat_theta_mean           =   3.4462222912209E+00
(PID.TID 0000.0001) %MON dynstat_theta_sd             =   4.1747600099761E+00
(PID.TID 0000.0001) %MON dynstat_theta_del2           =   1.4091277716890E-01
(PID.TID 0000.0001) %MON dynstat_salt_max             =   3.7406654760512E+01
(PID.TID 0000.0001) %MON dynstat_salt_min             =   3.1287170842986E+01
(PID.TID 0000.0001) %MON dynstat_salt_mean            =   3.4717569419222E+01
(PID.TID 0000.0001) %MON dynstat_salt_sd              =   2.8118622580382E-01
(PID.TID 0000.0001) %MON dynstat_salt_del2            =   2.4427942888603E-02
(PID.TID 0000.0001) %MON advcfl_uvel_max              =   2.3618311366484E-02
(PID.TID 0000.0001) %MON advcfl_vvel_max              =   1.0782505347537E-02
(PID.TID 0000.0001) %MON advcfl_wvel_max              =   1.8923897913865E-01
(PID.TID 0000.0001) %MON advcfl_W_hf_max              =   1.9202580223004E-01
(PID.TID 0000.0001) %MON ke_max                       =   1.4513392219492E-02
(PID.TID 0000.0001) %MON ke_mean                      =   4.5810010975436E-04
(PID.TID 0000.0001) %MON ke_volint                    =   3.8677640597487E+14
(PID.TID 0000.0001) %MON ke_volmean                   =   2.6679591206271E-04
(PID.TID 0000.0001) // =======================================================
(PID.TID 0000.0001) // End MONITOR dynamic field statistics
(PID.TID 0000.0001) // =======================================================
time,SST,SSS,fu,fv,Q,E-P,i0,i1,a,b =   8.2080E+05  0.0000E+00  0.0000E+00  0.0000E+00  0.0000E+00  8.9427E-02  0.0000E+00    12     1  8.1667E-01  1.8333E-01
time,fu0,fu1,fu =   8.2080E+05  0.0000E+00  0.0000E+00  0.0000E+00  8.1667E-01  1.8333E-01
 cg2d: Sum(rhs),rhsMax =   3.42725847701786E-13  9.92013184049664E+00
(PID.TID 0000.0001)                    cg2d_init_res =    1.03873275226345E+00
(PID.TID 0000.0001)                       cg2d_iters =    28
(PID.TID 0000.0001)                         cg2d_res =    9.59838299158557E-18
(PID.TID 0000.0001) // =======================================================
(PID.TID 0000.0001) // Begin MONITOR dynamic field statistics
(PID.TID 0000.0001) // =======================================================
(PID.TID 0000.0001) %MON time_tsnumber                =                    20
(PID.TID 0000.0001) %MON time_secondsf                =   8.6400000000000E+05
(PID.TID 0000.0001) %MON time_secondsi                =                864000
(PID.TID 0000.0001) %MON dynstat_eta_max              =   9.9622513217334E-01
(PID.TID 0000.0001) %MON dynstat_eta_min              =  -1.1195964793910E+00
(PID.TID 0000.0001) %MON dynstat_eta_mean             =  -1.6756480659833E-16
(PID.TID 0000.0001) %MON dynstat_eta_sd               =   4.0165201533335E-01
(PID.TID 0000.0001) %MON dynstat_eta_del2             =   1.7739867856366E-02
(PID.TID 0000.0001) %MON dynstat_uvel_max             =   1.7758673117020E-01
(PID.TID 0000.0001) %MON dynstat_uvel_min             =  -1.0544498756794E-01
(PID.TID 0000.0001) %MON dynstat_uvel_mean            =  -8.1457751025266E-03
(PID.TID 0000.0001) %MON dynstat_uvel_sd              =   1.8134831748645E-02
(PID.TID 0000.0001) %MON dynstat_uvel_del2            =   2.9980341631774E-03
(PID.TID 0000.0001) %MON dynstat_vvel_max             =   1.1030275153203E-01
(PID.TID 0000.0001) %MON dynstat_vvel_min             =  -1.1281579928577E-01
(PID.TID 0000.0001) %MON dynstat_vvel_mean            =   2.3236333011826E-03
(PID.TID 0000.0001) %MON dynstat_vvel_sd              =   1.3350945868253E-02
(PID.TID 0000.0001) %MON dynstat_vvel_del2            =   2.9875981713321E-03
(PID.TID 0000.0001) %MON dynstat_wvel_max             =   3.6072961017047E-04
(PID.TID 0000.0001) %MON dynstat_wvel_min             =  -3.2423409598332E-04
(PID.TID 0000.0001) %MON dynstat_wvel_mean            =  -1.2030233087380E-22
(PID.TID 0000.0001) %MON dynstat_wvel_sd              =   2.9272045383365E-05
(PID.TID 0000.0001) %MON dynstat_wvel_del2            =   8.7746117510225E-06
(PID.TID 0000.0001) %MON dynstat_theta_max            =   2.9243875859104E+01
(PID.TID 0000.0001) %MON dynstat_theta_min            =  -1.8995746478738E+00
(PID.TID 0000.0001) %MON dynstat_theta_mean           =   3.4460726677834E+00
(PID.TID 0000.0001) %MON dynstat_theta_sd             =   4.1732427981114E+00
(PID.TID 0000.0001) %MON dynstat_theta_del2           =   1.4066997814499E-01
(PID.TID 0000.0001) %MON dynstat_salt_max             =   3.7406587191317E+01
(PID.TID 0000.0001) %MON dynstat_salt_min             =   3.1323517029150E+01
(PID.TID 0000.0001) %MON dynstat_salt_mean            =   3.4717594588556E+01
(PID.TID 0000.0001) %MON dynstat_salt_sd              =   2.8115213832604E-01
(PID.TID 0000.0001) %MON dynstat_salt_del2            =   2.4430698873208E-02
(PID.TID 0000.0001) %MON advcfl_uvel_max              =   2.4151610964309E-02
(PID.TID 0000.0001) %MON advcfl_vvel_max              =   1.0959150226668E-02
(PID.TID 0000.0001) %MON advcfl_wvel_max              =   1.8074844367460E-01
(PID.TID 0000.0001) %MON advcfl_W_hf_max              =   1.8397972058227E-01
(PID.TID 0000.0001) %MON ke_max                       =   1.5403642036840E-02
(PID.TID 0000.0001) %MON ke_mean                      =   4.7180365957553E-04
(PID.TID 0000.0001) %MON ke_volint                    =   3.8674946421023E+14
(PID.TID 0000.0001) %MON ke_volmean                   =   2.6677732780431E-04
(PID.TID 0000.0001) // =======================================================
(PID.TID 0000.0001) // End MONITOR dynamic field statistics
(PID.TID 0000.0001) // =======================================================
(PID.TID 0000.0001)   Seconds in section "ALL                [THE_MODEL_MAIN]":
(PID.TID 0000.0001)           User time:  35.0599997
(PID.TID 0000.0001)         System time:  0.519999981
(PID.TID 0000.0001)     Wall clock time:  36.0983859
(PID.TID 0000.0001)          No. starts: 1
(PID.TID 0000.0001)           No. stops: 1
(PID.TID 0000.0001)   Seconds in section "INITIALISE_FIXED   [THE_MODEL_MAIN]":
(PID.TID 0000.0001)           User time:  0.330000004
(PID.TID 0000.0001)         System time:  0.100000001
(PID.TID 0000.0001)     Wall clock time:  0.425788999
(PID.TID 0000.0001)          No. starts: 1
(PID.TID 0000.0001)           No. stops: 1
(PID.TID 0000.0001)   Seconds in section "THE_MAIN_LOOP      [THE_MODEL_MAIN]":
(PID.TID 0000.0001)           User time:  34.2299997
(PID.TID 0000.0001)         System time:  0.309999995
(PID.TID 0000.0001)     Wall clock time:  35.0380239
(PID.TID 0000.0001)          No. starts: 1
(PID.TID 0000.0001)           No. stops: 1
(PID.TID 0000.0001)   Seconds in section "INITIALISE_VARIA    [THE_MAIN_LOOP]":
(PID.TID 0000.0001)           User time:  0.189999968
(PID.TID 0000.0001)         System time:  0.130000003
(PID.TID 0000.0001)     Wall clock time:  0.413506031
(PID.TID 0000.0001)          No. starts: 1
(PID.TID 0000.0001)           No. stops: 1
(PID.TID 0000.0001)   Seconds in section "WRITE_STATE         [THE_MAIN_LOOP]":
(PID.TID 0000.0001)           User time:  0.0800000429
(PID.TID 0000.0001)         System time:  0.0299999863
(PID.TID 0000.0001)     Wall clock time:  0.111698031
(PID.TID 0000.0001)          No. starts: 1
(PID.TID 0000.0001)           No. stops: 1
(PID.TID 0000.0001)   Seconds in section "MONITOR             [THE_MAIN_LOOP]":
(PID.TID 0000.0001)           User time:  0.159999967
(PID.TID 0000.0001)         System time:  0.
(PID.TID 0000.0001)     Wall clock time:  0.158772945
(PID.TID 0000.0001)          No. starts: 1
(PID.TID 0000.0001)           No. stops: 1
(PID.TID 0000.0001)   Seconds in section "MAIN LOOP           [THE_MAIN_LOOP]":
(PID.TID 0000.0001)           User time:  33.7999997
(PID.TID 0000.0001)         System time:  0.150000006
(PID.TID 0000.0001)     Wall clock time:  34.3536711
(PID.TID 0000.0001)          No. starts: 1
(PID.TID 0000.0001)           No. stops: 1
(PID.TID 0000.0001)   Seconds in section "FORWARD_STEP        [THE_MAIN_LOOP]":
(PID.TID 0000.0001)           User time:  33.7999997
(PID.TID 0000.0001)         System time:  0.150000006
(PID.TID 0000.0001)     Wall clock time:  34.352174
(PID.TID 0000.0001)          No. starts: 20
(PID.TID 0000.0001)           No. stops: 20
(PID.TID 0000.0001)   Seconds in section "EXTERNAL_FIELDS_LOAD[THE_MAIN_LOOP]":
(PID.TID 0000.0001)           User time:  0.0899997354
(PID.TID 0000.0001)         System time:  0.0200000107
(PID.TID 0000.0001)     Wall clock time:  0.314430237
(PID.TID 0000.0001)          No. starts: 20
(PID.TID 0000.0001)           No. stops: 20
(PID.TID 0000.0001)   Seconds in section "THERMODYNAMICS      [THE_MAIN_LOOP]":
(PID.TID 0000.0001)           User time:  13.3900033
(PID.TID 0000.0001)         System time:  0.0900000334
(PID.TID 0000.0001)     Wall clock time:  13.5792191
(PID.TID 0000.0001)          No. starts: 20
(PID.TID 0000.0001)           No. stops: 20
(PID.TID 0000.0001)   Seconds in section "DYNAMICS            [THE_MAIN_LOOP]":
(PID.TID 0000.0001)           User time:  13.5899988
(PID.TID 0000.0001)         System time:  0.0299999714
(PID.TID 0000.0001)     Wall clock time:  13.6570449
(PID.TID 0000.0001)          No. starts: 20
(PID.TID 0000.0001)           No. stops: 20
(PID.TID 0000.0001)   Seconds in section "SOLVE_FOR_PRESSURE  [THE_MAIN_LOOP]":
(PID.TID 0000.0001)           User time:  1.53999591
(PID.TID 0000.0001)         System time:  0.
(PID.TID 0000.0001)     Wall clock time:  1.56774592
(PID.TID 0000.0001)          No. starts: 20
(PID.TID 0000.0001)           No. stops: 20
(PID.TID 0000.0001)   Seconds in section "THE_CORRECTION_STEP [THE_MAIN_LOOP]":
(PID.TID 0000.0001)           User time:  1.68000054
(PID.TID 0000.0001)         System time:  0.
(PID.TID 0000.0001)     Wall clock time:  1.68778503
(PID.TID 0000.0001)          No. starts: 20
(PID.TID 0000.0001)           No. stops: 20
(PID.TID 0000.0001)   Seconds in section "BLOCKING_EXCHANGES  [THE_MAIN_LOOP]":
(PID.TID 0000.0001)           User time:  0.21000576
(PID.TID 0000.0001)         System time:  0.
(PID.TID 0000.0001)     Wall clock time:  0.228996873
(PID.TID 0000.0001)          No. starts: 20
(PID.TID 0000.0001)           No. stops: 20
(PID.TID 0000.0001)   Seconds in section "DO_THE_MODEL_IO     [THE_MAIN_LOOP]":
(PID.TID 0000.0001)           User time:  0.0900001526
(PID.TID 0000.0001)         System time:  0.00999999046
(PID.TID 0000.0001)     Wall clock time:  0.110493064
(PID.TID 0000.0001)          No. starts: 20
(PID.TID 0000.0001)           No. stops: 20
(PID.TID 0000.0001)   Seconds in section "WRITE_CHECKPOINT    [THE_MAIN_LOOP]":
(PID.TID 0000.0001)           User time:  0.
(PID.TID 0000.0001)         System time:  0.
(PID.TID 0000.0001)     Wall clock time:  0.00147175789
(PID.TID 0000.0001)          No. starts: 20
(PID.TID 0000.0001)           No. stops: 20
(PID.TID 0000.0001)   Seconds in section "WRITE_CHECKPOINT   [THE_MODEL_MAIN]":
(PID.TID 0000.0001)           User time:  0.5
(PID.TID 0000.0001)         System time:  0.109999985
(PID.TID 0000.0001)     Wall clock time:  0.634060025
(PID.TID 0000.0001)          No. starts: 1
(PID.TID 0000.0001)           No. stops: 1
(PID.TID 0000.0001) // ======================================================
(PID.TID 0000.0001) // Tile <-> Tile communication statistics
(PID.TID 0000.0001) // ======================================================
(PID.TID 0000.0001) // o Tile number: 000001
(PID.TID 0000.0001) //         No. X exchanges =              0
(PID.TID 0000.0001) //            Max. X spins =              0
(PID.TID 0000.0001) //            Min. X spins =     1000000000
(PID.TID 0000.0001) //          Total. X spins =              0
(PID.TID 0000.0001) //            Avg. X spins =       0.00E+00
(PID.TID 0000.0001) //         No. Y exchanges =              0
(PID.TID 0000.0001) //            Max. Y spins =              0
(PID.TID 0000.0001) //            Min. Y spins =     1000000000
(PID.TID 0000.0001) //          Total. Y spins =              0
(PID.TID 0000.0001) //            Avg. Y spins =       0.00E+00
(PID.TID 0000.0001) // o Thread number: 000001
(PID.TID 0000.0001) //            No. barriers =          12524
(PID.TID 0000.0001) //      Max. barrier spins =              1
(PID.TID 0000.0001) //      Min. barrier spins =              1
(PID.TID 0000.0001) //     Total barrier spins =          12524
(PID.TID 0000.0001) //      Avg. barrier spins =       1.00E+00
