(PID.TID 0000.0001) 
(PID.TID 0000.0001) // ======================================================
(PID.TID 0000.0001) //                      MITgcm UV
(PID.TID 0000.0001) //                      =========
(PID.TID 0000.0001) // ======================================================
(PID.TID 0000.0001) // execution environment starting up...
(PID.TID 0000.0001) // Run starting Wed Apr  1 14:19:48 1998
(PID.TID 0000.0001) // on melville.lcs.mit.edu
(PID.TID 0000.0001) // account cnh
(PID.TID 0000.0001) // MITgcm UV Release: $Name:  $
(PID.TID 0000.0001) 
(PID.TID 0000.0001) // =======================================================
(PID.TID 0000.0001) // Execution Environment parameter file "eedata"
(PID.TID 0000.0001) // =======================================================
(PID.TID 0000.0001) ># Example "eedata" file
(PID.TID 0000.0001) ># Lines beginning "#" are comments
(PID.TID 0000.0001) ># nTx - No. threads per process in X
(PID.TID 0000.0001) ># nTy - No. threads per process in Y
(PID.TID 0000.0001) > &EEPARMS
(PID.TID 0000.0001) > nTx=1,nTy=1
(PID.TID 0000.0001) > /
(PID.TID 0000.0001) ># Note: Some systems use & as the
(PID.TID 0000.0001) ># namelist terminator. Other systems
(PID.TID 0000.0001) ># use a / character (as shown here).
(PID.TID 0000.0001) 
(PID.TID 0000.0001) // =======================================================
(PID.TID 0000.0001) // Computational Grid Specification ( see files "SIZE.h" )
(PID.TID 0000.0001) //                                  ( and "eedata"       )
(PID.TID 0000.0001) // =======================================================
(PID.TID 0000.0001)      nPx =    1 ; /* No. processes in X */
(PID.TID 0000.0001)      nPy =    1 ; /* No. processes in Y */
(PID.TID 0000.0001)      nSx =    1 ; /* No. tiles in X per process */
(PID.TID 0000.0001)      nSy =    1 ; /* No. tiles in Y per process */
(PID.TID 0000.0001)      sNx =   90 ; /* Tile size in X */
(PID.TID 0000.0001)      sNy =   40 ; /* Tile size in Y */
(PID.TID 0000.0001)      OLx =    3 ; /* Tile overlap distance in X */
(PID.TID 0000.0001)      OLy =    3 ; /* Tile overlap distance in Y */
(PID.TID 0000.0001)      nTx =    1 ; /* No. threads in X per process */
(PID.TID 0000.0001)      nTy =    1 ; /* No. threads in Y per process */
(PID.TID 0000.0001)       Nr =   15 ; /* No. levels in the vertical   */
(PID.TID 0000.0001)       nX =   90 ; /* Total domain size in X ( = nPx*nSx*sNx ) */
(PID.TID 0000.0001)       nY =   40 ; /* Total domain size in Y ( = nPy*nSy*sNy ) */
(PID.TID 0000.0001)   nTiles =    1 ; /* Total no. tiles per process ( = nSx*nSy ) */
(PID.TID 0000.0001)   nProcs =    1 ; /* Total no. processes ( = nPx*nPy ) */
(PID.TID 0000.0001) nThreads =    1 ; /* Total no. threads per process ( = nTx*nTy ) */
(PID.TID 0000.0001) usingMPI =    F ; /* Flag used to control whether MPI is in use */
(PID.TID 0000.0001)                   /*  note: To execute a program with MPI calls */
(PID.TID 0000.0001)                   /*  it must be launched appropriately e.g     */
(PID.TID 0000.0001)                   /*  "mpirun -np 64 ......"                    */
(PID.TID 0000.0001) 
(PID.TID 0000.0001) // ======================================================
(PID.TID 0000.0001) // Mapping of tiles to threads
(PID.TID 0000.0001) // ======================================================
(PID.TID 0000.0001) // -o- Thread   1, tiles (   1:   1,   1:   1)
(PID.TID 0000.0001) 
(PID.TID 0000.0001) // ======================================================
(PID.TID 0000.0001) // Tile <-> Tile connectvity table
(PID.TID 0000.0001) // ======================================================
(PID.TID 0000.0001) // Tile number: 000001 (process no. = 000001)
(PID.TID 0000.0001) //        WEST: Tile = 000001, Process = 000001, Comm = put
(PID.TID 0000.0001) //                bi = 000001, bj = 000001
(PID.TID 0000.0001) //        EAST: Tile = 000001, Process = 000001, Comm = put
(PID.TID 0000.0001) //                bi = 000001, bj = 000001
(PID.TID 0000.0001) //       SOUTH: Tile = 000001, Process = 000001, Comm = put
(PID.TID 0000.0001) //                bi = 000001, bj = 000001
(PID.TID 0000.0001) //       NORTH: Tile = 000001, Process = 000001, Comm = put
(PID.TID 0000.0001) //                bi = 000001, bj = 000001
(PID.TID 0000.0001) 
(PID.TID 0000.0001) // =======================================================
(PID.TID 0000.0001) // Model parameter file "data"
(PID.TID 0000.0001) // =======================================================
(PID.TID 0000.0001) ># ====================
(PID.TID 0000.0001) ># | Model parameters |
(PID.TID 0000.0001) ># ====================
(PID.TID 0000.0001) >#
(PID.TID 0000.0001) ># Continuous equation parameters
(PID.TID 0000.0001) > &PARM01
(PID.TID 0000.0001) > tRef = 15*20.,
(PID.TID 0000.0001) > sRef = 15*35.,
(PID.TID 0000.0001) > viscAz=1.E-3,
(PID.TID 0000.0001) > viscAh=5.E5,
(PID.TID 0000.0001) > diffKhT=0.0,
(PID.TID 0000.0001) > diffKzT=3.E-5,
(PID.TID 0000.0001) > diffKhS=0.0,
(PID.TID 0000.0001) > diffKzS=3.E-5,
(PID.TID 0000.0001) > beta=1.E-11,
(PID.TID 0000.0001) > f0=1.e-4,
(PID.TID 0000.0001) > tAlpha=2.E-4,
(PID.TID 0000.0001) > sBeta =7.4E-4,
(PID.TID 0000.0001) > gravity=9.81,
(PID.TID 0000.0001) > gBaro=9.81,
(PID.TID 0000.0001) > rhonil=1035.,
(PID.TID 0000.0001) > rigidLid=.FALSE.,
(PID.TID 0000.0001) > implicitFreeSurface=.TRUE.,
(PID.TID 0000.0001) > eosType = 'POLY3',
(PID.TID 0000.0001) > ivdc_kappa=100.,
(PID.TID 0000.0001) > implicitDiffusion=.TRUE.,
(PID.TID 0000.0001) > allowFreezing=.TRUE.,
(PID.TID 0000.0001) > tempAdvScheme       = 2
(PID.TID 0000.0001) > saltAdvScheme       = 2
(PID.TID 0000.0001) > tracerAdvScheme     = 2
(PID.TID 0000.0001) > tempStepping        = .TRUE.
(PID.TID 0000.0001) > saltStepping        = .TRUE.
(PID.TID 0000.0001) > tr1Stepping         = .TRUE.
(PID.TID 0000.0001) > multiDimAdvection   = .FALSE.
(PID.TID 0000.0001) > &
(PID.TID 0000.0001) >
(PID.TID 0000.0001) ># Elliptic solver parameters
(PID.TID 0000.0001) > &PARM02
(PID.TID 0000.0001) > cg2dMaxIters=1000,
(PID.TID 0000.0001) > cg2dTargetResidual=1.E-17,
(PID.TID 0000.0001) > &
(PID.TID 0000.0001) >
(PID.TID 0000.0001) ># Time stepping parameters
(PID.TID 0000.0001) > &PARM03
(PID.TID 0000.0001) > startTime =      0.,
(PID.TID 0000.0001) > endtime   = 864000.,
(PID.TID 0000.0001) >#nIter0  =  14400.,
(PID.TID 0000.0001) >#endTime = 311044000.,
(PID.TID 0000.0001) > deltaTmom = 1200.0,
(PID.TID 0000.0001) > tauCD =     321428.,
(PID.TID 0000.0001) > deltaTtracer= 43200.0,
(PID.TID 0000.0001) > deltaTClock = 43200.0,
(PID.TID 0000.0001) > abEps = 0.1,
(PID.TID 0000.0001) >#cAdjFreq = -1,
(PID.TID 0000.0001) > pChkptFreq= 31104000.,
(PID.TID 0000.0001) > chkptFreq=  31104000.,
(PID.TID 0000.0001) > dumpFreq=   31104000.,
(PID.TID 0000.0001) > taveFreq=   31104000.,
(PID.TID 0000.0001) > tauThetaClimRelax =  5184000.0,
(PID.TID 0000.0001) > tauSaltClimRelax = 311040000.0,
(PID.TID 0000.0001) > monitorFreq=1.,
(PID.TID 0000.0001) > periodicExternalForcing=.TRUE.,
(PID.TID 0000.0001) > externForcingPeriod=2592000.,
(PID.TID 0000.0001) > externForcingCycle=31104000.,
(PID.TID 0000.0001) > &
(PID.TID 0000.0001) >
(PID.TID 0000.0001) ># Gridding parameters
(PID.TID 0000.0001) > &PARM04
(PID.TID 0000.0001) > usingCartesianGrid=.FALSE.,
(PID.TID 0000.0001) > usingSphericalPolarGrid=.TRUE.,
(PID.TID 0000.0001) > delZ= 50., 70., 100., 140., 190.,
(PID.TID 0000.0001) >       240., 290., 340., 390., 440.,
(PID.TID 0000.0001) >       490., 540., 590., 640., 690.,
(PID.TID 0000.0001) > phiMin=-78.,
(PID.TID 0000.0001) > delY=40*4.,
(PID.TID 0000.0001) > delX=90*4.,
(PID.TID 0000.0001) > &
(PID.TID 0000.0001) >
(PID.TID 0000.0001) ># Input datasets
(PID.TID 0000.0001) > &PARM05
(PID.TID 0000.0001) > bathyFile=      'bathy.bin',
(PID.TID 0000.0001) > hydrogThetaFile='theta.bin',
(PID.TID 0000.0001) > hydrogSaltFile= 'sal.bin',
(PID.TID 0000.0001) > zonalWindFile=  'tren_taux.bin',
(PID.TID 0000.0001) > meridWindFile=  'tren_tauy.bin',
(PID.TID 0000.0001) > thetaClimFile=  'theta_surf.bin',
(PID.TID 0000.0001) > saltClimFile=   'sal_surf.bin',
(PID.TID 0000.0001) > surfQFile=      'shi_qnet.bin',
(PID.TID 0000.0001) > EmPmRFile=      'shi_empr.bin',
(PID.TID 0000.0001) > &
(PID.TID 0000.0001) 
(PID.TID 0000.0001) %MON XC_max                       =   3.5800000000000E+02
(PID.TID 0000.0001) %MON XC_min                       =   2.0000000000000E+00
(PID.TID 0000.0001) %MON XC_mean                      =   1.8000000000000E+02
(PID.TID 0000.0001) %MON XC_sd                        =   1.0391663325314E+02
(PID.TID 0000.0001) %MON XG_max                       =   3.5600000000000E+02
(PID.TID 0000.0001) %MON XG_min                       =   4.0000000000000E+00
(PID.TID 0000.0001) %MON XG_mean                      =   1.8000000000000E+02
(PID.TID 0000.0001) %MON XG_sd                        =   1.0276186062932E+02
(PID.TID 0000.0001) %MON DXC_max                      =   4.4470989340816E+05
(PID.TID 0000.0001) %MON DXC_min                      =   7.7223062580781E+04
(PID.TID 0000.0001) %MON DXC_mean                     =   3.1353386340260E+05
(PID.TID 0000.0001) %MON DXC_sd                       =   1.1256651772502E+05
(PID.TID 0000.0001) %MON DXF_max                      =   4.4470989340816E+05
(PID.TID 0000.0001) %MON DXF_min                      =   7.7223062580781E+04
(PID.TID 0000.0001) %MON DXF_mean                     =   3.1353386340260E+05
(PID.TID 0000.0001) %MON DXF_sd                       =   1.1256651772502E+05
(PID.TID 0000.0001) %MON DXG_max                      =   4.4443898815675E+05
(PID.TID 0000.0001) %MON DXG_min                      =   9.2460385861875E+04
(PID.TID 0000.0001) %MON DXG_mean                     =   3.1372497618153E+05
(PID.TID 0000.0001) %MON DXG_sd                       =   1.1216447457560E+05
(PID.TID 0000.0001) %MON DXV_max                      =   4.4443898815675E+05
(PID.TID 0000.0001) %MON DXV_min                      =   9.2460385861875E+04
(PID.TID 0000.0001) %MON DXV_mean                     =   3.1372497618153E+05
(PID.TID 0000.0001) %MON DXV_sd                       =   1.1216447457560E+05
(PID.TID 0000.0001) %MON YC_max                       =   8.0000000000000E+01
(PID.TID 0000.0001) %MON YC_min                       =  -7.6000000000000E+01
(PID.TID 0000.0001) %MON YC_mean                      =   2.0512820512821E+00
(PID.TID 0000.0001) %MON YC_sd                        =   4.6760682979564E+01
(PID.TID 0000.0001) %MON YG_max                       =   7.8000000000000E+01
(PID.TID 0000.0001) %MON YG_min                       =  -7.8000000000000E+01
(PID.TID 0000.0001) %MON YG_mean                      =   0.0000000000000E+00
(PID.TID 0000.0001) %MON YG_sd                        =   4.6173585522461E+01
(PID.TID 0000.0001) %MON DYC_max                      =   4.4470989340816E+05
(PID.TID 0000.0001) %MON DYC_min                      =   4.4470989340816E+05
(PID.TID 0000.0001) %MON DYC_mean                     =   4.4470989340814E+05
(PID.TID 0000.0001) %MON DYC_sd                       =   1.9848812371492E-08
(PID.TID 0000.0001) %MON DYF_max                      =   4.4470989340816E+05
(PID.TID 0000.0001) %MON DYF_min                      =   4.4470989340816E+05
(PID.TID 0000.0001) %MON DYF_mean                     =   4.4470989340814E+05
(PID.TID 0000.0001) %MON DYF_sd                       =   1.9848812371492E-08
(PID.TID 0000.0001) %MON DYG_max                      =   4.4470989340816E+05
(PID.TID 0000.0001) %MON DYG_min                      =   4.4470989340816E+05
(PID.TID 0000.0001) %MON DYG_mean                     =   4.4470989340814E+05
(PID.TID 0000.0001) %MON DYG_sd                       =   1.9848812371492E-08
(PID.TID 0000.0001) %MON DYU_max                      =   4.4470989340816E+05
(PID.TID 0000.0001) %MON DYU_min                      =   4.4470989340816E+05
(PID.TID 0000.0001) %MON DYU_mean                     =   4.4470989340814E+05
(PID.TID 0000.0001) %MON DYU_sd                       =   1.9848812371492E-08
(PID.TID 0000.0001) %MON RA_max                       =   1.9772672958215E+11
(PID.TID 0000.0001) %MON RA_min                       =   3.4334886267982E+10
(PID.TID 0000.0001) %MON RA_mean                      =   1.3940329716694E+11
(PID.TID 0000.0001) %MON RA_sd                        =   5.0049278732354E+10
(PID.TID 0000.0001) %MON RAW_max                      =   1.9772672958215E+11
(PID.TID 0000.0001) %MON RAW_min                      =   3.4334886267982E+10
(PID.TID 0000.0001) %MON RAW_mean                     =   1.3940329716694E+11
(PID.TID 0000.0001) %MON RAW_sd                       =   5.0049278732354E+10
(PID.TID 0000.0001) %MON RAS_max                      =   1.9760627980089E+11
(PID.TID 0000.0001) %MON RAS_min                      =   4.1109698667291E+10
(PID.TID 0000.0001) %MON RAS_mean                     =   1.3948826965197E+11
(PID.TID 0000.0001) %MON RAS_sd                       =   4.9870522472902E+10
(PID.TID 0000.0001) %MON RAZ_max                      =   1.9760627980089E+11
(PID.TID 0000.0001) %MON RAZ_min                      =   4.1109698667291E+10
(PID.TID 0000.0001) %MON RAZ_mean                     =   1.3948826965197E+11
(PID.TID 0000.0001) %MON RAZ_sd                       =   4.9870522472902E+10
(PID.TID 0000.0001)  MDSREADFIELD: opening global file: bathy.bin
(PID.TID 0000.0001) // =======================================================
(PID.TID 0000.0001) // Field Model R_low (ini_masks_etc) at iteration          1
(PID.TID 0000.0001) // CMIN =         -5.200000000000000E+03
(PID.TID 0000.0001) // CMAX =         -5.000000000000000E+01
(PID.TID 0000.0001) // CINT =          1.907407407407407E+02
(PID.TID 0000.0001) // SYMBOLS (CMIN->CMAX): -abcdefghijklmnopqrstuvwxyz+
(PID.TID 0000.0001) //                  0.0: .
(PID.TID 0000.0001) // RANGE I (Lo:Hi:Step):(  -2:  93:   1)
(PID.TID 0000.0001) // RANGE J (Lo:Hi:Step):(  43:  -2:  -1)
(PID.TID 0000.0001) // RANGE K (Lo:Hi:Step):(   1:   1:   1)
(PID.TID 0000.0001) // =======================================================
(PID.TID 0000.0001) K =   1
(PID.TID 0000.0001) //                I=7       I=17      I=27      I=37      I=47      I=57      I=67      I=77      I=87
(PID.TID 0000.0001) // |--J--|**0123456|890123456|890123456|890123456|890123456|890123456|890123456|890123456|890123456|890123
(PID.TID 0000.0001) //     43 ................................................................................................
(PID.TID 0000.0001) //     42 ..............................................xxwvrojj...........................wvtt...........
(PID.TID 0000.0001) //     41 ................................................................................................
(PID.TID 0000.0001) //     40 ................................................................................................
(PID.TID 0000.0001) //     39 jjjjjorz................................................................................zojjjjjo
(PID.TID 0000.0001) //     38 rmmjjmm+...............................................................................zttrmmjjm
(PID.TID 0000.0001) //     37 vjjoxz........................................................................x+....zyzx.+vjjoxz
(PID.TID 0000.0001) //     36 twwz..........................................jjorz..........................tojj.jjorroortwwz..
(PID.TID 0000.0001) //     35 r..++.................................yvwz.gdjjjjjjtr.ddggjr..................oggggjojjoror..++.
(PID.TID 0000.0001) //     34 v......................................vvv--d---------ddgggjo..................wjgggggggdjv.....
(PID.TID 0000.0001) //     33 dd.....................................jj---------------ddggor...............zz.tjgdgggddddd....
(PID.TID 0000.0001) //     32 d......................................g-----------------dgggo...............ogdgd-dgjjgd-d.....
(PID.TID 0000.0001) //     31 .......................................--------------------ddd.............gd------dgogd--......
(PID.TID 0000.0001) //     30 -.....................................---------d-------------d............d--------gjg-----.....
(PID.TID 0000.0001) //     29 g.................................ztdg----------------------dggj.........o-------dggdg--dgg.....
(PID.TID 0000.0001) //     28 .................................yrdd---------------------dddggg......oj.d-------dd-----gj......
(PID.TID 0000.0001) //     27 ..................................-----------------ddd-----ddggggj...ggjrr-------gd----dg.......
(PID.TID 0000.0001) //     26 ..................gjj....t.....jgd----d--------d-----d-------dgggjg..j.gddg-----dgd----dj.......
(PID.TID 0000.0001) //     25 ................ggggg..jjoo...rgg.----d----------------------ddggggg....gggd----dg-----gg.......
(PID.TID 0000.0001) //     24 ...............ogggggt.ggjo...ggg.----------dd--------------dddggggjgdg.jgg.-od--dd----dg.......
(PID.TID 0000.0001) //     23 ................-dgddjogggg.++oogg----gdd----g------d-----dddddggggjgggj......jgddgg---ddd......
(PID.TID 0000.0001) //     22 ddddg..........--dgggjggggg..++..----dd-dggddgd------gd--ddggggggggjjggjj.......jggdgggd--ddddg.
(PID.TID 0000.0001) //     21 ---dg.........d--ddggddddddd.....ooggdgd-gogggd-------dddggggddgggggjjjjj........ggggdgd-----dg.
(PID.TID 0000.0001) //     20 d-dddg.......g--dgdgdd--dd--.......-...rrjrggg---------ddddddddggggggggg............g----dd-dddg
(PID.TID 0000.0001) //     19 gd---d.......gddggggj---------.gggd-t...--ggg--d---dd----ggdddgggggggggg-...........d---dggd---d
(PID.TID 0000.0001) //     18 g----d.......jggggggg---d--------jt....jggj--ggggd--g--dddgggggggggggggddd..........d---dgg----d
(PID.TID 0000.0001) //     17 gd---d.......j..dgggdd--d--------t......ddgddgjjo----dddggggggggjgggggdddg..........d---dggd---d
(PID.TID 0000.0001) //     16 gd---d......jo.--ggjgdd-d------g........vjjjd-ggo---ddddddggggggjgggggdggd-........gd---dggd---d
(PID.TID 0000.0001) //     15 d---gd......gg.---dgggdddd----d..........ddojddgr----dddddgggggjjggggggggdg.......ogd---dgd---gd
(PID.TID 0000.0001) //     14 gd---dg....rddg---ddggggddd----...........doggdg------dddggggggjjjgggggggg-......jggd--dgggd---d
(PID.TID 0000.0001) //     13 gdg---g...gj-dgddgddddgggggd---..........-dtgggg------d--ddgggggjjggggggggd.....jgggddddgjgdg---
(PID.TID 0000.0001) //     12 ggd---dgdgg---jgdd-ddgjggggg----.----....---ortj----------ddddgggjggggggggd....o----dgggjgggd---
(PID.TID 0000.0001) //     11 ggd--dd--gd--djgd--dggjgggggdddd-------xgd--gv.jd-d--d------ddggggggdggggg....o-------ggjjggd--d
(PID.TID 0000.0001) //     10 gggddd------gjjjd--gggjjjjgggggddddddddgg---g.toj----d------ddggggggdddggg...+d------ddggjgggddd
(PID.TID 0000.0001) //      9 jggggd-----ddggggdgjojjggggjgjgggggggdggd--dgvto--------ddddddggjggggdddgg...xd--------dggjggggd
(PID.TID 0000.0001) //      8 gojgggggg---dggdddddgrogdggggggggggggggggdddgvd--------ddggggggjggdd--dddg..zxrojjgddddggggojggg
(PID.TID 0000.0001) //      7 gggd----d---------dddgjd--ggggggddddgggggggd--------dddggggggjjgg-------ddgggggdggggd---dggggd--
(PID.TID 0000.0001) //      6 -------------------dddgogddgggggdddddgggggj-----dddddgjjggdd--------------ddgggggggggg--d-------
(PID.TID 0000.0001) //      5 --------------d--dgdggjjjjgg.ggggggggggggjjoggggggjjjgggggdd------d---ddddggg.xoggddddd---------
(PID.TID 0000.0001) //      4 ddgggggdddg.g..............................rojjjggggggggggggdddddddddgdgggj...wjggggddddddddgggg
(PID.TID 0000.0001) //      3 ..............................................oojggggggggggggjjojjjj..........vojgggggggg.......
(PID.TID 0000.0001) //      2 ..............................................xxwvrojj...........................wvtt...........
(PID.TID 0000.0001) //      1 ................................................................................................
(PID.TID 0000.0001) //      0 ................................................................................................
(PID.TID 0000.0001) //     -1 jjjjjorz................................................................................zojjjjjo
(PID.TID 0000.0001) //     -2 rmmjjmm+...............................................................................zttrmmjjm
(PID.TID 0000.0001) // =======================================================
(PID.TID 0000.0001) // END OF FIELD                                          =
(PID.TID 0000.0001) // =======================================================
(PID.TID 0000.0001) 
(PID.TID 0000.0001) // =======================================================
(PID.TID 0000.0001) // Field Model Ro_surf (ini_masks_etc) at iteration          1
(PID.TID 0000.0001) // CMIN =          1.000000000000000E+32
(PID.TID 0000.0001) // CMAX =         -1.000000000000000E+32
(PID.TID 0000.0001) // CINT =          0.000000000000000E+00
(PID.TID 0000.0001) // SYMBOLS (CMIN->CMAX): -abcdefghijklmnopqrstuvwxyz+
(PID.TID 0000.0001) //                  0.0: .
(PID.TID 0000.0001) // RANGE I (Lo:Hi:Step):(  -2:  93:   1)
(PID.TID 0000.0001) // RANGE J (Lo:Hi:Step):(  43:  -2:  -1)
(PID.TID 0000.0001) // RANGE K (Lo:Hi:Step):(   1:   1:   1)
(PID.TID 0000.0001) // =======================================================
(PID.TID 0000.0001) K =   1
(PID.TID 0000.0001) //                I=7       I=17      I=27      I=37      I=47      I=57      I=67      I=77      I=87
(PID.TID 0000.0001) // |--J--|**0123456|890123456|890123456|890123456|890123456|890123456|890123456|890123456|890123456|890123
(PID.TID 0000.0001) //     43 ................................................................................................
(PID.TID 0000.0001) //     42 ................................................................................................
(PID.TID 0000.0001) //     41 ................................................................................................
(PID.TID 0000.0001) //     40 ................................................................................................
(PID.TID 0000.0001) //     39 ................................................................................................
(PID.TID 0000.0001) //     38 ................................................................................................
(PID.TID 0000.0001) //     37 ................................................................................................
(PID.TID 0000.0001) //     36 ................................................................................................
(PID.TID 0000.0001) //     35 ................................................................................................
(PID.TID 0000.0001) //     34 ................................................................................................
(PID.TID 0000.0001) //     33 ................................................................................................
(PID.TID 0000.0001) //     32 ................................................................................................
(PID.TID 0000.0001) //     31 ................................................................................................
(PID.TID 0000.0001) //     30 ................................................................................................
(PID.TID 0000.0001) //     29 ................................................................................................
(PID.TID 0000.0001) //     28 ................................................................................................
(PID.TID 0000.0001) //     27 ................................................................................................
(PID.TID 0000.0001) //     26 ................................................................................................
(PID.TID 0000.0001) //     25 ................................................................................................
(PID.TID 0000.0001) //     24 ................................................................................................
(PID.TID 0000.0001) //     23 ................................................................................................
(PID.TID 0000.0001) //     22 ................................................................................................
(PID.TID 0000.0001) //     21 ................................................................................................
(PID.TID 0000.0001) //     20 ................................................................................................
(PID.TID 0000.0001) //     19 ................................................................................................
(PID.TID 0000.0001) //     18 ................................................................................................
(PID.TID 0000.0001) //     17 ................................................................................................
(PID.TID 0000.0001) //     16 ................................................................................................
(PID.TID 0000.0001) //     15 ................................................................................................
(PID.TID 0000.0001) //     14 ................................................................................................
(PID.TID 0000.0001) //     13 ................................................................................................
(PID.TID 0000.0001) //     12 ................................................................................................
(PID.TID 0000.0001) //     11 ................................................................................................
(PID.TID 0000.0001) //     10 ................................................................................................
(PID.TID 0000.0001) //      9 ................................................................................................
(PID.TID 0000.0001) //      8 ................................................................................................
(PID.TID 0000.0001) //      7 ................................................................................................
(PID.TID 0000.0001) //      6 ................................................................................................
(PID.TID 0000.0001) //      5 ................................................................................................
(PID.TID 0000.0001) //      4 ................................................................................................
(PID.TID 0000.0001) //      3 ................................................................................................
(PID.TID 0000.0001) //      2 ................................................................................................
(PID.TID 0000.0001) //      1 ................................................................................................
(PID.TID 0000.0001) //      0 ................................................................................................
(PID.TID 0000.0001) //     -1 ................................................................................................
(PID.TID 0000.0001) //     -2 ................................................................................................
(PID.TID 0000.0001) // =======================================================
(PID.TID 0000.0001) // END OF FIELD                                          =
(PID.TID 0000.0001) // =======================================================
(PID.TID 0000.0001) 
(PID.TID 0000.0001) // =======================================================
(PID.TID 0000.0001) // Field hFacC at iteration          1
(PID.TID 0000.0001) // CMIN =          1.000000000000000E+00
(PID.TID 0000.0001) // CMAX =          1.000000000000000E+00
(PID.TID 0000.0001) // CINT =          0.000000000000000E+00
(PID.TID 0000.0001) // SYMBOLS (CMIN->CMAX): -abcdefghijklmnopqrstuvwxyz+
(PID.TID 0000.0001) //                  0.0: .
(PID.TID 0000.0001) // RANGE I (Lo:Hi:Step):(  -2:  93:   1)
(PID.TID 0000.0001) // RANGE J (Lo:Hi:Step):(  43:  -2:  -1)
(PID.TID 0000.0001) // RANGE K (Lo:Hi:Step):(   1:   1:   1)
(PID.TID 0000.0001) // =======================================================
(PID.TID 0000.0001) K =   1
(PID.TID 0000.0001) //                I=7       I=17      I=27      I=37      I=47      I=57      I=67      I=77      I=87
(PID.TID 0000.0001) // |--J--|**0123456|890123456|890123456|890123456|890123456|890123456|890123456|890123456|890123456|890123
(PID.TID 0000.0001) //     43 ................................................................................................
(PID.TID 0000.0001) //     42 ..............................................--------...........................----...........
(PID.TID 0000.0001) //     41 ................................................................................................
(PID.TID 0000.0001) //     40 ................................................................................................
(PID.TID 0000.0001) //     39 --------................................................................................--------
(PID.TID 0000.0001) //     38 --------...............................................................................---------
(PID.TID 0000.0001) //     37 ------........................................................................--....----.-------
(PID.TID 0000.0001) //     36 ----..........................................-----..........................----.------------..
(PID.TID 0000.0001) //     35 -..--.................................----.----------.------..................-------------..--.
(PID.TID 0000.0001) //     34 -......................................----------------------..................------------.....
(PID.TID 0000.0001) //     33 --.....................................-----------------------...............--.------------....
(PID.TID 0000.0001) //     32 -......................................-----------------------...............--------------.....
(PID.TID 0000.0001) //     31 .......................................-----------------------.............---------------......
(PID.TID 0000.0001) //     30 -.....................................------------------------............-----------------.....
(PID.TID 0000.0001) //     29 -.................................------------------------------.........------------------.....
(PID.TID 0000.0001) //     28 .................................-------------------------------......--.-----------------......
(PID.TID 0000.0001) //     27 ..................................--------------------------------...--------------------.......
(PID.TID 0000.0001) //     26 ..................---....-.....------------------------------------..-.------------------.......
(PID.TID 0000.0001) //     25 ................-----..----...---.----------------------------------....-----------------.......
(PID.TID 0000.0001) //     24 ...............-------.----...---.-------------------------------------.---.-------------.......
(PID.TID 0000.0001) //     23 ................-----------.--------------------------------------------......------------......
(PID.TID 0000.0001) //     22 -----..........------------..--..----------------------------------------.......---------------.
(PID.TID 0000.0001) //     21 -----.........--------------.....----------------------------------------........--------------.
(PID.TID 0000.0001) //     20 ------.......---------------.......-...---------------------------------............------------
(PID.TID 0000.0001) //     19 ------.......-----------------.------...---------------------------------...........------------
(PID.TID 0000.0001) //     18 ------.......----------------------....-----------------------------------..........------------
(PID.TID 0000.0001) //     17 ------.......-..------------------......----------------------------------..........------------
(PID.TID 0000.0001) //     16 ------......--.-----------------........-----------------------------------........-------------
(PID.TID 0000.0001) //     15 ------......--.----------------..........----------------------------------.......--------------
(PID.TID 0000.0001) //     14 -------....--------------------...........---------------------------------......---------------
(PID.TID 0000.0001) //     13 -------...---------------------..........----------------------------------.....----------------
(PID.TID 0000.0001) //     12 --------------------------------.----....----------------------------------....-----------------
(PID.TID 0000.0001) //     11 ----------------------------------------------.---------------------------....------------------
(PID.TID 0000.0001) //     10 ---------------------------------------------.----------------------------...-------------------
(PID.TID 0000.0001) //      9 --------------------------------------------------------------------------...-------------------
(PID.TID 0000.0001) //      8 --------------------------------------------------------------------------..--------------------
(PID.TID 0000.0001) //      7 ------------------------------------------------------------------------------------------------
(PID.TID 0000.0001) //      6 ------------------------------------------------------------------------------------------------
(PID.TID 0000.0001) //      5 ----------------------------.------------------------------------------------.------------------
(PID.TID 0000.0001) //      4 -----------.-..............................--------------------------------...------------------
(PID.TID 0000.0001) //      3 ..............................................----------------------..........-----------.......
(PID.TID 0000.0001) //      2 ..............................................--------...........................----...........
(PID.TID 0000.0001) //      1 ................................................................................................
(PID.TID 0000.0001) //      0 ................................................................................................
(PID.TID 0000.0001) //     -1 --------................................................................................--------
(PID.TID 0000.0001) //     -2 --------...............................................................................---------
(PID.TID 0000.0001) // =======================================================
(PID.TID 0000.0001) // END OF FIELD                                          =
(PID.TID 0000.0001) // =======================================================
(PID.TID 0000.0001) 
(PID.TID 0000.0001) // =======================================================
(PID.TID 0000.0001) // Field hFacW at iteration          1
(PID.TID 0000.0001) // CMIN =          1.000000000000000E+00
(PID.TID 0000.0001) // CMAX =          1.000000000000000E+00
(PID.TID 0000.0001) // CINT =          0.000000000000000E+00
(PID.TID 0000.0001) // SYMBOLS (CMIN->CMAX): -abcdefghijklmnopqrstuvwxyz+
(PID.TID 0000.0001) //                  0.0: .
(PID.TID 0000.0001) // RANGE I (Lo:Hi:Step):(  -2:  93:   1)
(PID.TID 0000.0001) // RANGE J (Lo:Hi:Step):(  43:  -2:  -1)
(PID.TID 0000.0001) // RANGE K (Lo:Hi:Step):(   1:   1:   1)
(PID.TID 0000.0001) // =======================================================
(PID.TID 0000.0001) K =   1
(PID.TID 0000.0001) //                I=7       I=17      I=27      I=37      I=47      I=57      I=67      I=77      I=87
(PID.TID 0000.0001) // |--J--|**0123456|890123456|890123456|890123456|890123456|890123456|890123456|890123456|890123456|890123
(PID.TID 0000.0001) //     43 ...............................................---------------------...........----------.......
(PID.TID 0000.0001) //     42 ...............................................-------............................---...........
(PID.TID 0000.0001) //     41 ................................................................................................
(PID.TID 0000.0001) //     40 ................................................................................................
(PID.TID 0000.0001) //     39 --------.................................................................................-------
(PID.TID 0000.0001) //     38 --------................................................................................--------
(PID.TID 0000.0001) //     37 ------.........................................................................-.....---..------
(PID.TID 0000.0001) //     36 ----...........................................----...........................---..-----------..
(PID.TID 0000.0001) //     35 -...-..................................---..---------..-----...................------------...-.
(PID.TID 0000.0001) //     34 -.......................................---------------------...................-----------.....
(PID.TID 0000.0001) //     33 --......................................----------------------................-..-----------....
(PID.TID 0000.0001) //     32 -.......................................----------------------................-------------.....
(PID.TID 0000.0001) //     31 ........................................----------------------..............--------------......
(PID.TID 0000.0001) //     30 -......................................-----------------------.............----------------.....
(PID.TID 0000.0001) //     29 -..................................-----------------------------..........-----------------.....
(PID.TID 0000.0001) //     28 ..................................------------------------------.......-..----------------......
(PID.TID 0000.0001) //     27 ...................................-------------------------------....-------------------.......
(PID.TID 0000.0001) //     26 ...................--...........-----------------------------------.....-----------------.......
(PID.TID 0000.0001) //     25 .................----...---....--..---------------------------------.....----------------.......
(PID.TID 0000.0001) //     24 ................------..---....--..------------------------------------..--..------------.......
(PID.TID 0000.0001) //     23 .................----------..-------------------------------------------.......-----------......
(PID.TID 0000.0001) //     22 -----...........-----------...-...---------------------------------------........--------------.
(PID.TID 0000.0001) //     21 -----..........-------------......---------------------------------------.........-------------.
(PID.TID 0000.0001) //     20 ------........--------------............--------------------------------.............-----------
(PID.TID 0000.0001) //     19 ------........----------------..-----....--------------------------------............-----------
(PID.TID 0000.0001) //     18 ------........---------------------.....----------------------------------...........-----------
(PID.TID 0000.0001) //     17 ------...........-----------------.......---------------------------------...........-----------
(PID.TID 0000.0001) //     16 ------.......-..----------------.........----------------------------------.........------------
(PID.TID 0000.0001) //     15 ------.......-..---------------...........---------------------------------........-------------
(PID.TID 0000.0001) //     14 -------.....-------------------............--------------------------------.......--------------
(PID.TID 0000.0001) //     13 -------....--------------------...........---------------------------------......---------------
(PID.TID 0000.0001) //     12 --------------------------------..---.....---------------------------------.....----------------
(PID.TID 0000.0001) //     11 ----------------------------------------------..--------------------------.....-----------------
(PID.TID 0000.0001) //     10 ---------------------------------------------..---------------------------....------------------
(PID.TID 0000.0001) //      9 --------------------------------------------------------------------------....------------------
(PID.TID 0000.0001) //      8 --------------------------------------------------------------------------...-------------------
(PID.TID 0000.0001) //      7 ------------------------------------------------------------------------------------------------
(PID.TID 0000.0001) //      6 ------------------------------------------------------------------------------------------------
(PID.TID 0000.0001) //      5 ----------------------------..-----------------------------------------------..-----------------
(PID.TID 0000.0001) //      4 -----------.................................-------------------------------....-----------------
(PID.TID 0000.0001) //      3 ...............................................---------------------...........----------.......
(PID.TID 0000.0001) //      2 ...............................................-------............................---...........
(PID.TID 0000.0001) //      1 ................................................................................................
(PID.TID 0000.0001) //      0 ................................................................................................
(PID.TID 0000.0001) //     -1 --------.................................................................................-------
(PID.TID 0000.0001) //     -2 --------................................................................................--------
(PID.TID 0000.0001) // =======================================================
(PID.TID 0000.0001) // END OF FIELD                                          =
(PID.TID 0000.0001) // =======================================================
(PID.TID 0000.0001) 
(PID.TID 0000.0001) // =======================================================
(PID.TID 0000.0001) // Field hFacS at iteration          1
(PID.TID 0000.0001) // CMIN =          1.000000000000000E+00
(PID.TID 0000.0001) // CMAX =          1.000000000000000E+00
(PID.TID 0000.0001) // CINT =          0.000000000000000E+00
(PID.TID 0000.0001) // SYMBOLS (CMIN->CMAX): -abcdefghijklmnopqrstuvwxyz+
(PID.TID 0000.0001) //                  0.0: .
(PID.TID 0000.0001) // RANGE I (Lo:Hi:Step):(  -2:  93:   1)
(PID.TID 0000.0001) // RANGE J (Lo:Hi:Step):(  43:  -2:  -1)
(PID.TID 0000.0001) // RANGE K (Lo:Hi:Step):(   1:   1:   1)
(PID.TID 0000.0001) // =======================================================
(PID.TID 0000.0001) K =   1
(PID.TID 0000.0001) //                I=7       I=17      I=27      I=37      I=47      I=57      I=67      I=77      I=87
(PID.TID 0000.0001) // |--J--|**0123456|890123456|890123456|890123456|890123456|890123456|890123456|890123456|890123456|890123
(PID.TID 0000.0001) //     43 ................................................................................................
(PID.TID 0000.0001) //     42 ................................................................................................
(PID.TID 0000.0001) //     41 ................................................................................................
(PID.TID 0000.0001) //     40 ................................................................................................
(PID.TID 0000.0001) //     39 --------................................................................................--------
(PID.TID 0000.0001) //     38 ------.................................................................................-.-------
(PID.TID 0000.0001) //     37 ----..........................................................................--....----.-----..
(PID.TID 0000.0001) //     36 -..-..........................................-----...........................---.---------..-..
(PID.TID 0000.0001) //     35 -......................................---.----------.------...................------------.....
(PID.TID 0000.0001) //     34 -......................................----------------------...................-----------.....
(PID.TID 0000.0001) //     33 -......................................-----------------------...............--.-----------.....
(PID.TID 0000.0001) //     32 .......................................-----------------------...............-------------......
(PID.TID 0000.0001) //     31 .......................................-----------------------.............---------------......
(PID.TID 0000.0001) //     30 -.....................................------------------------............-----------------.....
(PID.TID 0000.0001) //     29 ..................................------------------------------.........-----------------......
(PID.TID 0000.0001) //     28 ..................................------------------------------......--.----------------.......
(PID.TID 0000.0001) //     27 ..................................--------------------------------...-.------------------.......
(PID.TID 0000.0001) //     26 ..................---....-.....--.---------------------------------.....-----------------.......
(PID.TID 0000.0001) //     25 ................-----..----...---.----------------------------------....---.-------------.......
(PID.TID 0000.0001) //     24 ................------.----...---.-------------------------------------.......-----------.......
(PID.TID 0000.0001) //     23 ................-----------..--..---------------------------------------........----------......
(PID.TID 0000.0001) //     22 -----..........------------......----------------------------------------........--------------.
(PID.TID 0000.0001) //     21 -----.........--------------.......-...---------------------------------............-----------.
(PID.TID 0000.0001) //     20 ------.......---------------.......-....--------------------------------............------------
(PID.TID 0000.0001) //     19 ------.......-----------------.----.....---------------------------------...........------------
(PID.TID 0000.0001) //     18 ------.......-..------------------......----------------------------------..........------------
(PID.TID 0000.0001) //     17 ------.......-..----------------........----------------------------------..........------------
(PID.TID 0000.0001) //     16 ------......--.----------------..........----------------------------------........-------------
(PID.TID 0000.0001) //     15 ------......--.----------------...........---------------------------------.......--------------
(PID.TID 0000.0001) //     14 -------....--------------------...........---------------------------------......---------------
(PID.TID 0000.0001) //     13 -------...---------------------..........----------------------------------.....----------------
(PID.TID 0000.0001) //     12 --------------------------------.----....-----.---------------------------.....-----------------
(PID.TID 0000.0001) //     11 ---------------------------------------------..---------------------------....------------------
(PID.TID 0000.0001) //     10 ---------------------------------------------.----------------------------...-------------------
(PID.TID 0000.0001) //      9 --------------------------------------------------------------------------...-------------------
(PID.TID 0000.0001) //      8 --------------------------------------------------------------------------..--------------------
(PID.TID 0000.0001) //      7 ------------------------------------------------------------------------------------------------
(PID.TID 0000.0001) //      6 ----------------------------.------------------------------------------------.------------------
(PID.TID 0000.0001) //      5 -----------.-..............................--------------------------------...------------------
(PID.TID 0000.0001) //      4 ..............................................----------------------..........-----------.......
(PID.TID 0000.0001) //      3 ..............................................--------...........................----...........
(PID.TID 0000.0001) //      2 ................................................................................................
(PID.TID 0000.0001) //      1 ................................................................................................
(PID.TID 0000.0001) //      0 ................................................................................................
(PID.TID 0000.0001) //     -1 --------................................................................................--------
(PID.TID 0000.0001) //     -2 ................................................................................................
(PID.TID 0000.0001) // =======================================================
(PID.TID 0000.0001) // END OF FIELD                                          =
(PID.TID 0000.0001) // =======================================================
(PID.TID 0000.0001) 
(PID.TID 0000.0001) %MON fCori_max                    =   1.4323448157692E-04
(PID.TID 0000.0001) %MON fCori_min                    =  -1.4112379284621E-04
(PID.TID 0000.0001) %MON fCori_mean                   =   3.6726790147928E-06
(PID.TID 0000.0001) %MON fCori_sd                     =   9.7510077443651E-05
(PID.TID 0000.0001) %MON fCoriG_max                   =   1.4226580169407E-04
(PID.TID 0000.0001) %MON fCoriG_min                   =  -1.4226580169407E-04
(PID.TID 0000.0001) %MON fCoriG_mean                  =   7.5291817533716E-23
(PID.TID 0000.0001) %MON fCoriG_sd                    =   9.6335367303778E-05
(PID.TID 0000.0001)  PACKAGES_BOOT: opening data.pkg
(PID.TID 0000.0001)  OPEN_COPY_DATA_FILE: opening file data.pkg
(PID.TID 0000.0001) // =======================================================
(PID.TID 0000.0001) // Parameter file "data.pkg"
(PID.TID 0000.0001) // =======================================================
(PID.TID 0000.0001) ># Packages
(PID.TID 0000.0001) > &PACKAGES
(PID.TID 0000.0001) > useGMRedi=.TRUE.
(PID.TID 0000.0001) > &
(PID.TID 0000.0001) >
(PID.TID 0000.0001) 
(PID.TID 0000.0001)  PACKAGES_BOOT: finished reading data.pkg
(PID.TID 0000.0001)  GM_READPARMS: opening data.gmredi
(PID.TID 0000.0001)  OPEN_COPY_DATA_FILE: opening file data.gmredi
(PID.TID 0000.0001) // =======================================================
(PID.TID 0000.0001) // Parameter file "data.gmredi"
(PID.TID 0000.0001) // =======================================================
(PID.TID 0000.0001) ># from MOM
(PID.TID 0000.0001) ># GM_background_K: 	isopycnal diffusion coefficien
(PID.TID 0000.0001) ># GM_maxSlope:		max slope of isopycnals
(PID.TID 0000.0001) ># GM_Scrit:		transition for scaling diffusion coefficient
(PID.TID 0000.0001) ># GM_Sd:		half width scaling for diffusion coefficient
(PID.TID 0000.0001) ># real background diff:	horizontal diffusion
(PID.TID 0000.0001) >
(PID.TID 0000.0001) ># ifdef GM_VISBECK_VARIABLE_K, include following in GM_PARM01
(PID.TID 0000.0001) ># GM_Visbeck_alpha   = 0.,
(PID.TID 0000.0001) ># GM_Visbeck_length  = 2.e+5,
(PID.TID 0000.0001) ># GM_Visbeck_depth   = 1.e+3,
(PID.TID 0000.0001) ># GM_Visbeck_maxval_K= 2.5e+3,
(PID.TID 0000.0001) >
(PID.TID 0000.0001) > &GM_PARM01
(PID.TID 0000.0001) >  GM_background_K    = 1.e+3,
(PID.TID 0000.0001) >  GM_taper_scheme    = 'gkw91',
(PID.TID 0000.0001) >  GM_maxSlope        = 1.e-2,
(PID.TID 0000.0001) >  GM_Scrit           = 4.e-3,
(PID.TID 0000.0001) >  GM_Sd              = 1.e-3,
(PID.TID 0000.0001) > &end
(PID.TID 0000.0001) >
(PID.TID 0000.0001) >
(PID.TID 0000.0001) 
(PID.TID 0000.0001)  GM_READPARMS: finished reading data.gmredi
(PID.TID 0000.0001) GMREDI_CHECK: #define GMREDI
(PID.TID 0000.0001) // CG2D normalisation factor =          0.7375667548770356281382515E-04
(PID.TID 0000.0001) 
(PID.TID 0000.0001) // =======================================================
(PID.TID 0000.0001) // Model configuration
(PID.TID 0000.0001) // =======================================================
(PID.TID 0000.0001) //
(PID.TID 0000.0001) // "Physical" paramters ( PARM01 in namelist )
(PID.TID 0000.0001) //
(PID.TID 0000.0001) tRef =   /* Reference temperature profile ( oC or oK ) */
(PID.TID 0000.0001)    15 @  2.000000000000000E+01              /* K =  1: 15 */
(PID.TID 0000.0001)     ;
(PID.TID 0000.0001) sRef =   /* Reference salinity profile ( ppt ) */
(PID.TID 0000.0001)    15 @  3.500000000000000E+01              /* K =  1: 15 */
(PID.TID 0000.0001)     ;
(PID.TID 0000.0001) viscAh =   /* Lateral eddy viscosity ( m^2/s ) */
(PID.TID 0000.0001)                 5.000000000000000E+05
(PID.TID 0000.0001)     ;
(PID.TID 0000.0001) viscAh =   /* Lateral biharmonic viscosity ( m^4/s ) */
(PID.TID 0000.0001)                 0.000000000000000E+00
(PID.TID 0000.0001)     ;
(PID.TID 0000.0001) no_slip_sides =  /* Viscous BCs: No-slip sides */
(PID.TID 0000.0001)                   T
(PID.TID 0000.0001)     ;
(PID.TID 0000.0001) viscAz =   /* Vertical eddy viscosity ( m^2/s ) */
(PID.TID 0000.0001)                 1.000000000000000E-03
(PID.TID 0000.0001)     ;
(PID.TID 0000.0001) viscAr =   /* Vertical eddy viscosity ( units of r^2/s ) */
(PID.TID 0000.0001)                 1.000000000000000E-03
(PID.TID 0000.0001)     ;
(PID.TID 0000.0001) diffKhT =   /* Laplacian diffusion of heat laterally ( m^2/s ) */
(PID.TID 0000.0001)                 0.000000000000000E+00
(PID.TID 0000.0001)     ;
(PID.TID 0000.0001) diffK4T =   /* Bihaarmonic diffusion of heat laterally ( m^4/s ) */
(PID.TID 0000.0001)                 0.000000000000000E+00
(PID.TID 0000.0001)     ;
(PID.TID 0000.0001) diffKzT =   /* Laplacian diffusion of heat vertically ( m^2/s ) */
(PID.TID 0000.0001)                 3.000000000000000E-05
(PID.TID 0000.0001)     ;
(PID.TID 0000.0001) diffKrT =   /* Laplacian diffusion of heat vertically ( m^2/s ) */
(PID.TID 0000.0001)                 3.000000000000000E-05
(PID.TID 0000.0001)     ;
(PID.TID 0000.0001) diffKhS =   /* Laplacian diffusion of salt laterally ( m^2/s ) */
(PID.TID 0000.0001)                 0.000000000000000E+00
(PID.TID 0000.0001)     ;
(PID.TID 0000.0001) diffK4S =   /* Bihaarmonic diffusion of salt laterally ( m^4/s ) */
(PID.TID 0000.0001)                 0.000000000000000E+00
(PID.TID 0000.0001)     ;
(PID.TID 0000.0001) diffKzS =   /* Laplacian diffusion of salt vertically ( m^2/s ) */
(PID.TID 0000.0001)                 3.000000000000000E-05
(PID.TID 0000.0001)     ;
(PID.TID 0000.0001) diffKrS =   /* Laplacian diffusion of salt vertically ( m^2/s ) */
(PID.TID 0000.0001)                 3.000000000000000E-05
(PID.TID 0000.0001)     ;
(PID.TID 0000.0001) tAlpha =   /* Linear EOS thermal expansion coefficient ( 1/degree ) */
(PID.TID 0000.0001)                 2.000000000000000E-04
(PID.TID 0000.0001)     ;
(PID.TID 0000.0001) sBeta =   /* Linear EOS haline contraction coefficient ( 1/ppt ) */
(PID.TID 0000.0001)                 7.400000000000000E-04
(PID.TID 0000.0001)     ;
(PID.TID 0000.0001)   1  13.497  32.600  24.570  -0.202   0.771  -0.005  -0.002   0.000   0.000   0.000   0.000   0.000
(PID.TID 0000.0001)   2  13.488  32.600  24.840  -0.203   0.770  -0.005  -0.002   0.000   0.000   0.000   0.000   0.000
(PID.TID 0000.0001)   3  13.476  32.600  25.221  -0.205   0.770  -0.005  -0.002   0.000   0.000   0.000   0.000   0.000
(PID.TID 0000.0001)   4   8.469  35.150  28.657  -0.163   0.781  -0.005  -0.002   0.001   0.000   0.000   0.000   0.000
(PID.TID 0000.0001)   5   8.451  35.150  29.405  -0.167   0.780  -0.005  -0.002   0.001   0.000   0.000   0.000   0.000
(PID.TID 0000.0001)   6   5.940  34.900  30.574  -0.145   0.784  -0.006  -0.002   0.001   0.000   0.000   0.000   0.000
(PID.TID 0000.0001)   7   4.425  34.900  31.991  -0.135   0.786  -0.006  -0.003   0.000   0.000   0.000   0.000   0.000
(PID.TID 0000.0001)   8   2.911  34.750  33.505  -0.125   0.787  -0.006  -0.003   0.000   0.000   0.000   0.000   0.000
(PID.TID 0000.0001)   9   1.893  34.800  35.333  -0.123   0.787  -0.006  -0.003   0.000   0.000   0.000   0.000   0.000
(PID.TID 0000.0001)  10   1.367  34.800  37.279  -0.129   0.785  -0.006  -0.003  -0.001   0.000   0.000   0.000   0.000
(PID.TID 0000.0001)  11   1.328  34.800  39.372  -0.141   0.781  -0.006  -0.003  -0.002   0.000   0.000   0.000   0.000
(PID.TID 0000.0001)  12   0.792  34.800  41.739  -0.149   0.778  -0.006  -0.003  -0.001   0.000   0.000   0.000   0.000
(PID.TID 0000.0001)  13   0.737  34.750  44.192  -0.163   0.774  -0.005  -0.002  -0.003   0.000   0.000   0.000   0.000
(PID.TID 0000.0001)  14   0.188  34.750  46.956  -0.174   0.770  -0.005  -0.002  -0.002   0.000   0.000   0.000   0.000
(PID.TID 0000.0001)  15   0.596  34.750  49.726  -0.195   0.764  -0.005  -0.002  -0.001   0.000   0.000   0.000   0.000
(PID.TID 0000.0001) rhonil =   /* Reference density ( kg/m^3 ) */
(PID.TID 0000.0001)                 1.035000000000000E+03
(PID.TID 0000.0001)     ;
(PID.TID 0000.0001) rhoConst =   /* Reference density ( kg/m^3 ) */
(PID.TID 0000.0001)                 1.035000000000000E+03
(PID.TID 0000.0001)     ;
(PID.TID 0000.0001) gravity =   /* Gravitational acceleration ( m/s^2 ) */
(PID.TID 0000.0001)                 9.810000000000000E+00
(PID.TID 0000.0001)     ;
(PID.TID 0000.0001) gBaro =   /* Barotropic gravity ( m/s^2 ) */
(PID.TID 0000.0001)                 9.810000000000000E+00
(PID.TID 0000.0001)     ;
(PID.TID 0000.0001) f0 =   /* Reference coriolis parameter ( 1/s ) */
(PID.TID 0000.0001)                 1.000000000000000E-04
(PID.TID 0000.0001)     ;
(PID.TID 0000.0001) beta =   /* Beta ( 1/(m.s) ) */
(PID.TID 0000.0001)                 9.999999999999999E-12
(PID.TID 0000.0001)     ;
(PID.TID 0000.0001) freeSurfFac =   /* Implicit free surface factor */
(PID.TID 0000.0001)                 1.000000000000000E+00
(PID.TID 0000.0001)     ;
(PID.TID 0000.0001) implicitFreeSurface =   /* Implicit free surface on/off flag */
(PID.TID 0000.0001)                   T
(PID.TID 0000.0001)     ;
(PID.TID 0000.0001) rigidLid =   /* Rigid lid on/off flag */
(PID.TID 0000.0001)                   F
(PID.TID 0000.0001)     ;
(PID.TID 0000.0001) implicSurfPress =   /* Surface Pressure implicit factor (0-1)*/
(PID.TID 0000.0001)                 1.000000000000000E+00
(PID.TID 0000.0001)     ;
(PID.TID 0000.0001) implicDiv2Dflow =   /* Barot. Flow Div. implicit factor (0-1)*/
(PID.TID 0000.0001)                 1.000000000000000E+00
(PID.TID 0000.0001)     ;
(PID.TID 0000.0001) staggerTimeStep =   /* Stagger time stepping on/off flag */
(PID.TID 0000.0001)                   F
(PID.TID 0000.0001)     ;
(PID.TID 0000.0001) momStepping =  /* Momentum equation on/off flag */
(PID.TID 0000.0001)                   T
(PID.TID 0000.0001)     ;
(PID.TID 0000.0001) momAdvection =  /* Momentum advection on/off flag */
(PID.TID 0000.0001)                   T
(PID.TID 0000.0001)     ;
(PID.TID 0000.0001) momViscosity =  /* Momentum viscosity on/off flag */
(PID.TID 0000.0001)                   T
(PID.TID 0000.0001)     ;
(PID.TID 0000.0001) useCoriolis =  /* Coriolis on/off flag */
(PID.TID 0000.0001)                   T
(PID.TID 0000.0001)     ;
(PID.TID 0000.0001) momForcing =  /* Momentum forcing on/off flag */
(PID.TID 0000.0001)                   T
(PID.TID 0000.0001)     ;
(PID.TID 0000.0001) momPressureForcing =  /* Momentum pressure term on/off flag */
(PID.TID 0000.0001)                   T
(PID.TID 0000.0001)     ;
(PID.TID 0000.0001) tempStepping =  /* Temperature equation on/off flag */
(PID.TID 0000.0001)                   T
(PID.TID 0000.0001)     ;
(PID.TID 0000.0001) nonHydrostatic =  /* Non-Hydrostatic on/off flag */
(PID.TID 0000.0001)                   F
(PID.TID 0000.0001)     ;
(PID.TID 0000.0001) //
(PID.TID 0000.0001) // Elliptic solver(s) paramters ( PARM02 in namelist )
(PID.TID 0000.0001) //
(PID.TID 0000.0001) cg2dMaxIters =   /* Upper limit on 2d con. grad iterations  */
(PID.TID 0000.0001)                    1000
(PID.TID 0000.0001)     ;
(PID.TID 0000.0001) cg2dChkResFreq =   /* 2d con. grad convergence test frequency */
(PID.TID 0000.0001)                       1
(PID.TID 0000.0001)     ;
(PID.TID 0000.0001) cg2dTargetResidual =   /* 2d con. grad target residual  */
(PID.TID 0000.0001)                 1.000000000000000E-17
(PID.TID 0000.0001)     ;
(PID.TID 0000.0001) //
(PID.TID 0000.0001) // Time stepping paramters ( PARM03 in namelist )
(PID.TID 0000.0001) //
(PID.TID 0000.0001) nIter0 =   /* Base timestep number  */
(PID.TID 0000.0001)                       0
(PID.TID 0000.0001)     ;
(PID.TID 0000.0001) nTimeSteps =   /* Number of timesteps */
(PID.TID 0000.0001)                      20
(PID.TID 0000.0001)     ;
(PID.TID 0000.0001) deltatTmom =   /* Momentum equation timestep ( s ) */
(PID.TID 0000.0001)                 1.200000000000000E+03
(PID.TID 0000.0001)     ;
(PID.TID 0000.0001) deltatTtracer =   /* Tracer equation timestep ( s ) */
(PID.TID 0000.0001)                 4.320000000000000E+04
(PID.TID 0000.0001)     ;
(PID.TID 0000.0001) deltatTClock  =   /* Model clock timestep ( s ) */
(PID.TID 0000.0001)                 4.320000000000000E+04
(PID.TID 0000.0001)     ;
(PID.TID 0000.0001) cAdjFreq =   /* Convective adjustment interval ( s ) */
(PID.TID 0000.0001)                 0.000000000000000E+00
(PID.TID 0000.0001)     ;
(PID.TID 0000.0001) abeps =   /* Adams-Bashforth stabilizing weight */
(PID.TID 0000.0001)                 1.000000000000000E-01
(PID.TID 0000.0001)     ;
(PID.TID 0000.0001) tauCD =   /* CD coupling time-scale ( s ) */
(PID.TID 0000.0001)                 3.214280000000000E+05
(PID.TID 0000.0001)     ;
(PID.TID 0000.0001) rCD =   /* Normalised CD coupling parameter */
(PID.TID 0000.0001)                 9.962666600296178E-01
(PID.TID 0000.0001)     ;
(PID.TID 0000.0001) startTime =   /* Run start time ( s ). */
(PID.TID 0000.0001)                 0.000000000000000E+00
(PID.TID 0000.0001)     ;
(PID.TID 0000.0001) endTime =   /* Integration ending time ( s ). */
(PID.TID 0000.0001)                 8.640000000000000E+05
(PID.TID 0000.0001)     ;
(PID.TID 0000.0001) pChkPtFreq =   /* Permanent restart/checkpoint file interval ( s ). */
(PID.TID 0000.0001)                 3.110400000000000E+07
(PID.TID 0000.0001)     ;
(PID.TID 0000.0001) chkPtFreq =   /* Rolling restart/checkpoint file interval ( s ). */
(PID.TID 0000.0001)                 3.110400000000000E+07
(PID.TID 0000.0001)     ;
(PID.TID 0000.0001) dumpFreq =   /* Model state write out interval ( s ). */
(PID.TID 0000.0001)                 3.110400000000000E+07
(PID.TID 0000.0001)     ;
(PID.TID 0000.0001) //
(PID.TID 0000.0001) // Gridding paramters ( PARM04 in namelist )
(PID.TID 0000.0001) //
(PID.TID 0000.0001) usingCartesianGrid =   /* Cartesian coordinates flag ( True / False ) */
(PID.TID 0000.0001)                   F
(PID.TID 0000.0001)     ;
(PID.TID 0000.0001) usingSphericalPolarGrid =   /* Spherical coordinates flag ( True / False ) */
(PID.TID 0000.0001)                   T
(PID.TID 0000.0001)     ;
(PID.TID 0000.0001) groundAtK1 =   /* Lower Boundary (ground) at the surface(k=1) ( T / F ) */
(PID.TID 0000.0001)                   F
(PID.TID 0000.0001)     ;
(PID.TID 0000.0001) Ro_SeaLevel =   /* r(1) ( units of r ) */
(PID.TID 0000.0001)                 0.000000000000000E+00
(PID.TID 0000.0001)     ;
(PID.TID 0000.0001) rkFac =   /* minus Vertical index orientation  */
(PID.TID 0000.0001)                 1.000000000000000E+00
(PID.TID 0000.0001)     ;
(PID.TID 0000.0001) horiVertRatio =   /* Ratio on units : Horiz - Vertical */
(PID.TID 0000.0001)                 1.000000000000000E+00
(PID.TID 0000.0001)     ;
(PID.TID 0000.0001) delZ =   /* W spacing ( m ) */
(PID.TID 0000.0001)                 5.000000000000000E+01,      /* K =  1 */
(PID.TID 0000.0001)                 7.000000000000000E+01,      /* K =  2 */
(PID.TID 0000.0001)                 1.000000000000000E+02,      /* K =  3 */
(PID.TID 0000.0001)                 1.400000000000000E+02,      /* K =  4 */
(PID.TID 0000.0001)                 1.900000000000000E+02,      /* K =  5 */
(PID.TID 0000.0001)                 2.400000000000000E+02,      /* K =  6 */
(PID.TID 0000.0001)                 2.900000000000000E+02,      /* K =  7 */
(PID.TID 0000.0001)                 3.400000000000000E+02,      /* K =  8 */
(PID.TID 0000.0001)                 3.900000000000000E+02,      /* K =  9 */
(PID.TID 0000.0001)                 4.400000000000000E+02,      /* K = 10 */
(PID.TID 0000.0001)                 4.900000000000000E+02,      /* K = 11 */
(PID.TID 0000.0001)                 5.400000000000000E+02,      /* K = 12 */
(PID.TID 0000.0001)                 5.900000000000000E+02,      /* K = 13 */
(PID.TID 0000.0001)                 6.400000000000000E+02,      /* K = 14 */
(PID.TID 0000.0001)                 6.900000000000000E+02       /* K = 15 */
(PID.TID 0000.0001)     ;
(PID.TID 0000.0001) delP =   /* W spacing ( Pa ) */
(PID.TID 0000.0001)    15 @  1.234567000000000E+05              /* K =  1: 15 */
(PID.TID 0000.0001)     ;
(PID.TID 0000.0001) delR =   /* W spacing ( units of r ) */
(PID.TID 0000.0001)                 5.000000000000000E+01,      /* K =  1 */
(PID.TID 0000.0001)                 7.000000000000000E+01,      /* K =  2 */
(PID.TID 0000.0001)                 1.000000000000000E+02,      /* K =  3 */
(PID.TID 0000.0001)                 1.400000000000000E+02,      /* K =  4 */
(PID.TID 0000.0001)                 1.900000000000000E+02,      /* K =  5 */
(PID.TID 0000.0001)                 2.400000000000000E+02,      /* K =  6 */
(PID.TID 0000.0001)                 2.900000000000000E+02,      /* K =  7 */
(PID.TID 0000.0001)                 3.400000000000000E+02,      /* K =  8 */
(PID.TID 0000.0001)                 3.900000000000000E+02,      /* K =  9 */
(PID.TID 0000.0001)                 4.400000000000000E+02,      /* K = 10 */
(PID.TID 0000.0001)                 4.900000000000000E+02,      /* K = 11 */
(PID.TID 0000.0001)                 5.400000000000000E+02,      /* K = 12 */
(PID.TID 0000.0001)                 5.900000000000000E+02,      /* K = 13 */
(PID.TID 0000.0001)                 6.400000000000000E+02,      /* K = 14 */
(PID.TID 0000.0001)                 6.900000000000000E+02       /* K = 15 */
(PID.TID 0000.0001)     ;
(PID.TID 0000.0001) delX =   /* U spacing ( m - cartesian, degrees - spherical ) */
(PID.TID 0000.0001)    90 @  4.000000000000000E+00              /* I =  1: 90 */
(PID.TID 0000.0001)     ;
(PID.TID 0000.0001) delY =   /* V spacing ( m - cartesian, degrees - spherical ) */
(PID.TID 0000.0001)    40 @  4.000000000000000E+00              /* J =  1: 40 */
(PID.TID 0000.0001)     ;
(PID.TID 0000.0001) phiMin =    /* South edge (ignored - cartesian, degrees - spherical ) */
(PID.TID 0000.0001)                -7.800000000000000E+01
(PID.TID 0000.0001)     ;
(PID.TID 0000.0001) thetaMin =    /* West edge ( ignored - cartesian, degrees - spherical ) */
(PID.TID 0000.0001)                 0.000000000000000E+00
(PID.TID 0000.0001)     ;
(PID.TID 0000.0001) rSphere =    /* Radius ( ignored - cartesian, m - spherical ) */
(PID.TID 0000.0001)                 6.370000000000000E+06
(PID.TID 0000.0001)     ;
(PID.TID 0000.0001) xcoord =   /* P-point X coord ( m - cartesian, degrees - spherical ) */
(PID.TID 0000.0001)                 2.000000000000000E+00,      /* I =  1 */
(PID.TID 0000.0001)                 6.000000000000000E+00,      /* I =  2 */
(PID.TID 0000.0001)                 1.000000000000000E+01,      /* I =  3 */
(PID.TID 0000.0001)                 1.400000000000000E+01,      /* I =  4 */
(PID.TID 0000.0001)                 1.800000000000000E+01,      /* I =  5 */
(PID.TID 0000.0001)                 2.200000000000000E+01,      /* I =  6 */
(PID.TID 0000.0001)                 2.600000000000000E+01,      /* I =  7 */
(PID.TID 0000.0001)                 3.000000000000000E+01,      /* I =  8 */
(PID.TID 0000.0001)                 3.400000000000000E+01,      /* I =  9 */
(PID.TID 0000.0001)                 3.800000000000000E+01,      /* I = 10 */
(PID.TID 0000.0001)                 4.200000000000000E+01,      /* I = 11 */
(PID.TID 0000.0001)                 4.600000000000000E+01,      /* I = 12 */
(PID.TID 0000.0001)                 5.000000000000000E+01,      /* I = 13 */
(PID.TID 0000.0001)                 5.400000000000000E+01,      /* I = 14 */
(PID.TID 0000.0001)                 5.800000000000000E+01,      /* I = 15 */
(PID.TID 0000.0001)                 6.200000000000000E+01,      /* I = 16 */
(PID.TID 0000.0001)                 6.600000000000000E+01,      /* I = 17 */
(PID.TID 0000.0001)                 7.000000000000000E+01,      /* I = 18 */
(PID.TID 0000.0001)                 7.400000000000000E+01,      /* I = 19 */
(PID.TID 0000.0001)                 7.800000000000000E+01,      /* I = 20 */
(PID.TID 0000.0001)                 8.200000000000000E+01,      /* I = 21 */
(PID.TID 0000.0001)                 8.600000000000000E+01,      /* I = 22 */
(PID.TID 0000.0001)                 9.000000000000000E+01,      /* I = 23 */
(PID.TID 0000.0001)                 9.400000000000000E+01,      /* I = 24 */
(PID.TID 0000.0001)                 9.800000000000000E+01,      /* I = 25 */
(PID.TID 0000.0001)                 1.020000000000000E+02,      /* I = 26 */
(PID.TID 0000.0001)                 1.060000000000000E+02,      /* I = 27 */
(PID.TID 0000.0001)                 1.100000000000000E+02,      /* I = 28 */
(PID.TID 0000.0001)                 1.140000000000000E+02,      /* I = 29 */
(PID.TID 0000.0001)                 1.180000000000000E+02,      /* I = 30 */
(PID.TID 0000.0001)                 1.220000000000000E+02,      /* I = 31 */
(PID.TID 0000.0001)                 1.260000000000000E+02,      /* I = 32 */
(PID.TID 0000.0001)                 1.300000000000000E+02,      /* I = 33 */
(PID.TID 0000.0001)                 1.340000000000000E+02,      /* I = 34 */
(PID.TID 0000.0001)                 1.380000000000000E+02,      /* I = 35 */
(PID.TID 0000.0001)                 1.420000000000000E+02,      /* I = 36 */
(PID.TID 0000.0001)                 1.460000000000000E+02,      /* I = 37 */
(PID.TID 0000.0001)                 1.500000000000000E+02,      /* I = 38 */
(PID.TID 0000.0001)                 1.540000000000000E+02,      /* I = 39 */
(PID.TID 0000.0001)                 1.580000000000000E+02,      /* I = 40 */
(PID.TID 0000.0001)                 1.620000000000000E+02,      /* I = 41 */
(PID.TID 0000.0001)                 1.660000000000000E+02,      /* I = 42 */
(PID.TID 0000.0001)                 1.700000000000000E+02,      /* I = 43 */
(PID.TID 0000.0001)                 1.740000000000000E+02,      /* I = 44 */
(PID.TID 0000.0001)                 1.780000000000000E+02,      /* I = 45 */
(PID.TID 0000.0001)                 1.820000000000000E+02,      /* I = 46 */
(PID.TID 0000.0001)                 1.860000000000000E+02,      /* I = 47 */
(PID.TID 0000.0001)                 1.900000000000000E+02,      /* I = 48 */
(PID.TID 0000.0001)                 1.940000000000000E+02,      /* I = 49 */
(PID.TID 0000.0001)                 1.980000000000000E+02,      /* I = 50 */
(PID.TID 0000.0001)                 2.020000000000000E+02,      /* I = 51 */
(PID.TID 0000.0001)                 2.060000000000000E+02,      /* I = 52 */
(PID.TID 0000.0001)                 2.100000000000000E+02,      /* I = 53 */
(PID.TID 0000.0001)                 2.140000000000000E+02,      /* I = 54 */
(PID.TID 0000.0001)                 2.180000000000000E+02,      /* I = 55 */
(PID.TID 0000.0001)                 2.220000000000000E+02,      /* I = 56 */
(PID.TID 0000.0001)                 2.260000000000000E+02,      /* I = 57 */
(PID.TID 0000.0001)                 2.300000000000000E+02,      /* I = 58 */
(PID.TID 0000.0001)                 2.340000000000000E+02,      /* I = 59 */
(PID.TID 0000.0001)                 2.380000000000000E+02,      /* I = 60 */
(PID.TID 0000.0001)                 2.420000000000000E+02,      /* I = 61 */
(PID.TID 0000.0001)                 2.460000000000000E+02,      /* I = 62 */
(PID.TID 0000.0001)                 2.500000000000000E+02,      /* I = 63 */
(PID.TID 0000.0001)                 2.540000000000000E+02,      /* I = 64 */
(PID.TID 0000.0001)                 2.580000000000000E+02,      /* I = 65 */
(PID.TID 0000.0001)                 2.620000000000000E+02,      /* I = 66 */
(PID.TID 0000.0001)                 2.660000000000000E+02,      /* I = 67 */
(PID.TID 0000.0001)                 2.700000000000000E+02,      /* I = 68 */
(PID.TID 0000.0001)                 2.740000000000000E+02,      /* I = 69 */
(PID.TID 0000.0001)                 2.780000000000000E+02,      /* I = 70 */
(PID.TID 0000.0001)                 2.820000000000000E+02,      /* I = 71 */
(PID.TID 0000.0001)                 2.860000000000000E+02,      /* I = 72 */
(PID.TID 0000.0001)                 2.900000000000000E+02,      /* I = 73 */
(PID.TID 0000.0001)                 2.940000000000000E+02,      /* I = 74 */
(PID.TID 0000.0001)                 2.980000000000000E+02,      /* I = 75 */
(PID.TID 0000.0001)                 3.020000000000000E+02,      /* I = 76 */
(PID.TID 0000.0001)                 3.060000000000000E+02,      /* I = 77 */
(PID.TID 0000.0001)                 3.100000000000000E+02,      /* I = 78 */
(PID.TID 0000.0001)                 3.140000000000000E+02,      /* I = 79 */
(PID.TID 0000.0001)                 3.180000000000000E+02,      /* I = 80 */
(PID.TID 0000.0001)                 3.220000000000000E+02,      /* I = 81 */
(PID.TID 0000.0001)                 3.260000000000000E+02,      /* I = 82 */
(PID.TID 0000.0001)                 3.300000000000000E+02,      /* I = 83 */
(PID.TID 0000.0001)                 3.340000000000000E+02,      /* I = 84 */
(PID.TID 0000.0001)                 3.380000000000000E+02,      /* I = 85 */
(PID.TID 0000.0001)                 3.420000000000000E+02,      /* I = 86 */
(PID.TID 0000.0001)                 3.460000000000000E+02,      /* I = 87 */
(PID.TID 0000.0001)                 3.500000000000000E+02,      /* I = 88 */
(PID.TID 0000.0001)                 3.540000000000000E+02,      /* I = 89 */
(PID.TID 0000.0001)                 3.580000000000000E+02       /* I = 90 */
(PID.TID 0000.0001)     ;
(PID.TID 0000.0001) ycoord =   /* P-point Y coord ( m - cartesian, degrees - spherical ) */
(PID.TID 0000.0001)                -7.600000000000000E+01,      /* J =  1 */
(PID.TID 0000.0001)                -7.200000000000000E+01,      /* J =  2 */
(PID.TID 0000.0001)                -6.800000000000000E+01,      /* J =  3 */
(PID.TID 0000.0001)                -6.400000000000000E+01,      /* J =  4 */
(PID.TID 0000.0001)                -6.000000000000000E+01,      /* J =  5 */
(PID.TID 0000.0001)                -5.600000000000000E+01,      /* J =  6 */
(PID.TID 0000.0001)                -5.200000000000000E+01,      /* J =  7 */
(PID.TID 0000.0001)                -4.800000000000000E+01,      /* J =  8 */
(PID.TID 0000.0001)                -4.400000000000000E+01,      /* J =  9 */
(PID.TID 0000.0001)                -4.000000000000000E+01,      /* J = 10 */
(PID.TID 0000.0001)                -3.600000000000000E+01,      /* J = 11 */
(PID.TID 0000.0001)                -3.200000000000000E+01,      /* J = 12 */
(PID.TID 0000.0001)                -2.800000000000000E+01,      /* J = 13 */
(PID.TID 0000.0001)                -2.400000000000000E+01,      /* J = 14 */
(PID.TID 0000.0001)                -2.000000000000000E+01,      /* J = 15 */
(PID.TID 0000.0001)                -1.600000000000000E+01,      /* J = 16 */
(PID.TID 0000.0001)                -1.200000000000000E+01,      /* J = 17 */
(PID.TID 0000.0001)                -8.000000000000000E+00,      /* J = 18 */
(PID.TID 0000.0001)                -4.000000000000000E+00,      /* J = 19 */
(PID.TID 0000.0001)                 0.000000000000000E+00,      /* J = 20 */
(PID.TID 0000.0001)                 4.000000000000000E+00,      /* J = 21 */
(PID.TID 0000.0001)                 8.000000000000000E+00,      /* J = 22 */
(PID.TID 0000.0001)                 1.200000000000000E+01,      /* J = 23 */
(PID.TID 0000.0001)                 1.600000000000000E+01,      /* J = 24 */
(PID.TID 0000.0001)                 2.000000000000000E+01,      /* J = 25 */
(PID.TID 0000.0001)                 2.400000000000000E+01,      /* J = 26 */
(PID.TID 0000.0001)                 2.800000000000000E+01,      /* J = 27 */
(PID.TID 0000.0001)                 3.200000000000000E+01,      /* J = 28 */
(PID.TID 0000.0001)                 3.600000000000000E+01,      /* J = 29 */
(PID.TID 0000.0001)                 4.000000000000000E+01,      /* J = 30 */
(PID.TID 0000.0001)                 4.400000000000000E+01,      /* J = 31 */
(PID.TID 0000.0001)                 4.800000000000000E+01,      /* J = 32 */
(PID.TID 0000.0001)                 5.200000000000000E+01,      /* J = 33 */
(PID.TID 0000.0001)                 5.600000000000000E+01,      /* J = 34 */
(PID.TID 0000.0001)                 6.000000000000000E+01,      /* J = 35 */
(PID.TID 0000.0001)                 6.400000000000000E+01,      /* J = 36 */
(PID.TID 0000.0001)                 6.800000000000000E+01,      /* J = 37 */
(PID.TID 0000.0001)                 7.200000000000000E+01,      /* J = 38 */
(PID.TID 0000.0001)                 7.600000000000000E+01,      /* J = 39 */
(PID.TID 0000.0001)                 8.000000000000000E+01       /* J = 40 */
(PID.TID 0000.0001)     ;
(PID.TID 0000.0001) rcoord =   /* P-point R coordinate (  units of r ) */
(PID.TID 0000.0001)                -2.500000000000000E+01,      /* K =  1 */
(PID.TID 0000.0001)                -8.500000000000000E+01,      /* K =  2 */
(PID.TID 0000.0001)                -1.700000000000000E+02,      /* K =  3 */
(PID.TID 0000.0001)                -2.900000000000000E+02,      /* K =  4 */
(PID.TID 0000.0001)                -4.550000000000000E+02,      /* K =  5 */
(PID.TID 0000.0001)                -6.700000000000000E+02,      /* K =  6 */
(PID.TID 0000.0001)                -9.350000000000000E+02,      /* K =  7 */
(PID.TID 0000.0001)                -1.250000000000000E+03,      /* K =  8 */
(PID.TID 0000.0001)                -1.615000000000000E+03,      /* K =  9 */
(PID.TID 0000.0001)                -2.030000000000000E+03,      /* K = 10 */
(PID.TID 0000.0001)                -2.495000000000000E+03,      /* K = 11 */
(PID.TID 0000.0001)                -3.010000000000000E+03,      /* K = 12 */
(PID.TID 0000.0001)                -3.575000000000000E+03,      /* K = 13 */
(PID.TID 0000.0001)                -4.190000000000000E+03,      /* K = 14 */
(PID.TID 0000.0001)                -4.855000000000000E+03       /* K = 15 */
(PID.TID 0000.0001)     ;
(PID.TID 0000.0001) dxF =  /* dxF(:,1,:,1) ( m - cartesian, degrees - spherical ) */
(PID.TID 0000.0001)    90 @  1.075850604052271E+05              /* I =  1: 90 */
(PID.TID 0000.0001)     ;
(PID.TID 0000.0001) dxF =  /* dxF(1,:,1,:) ( m - cartesian, degrees - spherical ) */
(PID.TID 0000.0001)                 1.075850604052271E+05,      /* J =  1 */
(PID.TID 0000.0001)                 1.374229146297914E+05,      /* J =  2 */
(PID.TID 0000.0001)                 1.665912582279823E+05,      /* J =  3 */
(PID.TID 0000.0001)                 1.949479859617814E+05,      /* J =  4 */
(PID.TID 0000.0001)                 2.223549467040776E+05,      /* J =  5 */
(PID.TID 0000.0001)                 2.486786164970726E+05,      /* J =  6 */
(PID.TID 0000.0001)                 2.737907490675810E+05,      /* J =  7 */
(PID.TID 0000.0001)                 2.975690006299820E+05,      /* J =  8 */
(PID.TID 0000.0001)                 3.198975259328452E+05,      /* J =  9 */
(PID.TID 0000.0001)                 3.406675426453503E+05,      /* J = 10 */
(PID.TID 0000.0001)                 3.597778613338689E+05,      /* J = 11 */
(PID.TID 0000.0001)                 3.771353784467131E+05,      /* J = 12 */
(PID.TID 0000.0001)                 3.926555299052806E+05,      /* J = 13 */
(PID.TID 0000.0001)                 4.062627030917454E+05,      /* J = 14 */
(PID.TID 0000.0001)                 4.178906052261313E+05,      /* J = 15 */
(PID.TID 0000.0001)                 4.274825863380723E+05,      /* J = 16 */
(PID.TID 0000.0001)                 4.349919152597734E+05,      /* J = 17 */
(PID.TID 0000.0001)                 4.403820072955634E+05,      /* J = 18 */
(PID.TID 0000.0001)                 4.436266024588540E+05,      /* J = 19 */
(PID.TID 0000.0001)                 4.447098934081552E+05,      /* J = 20 */
(PID.TID 0000.0001)                 4.436266024588540E+05,      /* J = 21 */
(PID.TID 0000.0001)                 4.403820072955634E+05,      /* J = 22 */
(PID.TID 0000.0001)                 4.349919152597734E+05,      /* J = 23 */
(PID.TID 0000.0001)                 4.274825863380723E+05,      /* J = 24 */
(PID.TID 0000.0001)                 4.178906052261313E+05,      /* J = 25 */
(PID.TID 0000.0001)                 4.062627030917454E+05,      /* J = 26 */
(PID.TID 0000.0001)                 3.926555299052806E+05,      /* J = 27 */
(PID.TID 0000.0001)                 3.771353784467131E+05,      /* J = 28 */
(PID.TID 0000.0001)                 3.597778613338689E+05,      /* J = 29 */
(PID.TID 0000.0001)                 3.406675426453503E+05,      /* J = 30 */
(PID.TID 0000.0001)                 3.198975259328452E+05,      /* J = 31 */
(PID.TID 0000.0001)                 2.975690006299820E+05,      /* J = 32 */
(PID.TID 0000.0001)                 2.737907490675810E+05,      /* J = 33 */
(PID.TID 0000.0001)                 2.486786164970726E+05,      /* J = 34 */
(PID.TID 0000.0001)                 2.223549467040776E+05,      /* J = 35 */
(PID.TID 0000.0001)                 1.949479859617814E+05,      /* J = 36 */
(PID.TID 0000.0001)                 1.665912582279823E+05,      /* J = 37 */
(PID.TID 0000.0001)                 1.374229146297914E+05,      /* J = 38 */
(PID.TID 0000.0001)                 1.075850604052271E+05,      /* J = 39 */
(PID.TID 0000.0001)                 7.722306258078101E+04       /* J = 40 */
(PID.TID 0000.0001)     ;
(PID.TID 0000.0001) dyF =  /* dyF(:,1,:,1) ( m - cartesian, degrees - spherical ) */
(PID.TID 0000.0001)    90 @  4.447098934081552E+05              /* I =  1: 90 */
(PID.TID 0000.0001)     ;
(PID.TID 0000.0001) dyF =  /* dyF(1,:,1,:) ( m - cartesian, degrees - spherical ) */
(PID.TID 0000.0001)    40 @  4.447098934081552E+05              /* J =  1: 40 */
(PID.TID 0000.0001)     ;
(PID.TID 0000.0001) dxG =  /* dxG(:,1,:,1) ( m - cartesian, degrees - spherical ) */
(PID.TID 0000.0001)    90 @  9.246038586187513E+04              /* I =  1: 90 */
(PID.TID 0000.0001)     ;
(PID.TID 0000.0001) dxG =  /* dxG(1,:,1,:) ( m - cartesian, degrees - spherical ) */
(PID.TID 0000.0001)                 9.246038586187513E+04,      /* J =  1 */
(PID.TID 0000.0001)                 1.225786591246834E+05,      /* J =  2 */
(PID.TID 0000.0001)                 1.520997414818001E+05,      /* J =  3 */
(PID.TID 0000.0001)                 1.808798091874300E+05,      /* J =  4 */
(PID.TID 0000.0001)                 2.087786486446736E+05,      /* J =  5 */
(PID.TID 0000.0001)                 2.356603395120766E+05,      /* J =  6 */
(PID.TID 0000.0001)                 2.613939168938713E+05,      /* J =  7 */
(PID.TID 0000.0001)                 2.858540093877838E+05,      /* J =  8 */
(PID.TID 0000.0001)                 3.089214498819035E+05,      /* J =  9 */
(PID.TID 0000.0001)                 3.304838561248741E+05,      /* J = 10 */
(PID.TID 0000.0001)                 3.504361782409254E+05,      /* J = 11 */
(PID.TID 0000.0001)                 3.686812105223083E+05,      /* J = 12 */
(PID.TID 0000.0001)                 3.851300650057322E+05,      /* J = 13 */
(PID.TID 0000.0001)                 3.997026045255871E+05,      /* J = 14 */
(PID.TID 0000.0001)                 4.123278331341585E+05,      /* J = 15 */
(PID.TID 0000.0001)                 4.229442419867491E+05,      /* J = 16 */
(PID.TID 0000.0001)                 4.315001090065869E+05,      /* J = 17 */
(PID.TID 0000.0001)                 4.379537508695839E+05,      /* J = 18 */
(PID.TID 0000.0001)                 4.422737260813013E+05,      /* J = 19 */
(PID.TID 0000.0001)     2 @  4.444389881567501E+05,             /* J = 20: 21 */
(PID.TID 0000.0001)                 4.422737260813013E+05,      /* J = 22 */
(PID.TID 0000.0001)                 4.379537508695839E+05,      /* J = 23 */
(PID.TID 0000.0001)                 4.315001090065869E+05,      /* J = 24 */
(PID.TID 0000.0001)                 4.229442419867491E+05,      /* J = 25 */
(PID.TID 0000.0001)                 4.123278331341585E+05,      /* J = 26 */
(PID.TID 0000.0001)                 3.997026045255871E+05,      /* J = 27 */
(PID.TID 0000.0001)                 3.851300650057322E+05,      /* J = 28 */
(PID.TID 0000.0001)                 3.686812105223083E+05,      /* J = 29 */
(PID.TID 0000.0001)                 3.504361782409254E+05,      /* J = 30 */
(PID.TID 0000.0001)                 3.304838561248741E+05,      /* J = 31 */
(PID.TID 0000.0001)                 3.089214498819035E+05,      /* J = 32 */
(PID.TID 0000.0001)                 2.858540093877838E+05,      /* J = 33 */
(PID.TID 0000.0001)                 2.613939168938713E+05,      /* J = 34 */
(PID.TID 0000.0001)                 2.356603395120766E+05,      /* J = 35 */
(PID.TID 0000.0001)                 2.087786486446736E+05,      /* J = 36 */
(PID.TID 0000.0001)                 1.808798091874300E+05,      /* J = 37 */
(PID.TID 0000.0001)                 1.520997414818001E+05,      /* J = 38 */
(PID.TID 0000.0001)                 1.225786591246834E+05,      /* J = 39 */
(PID.TID 0000.0001)                 9.246038586187513E+04       /* J = 40 */
(PID.TID 0000.0001)     ;
(PID.TID 0000.0001) dyG =  /* dyG(:,1,:,1) ( m - cartesian, degrees - spherical ) */
(PID.TID 0000.0001)    90 @  4.447098934081552E+05              /* I =  1: 90 */
(PID.TID 0000.0001)     ;
(PID.TID 0000.0001) dyG =  /* dyG(1,:,1,:) ( m - cartesian, degrees - spherical ) */
(PID.TID 0000.0001)    40 @  4.447098934081552E+05              /* J =  1: 40 */
(PID.TID 0000.0001)     ;
(PID.TID 0000.0001) dxC =  /* dxC(:,1,:,1) ( m - cartesian, degrees - spherical ) */
(PID.TID 0000.0001)    90 @  1.075850604052271E+05              /* I =  1: 90 */
(PID.TID 0000.0001)     ;
(PID.TID 0000.0001) dxC =  /* dxC(1,:,1,:) ( m - cartesian, degrees - spherical ) */
(PID.TID 0000.0001)                 1.075850604052271E+05,      /* J =  1 */
(PID.TID 0000.0001)                 1.374229146297914E+05,      /* J =  2 */
(PID.TID 0000.0001)                 1.665912582279823E+05,      /* J =  3 */
(PID.TID 0000.0001)                 1.949479859617814E+05,      /* J =  4 */
(PID.TID 0000.0001)                 2.223549467040776E+05,      /* J =  5 */
(PID.TID 0000.0001)                 2.486786164970726E+05,      /* J =  6 */
(PID.TID 0000.0001)                 2.737907490675810E+05,      /* J =  7 */
(PID.TID 0000.0001)                 2.975690006299820E+05,      /* J =  8 */
(PID.TID 0000.0001)                 3.198975259328452E+05,      /* J =  9 */
(PID.TID 0000.0001)                 3.406675426453503E+05,      /* J = 10 */
(PID.TID 0000.0001)                 3.597778613338689E+05,      /* J = 11 */
(PID.TID 0000.0001)                 3.771353784467131E+05,      /* J = 12 */
(PID.TID 0000.0001)                 3.926555299052806E+05,      /* J = 13 */
(PID.TID 0000.0001)                 4.062627030917454E+05,      /* J = 14 */
(PID.TID 0000.0001)                 4.178906052261313E+05,      /* J = 15 */
(PID.TID 0000.0001)                 4.274825863380723E+05,      /* J = 16 */
(PID.TID 0000.0001)                 4.349919152597734E+05,      /* J = 17 */
(PID.TID 0000.0001)                 4.403820072955634E+05,      /* J = 18 */
(PID.TID 0000.0001)                 4.436266024588540E+05,      /* J = 19 */
(PID.TID 0000.0001)                 4.447098934081552E+05,      /* J = 20 */
(PID.TID 0000.0001)                 4.436266024588540E+05,      /* J = 21 */
(PID.TID 0000.0001)                 4.403820072955634E+05,      /* J = 22 */
(PID.TID 0000.0001)                 4.349919152597734E+05,      /* J = 23 */
(PID.TID 0000.0001)                 4.274825863380723E+05,      /* J = 24 */
(PID.TID 0000.0001)                 4.178906052261313E+05,      /* J = 25 */
(PID.TID 0000.0001)                 4.062627030917454E+05,      /* J = 26 */
(PID.TID 0000.0001)                 3.926555299052806E+05,      /* J = 27 */
(PID.TID 0000.0001)                 3.771353784467131E+05,      /* J = 28 */
(PID.TID 0000.0001)                 3.597778613338689E+05,      /* J = 29 */
(PID.TID 0000.0001)                 3.406675426453503E+05,      /* J = 30 */
(PID.TID 0000.0001)                 3.198975259328452E+05,      /* J = 31 */
(PID.TID 0000.0001)                 2.975690006299820E+05,      /* J = 32 */
(PID.TID 0000.0001)                 2.737907490675810E+05,      /* J = 33 */
(PID.TID 0000.0001)                 2.486786164970726E+05,      /* J = 34 */
(PID.TID 0000.0001)                 2.223549467040776E+05,      /* J = 35 */
(PID.TID 0000.0001)                 1.949479859617814E+05,      /* J = 36 */
(PID.TID 0000.0001)                 1.665912582279823E+05,      /* J = 37 */
(PID.TID 0000.0001)                 1.374229146297914E+05,      /* J = 38 */
(PID.TID 0000.0001)                 1.075850604052271E+05,      /* J = 39 */
(PID.TID 0000.0001)                 7.722306258078101E+04       /* J = 40 */
(PID.TID 0000.0001)     ;
(PID.TID 0000.0001) dyC =  /* dyC(:,1,:,1) ( m - cartesian, degrees - spherical ) */
(PID.TID 0000.0001)    90 @  4.447098934081552E+05              /* I =  1: 90 */
(PID.TID 0000.0001)     ;
(PID.TID 0000.0001) dyC =  /* dyC(1,:,1,:) ( m - cartesian, degrees - spherical ) */
(PID.TID 0000.0001)    40 @  4.447098934081552E+05              /* J =  1: 40 */
(PID.TID 0000.0001)     ;
(PID.TID 0000.0001) dxV =  /* dxV(:,1,:,1) ( m - cartesian, degrees - spherical ) */
(PID.TID 0000.0001)    90 @  9.246038586187513E+04              /* I =  1: 90 */
(PID.TID 0000.0001)     ;
(PID.TID 0000.0001) dxV =  /* dxV(1,:,1,:) ( m - cartesian, degrees - spherical ) */
(PID.TID 0000.0001)                 9.246038586187513E+04,      /* J =  1 */
(PID.TID 0000.0001)                 1.225786591246834E+05,      /* J =  2 */
(PID.TID 0000.0001)                 1.520997414818001E+05,      /* J =  3 */
(PID.TID 0000.0001)                 1.808798091874300E+05,      /* J =  4 */
(PID.TID 0000.0001)                 2.087786486446736E+05,      /* J =  5 */
(PID.TID 0000.0001)                 2.356603395120766E+05,      /* J =  6 */
(PID.TID 0000.0001)                 2.613939168938713E+05,      /* J =  7 */
(PID.TID 0000.0001)                 2.858540093877838E+05,      /* J =  8 */
(PID.TID 0000.0001)                 3.089214498819035E+05,      /* J =  9 */
(PID.TID 0000.0001)                 3.304838561248741E+05,      /* J = 10 */
(PID.TID 0000.0001)                 3.504361782409254E+05,      /* J = 11 */
(PID.TID 0000.0001)                 3.686812105223083E+05,      /* J = 12 */
(PID.TID 0000.0001)                 3.851300650057322E+05,      /* J = 13 */
(PID.TID 0000.0001)                 3.997026045255871E+05,      /* J = 14 */
(PID.TID 0000.0001)                 4.123278331341585E+05,      /* J = 15 */
(PID.TID 0000.0001)                 4.229442419867491E+05,      /* J = 16 */
(PID.TID 0000.0001)                 4.315001090065869E+05,      /* J = 17 */
(PID.TID 0000.0001)                 4.379537508695839E+05,      /* J = 18 */
(PID.TID 0000.0001)                 4.422737260813013E+05,      /* J = 19 */
(PID.TID 0000.0001)     2 @  4.444389881567501E+05,             /* J = 20: 21 */
(PID.TID 0000.0001)                 4.422737260813013E+05,      /* J = 22 */
(PID.TID 0000.0001)                 4.379537508695839E+05,      /* J = 23 */
(PID.TID 0000.0001)                 4.315001090065869E+05,      /* J = 24 */
(PID.TID 0000.0001)                 4.229442419867491E+05,      /* J = 25 */
(PID.TID 0000.0001)                 4.123278331341585E+05,      /* J = 26 */
(PID.TID 0000.0001)                 3.997026045255871E+05,      /* J = 27 */
(PID.TID 0000.0001)                 3.851300650057322E+05,      /* J = 28 */
(PID.TID 0000.0001)                 3.686812105223083E+05,      /* J = 29 */
(PID.TID 0000.0001)                 3.504361782409254E+05,      /* J = 30 */
(PID.TID 0000.0001)                 3.304838561248741E+05,      /* J = 31 */
(PID.TID 0000.0001)                 3.089214498819035E+05,      /* J = 32 */
(PID.TID 0000.0001)                 2.858540093877838E+05,      /* J = 33 */
(PID.TID 0000.0001)                 2.613939168938713E+05,      /* J = 34 */
(PID.TID 0000.0001)                 2.356603395120766E+05,      /* J = 35 */
(PID.TID 0000.0001)                 2.087786486446736E+05,      /* J = 36 */
(PID.TID 0000.0001)                 1.808798091874300E+05,      /* J = 37 */
(PID.TID 0000.0001)                 1.520997414818001E+05,      /* J = 38 */
(PID.TID 0000.0001)                 1.225786591246834E+05,      /* J = 39 */
(PID.TID 0000.0001)                 9.246038586187513E+04       /* J = 40 */
(PID.TID 0000.0001)     ;
(PID.TID 0000.0001) dyU =  /* dyU(:,1,:,1) ( m - cartesian, degrees - spherical ) */
(PID.TID 0000.0001)    90 @  4.447098934081552E+05              /* I =  1: 90 */
(PID.TID 0000.0001)     ;
(PID.TID 0000.0001) dyU =  /* dyU(1,:,1,:) ( m - cartesian, degrees - spherical ) */
(PID.TID 0000.0001)    40 @  4.447098934081552E+05              /* J =  1: 40 */
(PID.TID 0000.0001)     ;
(PID.TID 0000.0001) rA =  /* rA(:,1,:,1) ( m - cartesian, degrees - spherical ) */
(PID.TID 0000.0001)    90 @  4.783442523123644E+10              /* I =  1: 90 */
(PID.TID 0000.0001)     ;
(PID.TID 0000.0001) rA =  /* rA(1,:,1,:) ( m - cartesian, degrees - spherical ) */
(PID.TID 0000.0001)                 4.783442523123644E+10,      /* J =  1 */
(PID.TID 0000.0001)                 6.110091968306396E+10,      /* J =  2 */
(PID.TID 0000.0001)                 7.406973659603816E+10,      /* J =  3 */
(PID.TID 0000.0001)                 8.667769319778082E+10,      /* J =  4 */
(PID.TID 0000.0001)                 9.886336479107460E+10,      /* J =  5 */
(PID.TID 0000.0001)                 1.105673840088176E+11,      /* J =  6 */
(PID.TID 0000.0001)                 1.217327300458637E+11,      /* J =  7 */
(PID.TID 0000.0001)                 1.323050064586577E+11,      /* J =  8 */
(PID.TID 0000.0001)                 1.422327061792379E+11,      /* J =  9 */
(PID.TID 0000.0001)                 1.514674624524945E+11,      /* J = 10 */
(PID.TID 0000.0001)                 1.599642844741386E+11,      /* J = 11 */
(PID.TID 0000.0001)                 1.676817765813786E+11,      /* J = 12 */
(PID.TID 0000.0001)                 1.745823399284268E+11,      /* J = 13 */
(PID.TID 0000.0001)                 1.806323556642997E+11,      /* J = 14 */
(PID.TID 0000.0001)                 1.858023487204767E+11,      /* J = 15 */
(PID.TID 0000.0001)                 1.900671314104744E+11,      /* J = 16 */
(PID.TID 0000.0001)                 1.934059261417216E+11,      /* J = 17 */
(PID.TID 0000.0001)                 1.958024666419019E+11,      /* J = 18 */
(PID.TID 0000.0001)                 1.972450772065981E+11,      /* J = 19 */
(PID.TID 0000.0001)                 1.977267295821496E+11,      /* J = 20 */
(PID.TID 0000.0001)                 1.972450772065981E+11,      /* J = 21 */
(PID.TID 0000.0001)                 1.958024666419019E+11,      /* J = 22 */
(PID.TID 0000.0001)                 1.934059261417216E+11,      /* J = 23 */
(PID.TID 0000.0001)                 1.900671314104744E+11,      /* J = 24 */
(PID.TID 0000.0001)                 1.858023487204767E+11,      /* J = 25 */
(PID.TID 0000.0001)                 1.806323556642997E+11,      /* J = 26 */
(PID.TID 0000.0001)                 1.745823399284268E+11,      /* J = 27 */
(PID.TID 0000.0001)                 1.676817765813786E+11,      /* J = 28 */
(PID.TID 0000.0001)                 1.599642844741386E+11,      /* J = 29 */
(PID.TID 0000.0001)                 1.514674624524945E+11,      /* J = 30 */
(PID.TID 0000.0001)                 1.422327061792379E+11,      /* J = 31 */
(PID.TID 0000.0001)                 1.323050064586577E+11,      /* J = 32 */
(PID.TID 0000.0001)                 1.217327300458637E+11,      /* J = 33 */
(PID.TID 0000.0001)                 1.105673840088176E+11,      /* J = 34 */
(PID.TID 0000.0001)                 9.886336479107460E+10,      /* J = 35 */
(PID.TID 0000.0001)                 8.667769319778082E+10,      /* J = 36 */
(PID.TID 0000.0001)                 7.406973659603816E+10,      /* J = 37 */
(PID.TID 0000.0001)                 6.110091968306396E+10,      /* J = 38 */
(PID.TID 0000.0001)                 4.783442523123644E+10,      /* J = 39 */
(PID.TID 0000.0001)                 3.433488626798226E+10       /* J = 40 */
(PID.TID 0000.0001)     ;
(PID.TID 0000.0001) rAw =  /* rAw(:,1,:,1) ( m - cartesian, degrees - spherical ) */
(PID.TID 0000.0001)    90 @  4.783442523123644E+10              /* I =  1: 90 */
(PID.TID 0000.0001)     ;
(PID.TID 0000.0001) rAw =  /* rAw(1,:,1,:) ( m - cartesian, degrees - spherical ) */
(PID.TID 0000.0001)                 4.783442523123644E+10,      /* J =  1 */
(PID.TID 0000.0001)                 6.110091968306396E+10,      /* J =  2 */
(PID.TID 0000.0001)                 7.406973659603816E+10,      /* J =  3 */
(PID.TID 0000.0001)                 8.667769319778082E+10,      /* J =  4 */
(PID.TID 0000.0001)                 9.886336479107460E+10,      /* J =  5 */
(PID.TID 0000.0001)                 1.105673840088176E+11,      /* J =  6 */
(PID.TID 0000.0001)                 1.217327300458637E+11,      /* J =  7 */
(PID.TID 0000.0001)                 1.323050064586577E+11,      /* J =  8 */
(PID.TID 0000.0001)                 1.422327061792379E+11,      /* J =  9 */
(PID.TID 0000.0001)                 1.514674624524945E+11,      /* J = 10 */
(PID.TID 0000.0001)                 1.599642844741386E+11,      /* J = 11 */
(PID.TID 0000.0001)                 1.676817765813786E+11,      /* J = 12 */
(PID.TID 0000.0001)                 1.745823399284268E+11,      /* J = 13 */
(PID.TID 0000.0001)                 1.806323556642997E+11,      /* J = 14 */
(PID.TID 0000.0001)                 1.858023487204767E+11,      /* J = 15 */
(PID.TID 0000.0001)                 1.900671314104744E+11,      /* J = 16 */
(PID.TID 0000.0001)                 1.934059261417216E+11,      /* J = 17 */
(PID.TID 0000.0001)                 1.958024666419019E+11,      /* J = 18 */
(PID.TID 0000.0001)                 1.972450772065981E+11,      /* J = 19 */
(PID.TID 0000.0001)                 1.977267295821496E+11,      /* J = 20 */
(PID.TID 0000.0001)                 1.972450772065981E+11,      /* J = 21 */
(PID.TID 0000.0001)                 1.958024666419019E+11,      /* J = 22 */
(PID.TID 0000.0001)                 1.934059261417216E+11,      /* J = 23 */
(PID.TID 0000.0001)                 1.900671314104744E+11,      /* J = 24 */
(PID.TID 0000.0001)                 1.858023487204767E+11,      /* J = 25 */
(PID.TID 0000.0001)                 1.806323556642997E+11,      /* J = 26 */
(PID.TID 0000.0001)                 1.745823399284268E+11,      /* J = 27 */
(PID.TID 0000.0001)                 1.676817765813786E+11,      /* J = 28 */
(PID.TID 0000.0001)                 1.599642844741386E+11,      /* J = 29 */
(PID.TID 0000.0001)                 1.514674624524945E+11,      /* J = 30 */
(PID.TID 0000.0001)                 1.422327061792379E+11,      /* J = 31 */
(PID.TID 0000.0001)                 1.323050064586577E+11,      /* J = 32 */
(PID.TID 0000.0001)                 1.217327300458637E+11,      /* J = 33 */
(PID.TID 0000.0001)                 1.105673840088176E+11,      /* J = 34 */
(PID.TID 0000.0001)                 9.886336479107460E+10,      /* J = 35 */
(PID.TID 0000.0001)                 8.667769319778082E+10,      /* J = 36 */
(PID.TID 0000.0001)                 7.406973659603816E+10,      /* J = 37 */
(PID.TID 0000.0001)                 6.110091968306396E+10,      /* J = 38 */
(PID.TID 0000.0001)                 4.783442523123644E+10,      /* J = 39 */
(PID.TID 0000.0001)                 3.433488626798226E+10       /* J = 40 */
(PID.TID 0000.0001)     ;
(PID.TID 0000.0001) rAs =  /* rAs(:,1,:,1) ( m - cartesian, degrees - spherical ) */
(PID.TID 0000.0001)    90 @  4.110969866729052E+10              /* I =  1: 90 */
(PID.TID 0000.0001)     ;
(PID.TID 0000.0001) rAs =  /* rAs(1,:,1,:) ( m - cartesian, degrees - spherical ) */
(PID.TID 0000.0001)                 4.110969866729052E+10,      /* J =  1 */
(PID.TID 0000.0001)                 5.450087291636662E+10,      /* J =  2 */
(PID.TID 0000.0001)                 6.762652439100241E+10,      /* J =  3 */
(PID.TID 0000.0001)                 8.042270623660014E+10,      /* J =  4 */
(PID.TID 0000.0001)                 9.282707674147511E+10,      /* J =  5 */
(PID.TID 0000.0001)                 1.047792030594104E+11,      /* J =  6 */
(PID.TID 0000.0001)                 1.162208556324094E+11,      /* J =  7 */
(PID.TID 0000.0001)                 1.270962918792466E+11,      /* J =  8 */
(PID.TID 0000.0001)                 1.373525277677230E+11,      /* J =  9 */
(PID.TID 0000.0001)                 1.469395959475424E+11,      /* J = 10 */
(PID.TID 0000.0001)                 1.558107891862222E+11,      /* J = 11 */
(PID.TID 0000.0001)                 1.639228879220324E+11,      /* J = 12 */
(PID.TID 0000.0001)                 1.712363708253575E+11,      /* J = 13 */
(PID.TID 0000.0001)                 1.777156073426414E+11,      /* J = 14 */
(PID.TID 0000.0001)                 1.833290312848624E+11,      /* J = 15 */
(PID.TID 0000.0001)                 1.880492946148330E+11,      /* J = 16 */
(PID.TID 0000.0001)                 1.918534006840893E+11,      /* J = 17 */
(PID.TID 0000.0001)                 1.947228162702492E+11,      /* J = 18 */
(PID.TID 0000.0001)                 1.966435618690094E+11,      /* J = 19 */
(PID.TID 0000.0001)     2 @  1.976062798008856E+11,             /* J = 20: 21 */
(PID.TID 0000.0001)                 1.966435618690094E+11,      /* J = 22 */
(PID.TID 0000.0001)                 1.947228162702492E+11,      /* J = 23 */
(PID.TID 0000.0001)                 1.918534006840893E+11,      /* J = 24 */
(PID.TID 0000.0001)                 1.880492946148330E+11,      /* J = 25 */
(PID.TID 0000.0001)                 1.833290312848624E+11,      /* J = 26 */
(PID.TID 0000.0001)                 1.777156073426414E+11,      /* J = 27 */
(PID.TID 0000.0001)                 1.712363708253575E+11,      /* J = 28 */
(PID.TID 0000.0001)                 1.639228879220324E+11,      /* J = 29 */
(PID.TID 0000.0001)                 1.558107891862222E+11,      /* J = 30 */
(PID.TID 0000.0001)                 1.469395959475424E+11,      /* J = 31 */
(PID.TID 0000.0001)                 1.373525277677230E+11,      /* J = 32 */
(PID.TID 0000.0001)                 1.270962918792466E+11,      /* J = 33 */
(PID.TID 0000.0001)                 1.162208556324094E+11,      /* J = 34 */
(PID.TID 0000.0001)                 1.047792030594104E+11,      /* J = 35 */
(PID.TID 0000.0001)                 9.282707674147511E+10,      /* J = 36 */
(PID.TID 0000.0001)                 8.042270623660014E+10,      /* J = 37 */
(PID.TID 0000.0001)                 6.762652439100241E+10,      /* J = 38 */
(PID.TID 0000.0001)                 5.450087291636662E+10,      /* J = 39 */
(PID.TID 0000.0001)                 4.110969866729052E+10       /* J = 40 */
(PID.TID 0000.0001)     ;
(PID.TID 0000.0001) 
(PID.TID 0000.0001)  MDSREADFIELD: opening global file: theta.bin
(PID.TID 0000.0001) // =======================================================
(PID.TID 0000.0001) // Field Initial Temperature at iteration          1
(PID.TID 0000.0001) // CMIN =         -2.511639595031738E+00
(PID.TID 0000.0001) // CMAX =          2.946808624267578E+01
(PID.TID 0000.0001) // CINT =          1.184434290285464E+00
(PID.TID 0000.0001) // SYMBOLS (CMIN->CMAX): -abcdefghijklmnopqrstuvwxyz+
(PID.TID 0000.0001) //                  0.0: .
(PID.TID 0000.0001) // RANGE I (Lo:Hi:Step):(   1:  90:   1)
(PID.TID 0000.0001) // RANGE J (Lo:Hi:Step):(  40:   1:  -1)
(PID.TID 0000.0001) // RANGE K (Lo:Hi:Step):(   1:   1:   1)
(PID.TID 0000.0001) // =======================================================
(PID.TID 0000.0001) K =   1
(PID.TID 0000.0001)                I=10      I=20      I=30      I=40      I=50      I=60      I=70      I=80      I=90
(PID.TID 0000.0001) |--J--|123456789|123456789|123456789|123456789|123456789|123456789|123456789|123456789|123456789|
(PID.TID 0000.0001)     40 ..........................................................................................
(PID.TID 0000.0001)     39 cdeee................................................................................aaaab
(PID.TID 0000.0001)     38 fgggg...............................................................................abbbde
(PID.TID 0000.0001)     37 hhh........................................................................bb....deee.eeef
(PID.TID 0000.0001)     36 h..........................................bbba-..........................bccd.efghhiiihhh
(PID.TID 0000.0001)     35 hh.................................--aa.bbcddddccd.efgggg..................cdeeffghijjjj..
(PID.TID 0000.0001)     34 ....................................aabbcdeeeeeeeeffffghhh..................befgghijkkkk..
(PID.TID 0000.0001)     33 ....................................abccddeeeeefffffggghiii...............dd.cfjkkkllllkk.
(PID.TID 0000.0001)     32 ....................................bcddeefffgggghhhhiiijjj...............dcbcglnnmmmmml..
(PID.TID 0000.0001)     31 ....................................efhhiiijjjjjjjjkkkllllk.............hhklkjnppooonnm...
(PID.TID 0000.0001)     30 ...................................mmmnmmmmnmmmmmmmmnnnnnnm............loqrrrrrqqqpppooo..
(PID.TID 0000.0001)     29 ...............................qqqqqqqqqqqpppppppppppqqqpponn.........sssssssrrrrrrrqqqq..
(PID.TID 0000.0001)     28 ..............................ppssssssssssssrrrrrssrsssrrqppp......tt.uutttttttsttsssrr...
(PID.TID 0000.0001)     27 ...............................uuttuuuuuuuuuuuuuuuuuuttsssrrqrr...uuvvwvvvvvvvuuuuttts....
(PID.TID 0000.0001)     26 ...............vwv....v.....uuvvvvwwwwxxwwwwwwwwwwvvvuuutttsstuu..v.wwwxxxwwwwwvvuuutr....
(PID.TID 0000.0001)     25 .............wwwxx..xxxx...wvw.xxxyyyyyyyxxxxxxxxwwwvvvvvvvvvwwxx....yyxxxxxxxwwwvvutr....
(PID.TID 0000.0001)     24 ............wwwxxyy.xyyy...wxy.yyyyyyyyyyyyxxxxxxxxwwwwwwwwxxxyyyxwx.yyx.xxxxxxwwwwvus....
(PID.TID 0000.0001)     23 .............xxyyzzyyyyz.zyxyyyyzzzzzzzzyyyyyyyyyyyxxxxxxxxyyyyxxxwww......xyyxxxxxwwvv...
(PID.TID 0000.0001)     22 xx..........xyyyzzzyzzzz..xx..yzzzzzzzzzzzzzzzzzzyyyyyyyxxxxyyxxwxxxyx.......yyyyyyyyyxxxx
(PID.TID 0000.0001)     21 yy.........xxyyyzzzzzzzzz.....zzzzzz++++++zzzzyzyyyyyyxxwwwwwwwvwwwwwv........yyyyyyyyyyyy
(PID.TID 0000.0001)     20 xxx.......yyyyyyyzzzzzzz+.......z...z++++++zzzzzzyyyyyxxxwwwwvvvvvuuu............yyyxxxxxx
(PID.TID 0000.0001)     19 wvv.......zzzyyxxyzzzzzzzzz.zzzzzz...++++++++++++zzzyyyyxxxxxwwwwwwwvt...........yyyxxxwxx
(PID.TID 0000.0001)     18 vut.......zzzyyxxyyzzzzzzzzzz++z....z+++++++++++++++zzzzyyyxxxwwwvvwvuu..........yyyxxvvww
(PID.TID 0000.0001)     17 uut.......z..zyyyyyyzzzyyyzyzz+......zzzzzzzz++zzzzzzzzzzyyyxwwvvuvvuut..........yyxxwuuvv
(PID.TID 0000.0001)     16 uur......yy.yyyyyxxyyyyxxxxxy........zzyyzyyzyzzzyyyzyyyyyyxxwwvvvuuutts........yyyxxwvuuu
(PID.TID 0000.0001)     15 uts......yy.yyxxxwwwwwwwwvww..........yxxxxxxxxxxxxxxxxxxxxxxwvvvvuutsss.......xxxxxxwwvvu
(PID.TID 0000.0001)     14 utsp....xyxxxxwwwwwvuuuuuuuv...........wwwwwwwwwwwwwvvwwwwwwwwvvvuuutssr......uwwwwwwwvvvu
(PID.TID 0000.0001)     13 tttr...vwwwvvuuuuuutuutttttt..........wvvuuuuuuuuuuutuuuuvvwwvuuuttttssq.....vvvvvvuvvuuut
(PID.TID 0000.0001)     12 sssssttuuutssssssssrstsrrrrss.srrr....uuttssssssssrrrrrrrsttttttssssrrrp....tuuttsssssssss
(PID.TID 0000.0001)     11 ppprssssrrrqqqqqppoppqpopppppppppppqrrssrrr.rrqqqqqqppppqqrrppqqqqqqqqp....ppssrqqqqpppppp
(PID.TID 0000.0001)     10 lllnooonmmmmlnnnnnmmmnmlmmllmmnmnnooopqppp.ppppppoooooooooonmnnnoonnnoo...omoponmmnnnmmmll
(PID.TID 0000.0001)      9 ihhihhiihhhhghiihiiiijiiiijjjjkklmmmmnnmmnmlmmnnnnnmmmmmmllkkklmllkllmm...mlmmllkjiijjihhi
(PID.TID 0000.0001)      8 ffeeeeefeeefggffeeefgggffgggghiijijjjjkkkkkjjklllllllkkkkjjiijkkkjjjjjk..kkjjiihggffffeeee
(PID.TID 0000.0001)      7 ccccccddddddeedeedddddddeeffffffggfffghhiiiiijjjiiihhhhhhhhhhhiiiiiiiiiiiiihhgfedddcddcccc
(PID.TID 0000.0001)      6 bbbbccccccccccccdccccdddddddddeeddeedeeefghgggggfeeeddeeffffeefggggghhhhhgfeeddccbbbbbbbbb
(PID.TID 0000.0001)      5 bbcccbbbbcccccccccccccccc.cccccdddccccccddeeeeeedcbbbbcccdddddddeeeeeedddd.cbbbbbbbbbbbbbb
(PID.TID 0000.0001)      4 bbbbbbbb.b..............................bbbbbbbbbbbbbbbbbbbbbbbbbbbbbbbb...baaaaabbbbbbbbb
(PID.TID 0000.0001)      3 ...........................................baaaaabbbbaaaaaaaabbbb..........bbaaaaaabbb....
(PID.TID 0000.0001)      2 ...........................................bbbbaaaa...........................aaaa........
(PID.TID 0000.0001)      1 ..........................................................................................
(PID.TID 0000.0001) // =======================================================
(PID.TID 0000.0001) // END OF FIELD                                          =
(PID.TID 0000.0001) // =======================================================
(PID.TID 0000.0001) 
(PID.TID 0000.0001)  MDSREADFIELD: opening global file: sal.bin
(PID.TID 0000.0001) // =======================================================
(PID.TID 0000.0001) // Field Initial Salinity at iteration          1
(PID.TID 0000.0001) // CMIN =          3.166564941406250E+01
(PID.TID 0000.0001) // CMAX =          3.739540100097656E+01
(PID.TID 0000.0001) // CINT =          2.122130217375579E-01
(PID.TID 0000.0001) // SYMBOLS (CMIN->CMAX): -abcdefghijklmnopqrstuvwxyz+
(PID.TID 0000.0001) //                  0.0: .
(PID.TID 0000.0001) // RANGE I (Lo:Hi:Step):(   1:  90:   1)
(PID.TID 0000.0001) // RANGE J (Lo:Hi:Step):(  40:   1:  -1)
(PID.TID 0000.0001) // RANGE K (Lo:Hi:Step):(   1:   1:   1)
(PID.TID 0000.0001) // =======================================================
(PID.TID 0000.0001) K =   1
(PID.TID 0000.0001)                I=10      I=20      I=30      I=40      I=50      I=60      I=70      I=80      I=90
(PID.TID 0000.0001) |--J--|123456789|123456789|123456789|123456789|123456789|123456789|123456789|123456789|123456789|
(PID.TID 0000.0001)     40 ..........................................................................................
(PID.TID 0000.0001)     39 ppppo................................................................................lmmno
(PID.TID 0000.0001)     38 pponn...............................................................................jlmnop
(PID.TID 0000.0001)     37 ppn........................................................................hh....mnnn.ooop
(PID.TID 0000.0001)     36 o..........................................eddc-..........................hjjk.mopppqqpqqq
(PID.TID 0000.0001)     35 oo.................................ffff.ffggggec-a.ccdddd..................knnnnoopppqrq..
(PID.TID 0000.0001)     34 ....................................ffgffggggggeccdefeedbb..................hloonoppqrrr..
(PID.TID 0000.0001)     33 ....................................cfgfffffffeeeeeeeedddcc...............hh.imopqqrrrrqq.
(PID.TID 0000.0001)     32 ....................................cfgggggggggggffffeeeedc...............a-cflqssssssss..
(PID.TID 0000.0001)     31 ....................................hijjjjjkkkkkjiiihhggfee.............ggjlmmruuttttss...
(PID.TID 0000.0001)     30 ...................................mmmmmmmmnnmmmllkkkjjhgff............mruvwvuuuuuuuuuuu..
(PID.TID 0000.0001)     29 ...............................nnnnoonnnnnnooonnmmnnnmmljhghi.........tuwwwwwwwvvvvwwwww..
(PID.TID 0000.0001)     28 ..............................llooooonnooopppppppppppppomkiii......rt.vwwwxxxxxyxxyyyxw...
(PID.TID 0000.0001)     27 ...............................ooooopooppqqqqqqqrqqqqqqqonlkkln...vvvvvwwwxxyy+++zzzyx....
(PID.TID 0000.0001)     26 ...............wwv....r.....nmnoooopppppppqqqqrqqqppooooonnmmmnp..v.vvvvvvvwxy++++zyxv....
(PID.TID 0000.0001)     25 .............vvvwu..jgef...klk.nnoooopppooopopppponnmlmmmmmmmlmlm....tsssstuvxyyxxwuut....
(PID.TID 0000.0001)     24 ............tttvvso.fgff...jii.mmnnnooononnnnnonmnmllllkkkkkjiiijkkn.sss.tssrtuuuttssr....
(PID.TID 0000.0001)     23 .............tstroljgihf.aeihikllllmmmmmmlmmmmmllmlllllmmllkjijjjkklm......ssstuuttsrrr...
(PID.TID 0000.0001)     22 tt..........tsrrqnnmmllj..ii..klmmmnonnmmmnnnnnnnnnnnnnoommmlkkkkkkjfe.......uuutttsrqqqqq
(PID.TID 0000.0001)     21 ok.........rrqqpppppponll.....klnnnnnnnnnnooooppqpppppoooooomnmmmlkigg........utttttsrqqpo
(PID.TID 0000.0001)     20 poo.......qrrqpppqpopomkh.......n...mmnooooppqrqqrqqqqppqpppopoonnnon............uuuttssrr
(PID.TID 0000.0001)     19 ssq.......qqqpppoomlmmlkiji.gfjmmm...lnonnpppqrrrsssrrqqrqqpppppoopoon...........vvvuttuut
(PID.TID 0000.0001)     18 vus.......qppoooonllllllllllkkno....nnnnnnoooqrrrsssrssstssrrrrrqrsrqpq..........xxwvvvvvv
(PID.TID 0000.0001)     17 vut.......q..poooonmlmmnnmnnnno......pponopppssqprssstuuuuuttttstsrrrqp..........yyyyyxwww
(PID.TID 0000.0001)     16 tts......qq.opppppnonmmoooooo........qqpopqqprsrprsttuvvvvvvvvuuussrrqqp........yz+zzyxwvv
(PID.TID 0000.0001)     15 tsq......qq.opqpqqqqqooppqqp..........qqqrrrpqrqrsssstuuuuvwwvvuutrrqppp.......wxyyxxyxwvu
(PID.TID 0000.0001)     14 ssqp....qqqpppqqrsssssstsssr...........rrrsrrrrrrrrsssrrrstuuutttsrqpooo......uwwvvvvwvuuu
(PID.TID 0000.0001)     13 sssq...rrrrrrrrrssssttssttts..........rrssssrrrrrrrssqqpqqrrrrrqqpoonnml.....uvvutttttsstt
(PID.TID 0000.0001)     12 rrsrrrrrrsrrrrrrrrrrrrqqsttss.ssts....rrrrrrrrrrqqqqqpppooooonnnnnmmlmlk....oputssrrrrrqrs
(PID.TID 0000.0001)     11 onprrrrrrrrrrrrrqqqqppooqrqrrrqqpqqrrrrrrrq.qqqpppoonnnnnmlllllkkllkklk....kkqsrqrrpppoono
(PID.TID 0000.0001)     10 mlmnppppnnnnmnoppponnnnnnoooooooooppqqqqpp.pppppoonmmllmllkkkkkkkkkkkki...iknoonnoonnnnnnm
(PID.TID 0000.0001)      9 kkkkkkkkkkkkjjkkkkkjklllllmmmmmnnnnnooonnonmmmnnnnnmmmmmlllllllkkkkkkkg...ikmnnmmllkkllllk
(PID.TID 0000.0001)      8 jjjkkkkkkkkkkjjjjjjjkkkkjkkkkkkllllmmmnmmmmlllmmmnmmmmllllmlllllllllklk..giklllkkkkkkkkkkk
(PID.TID 0000.0001)      7 kkklkkkkkkkllkkkkkkkkkkkjjjjjjjjkkkkkkkklllllllllllkkkkkkllllllllllllmmiijkkkkkjjjkjjjjjjj
(PID.TID 0000.0001)      6 kkkkjjkjjjjjkkkkkkkkkkkkkjjjjjjjjjjjjjjjjjjkkkkkkkkkkkkkkkkkklllllllllllkkkkkkkkjjjjiijjjj
(PID.TID 0000.0001)      5 kkkkjjjjjjjjjjjjjjjjjjkkk.kjjjjjjkjjjjjjjjjjkkkkkkkkkkkkjjjjkkkkkkkklkkkjj.kkkkjjjjjjkkkkk
(PID.TID 0000.0001)      4 llkkkjjk.k..............................jkkkkkkklllkkjjjiiiijjjiiijjjjjj...kkjjkkkklllkkkk
(PID.TID 0000.0001)      3 ...........................................kkkjkkkkkjjiiiijjjjjjj..........kklllllllll....
(PID.TID 0000.0001)      2 ...........................................lllkkkkk...........................mmll........
(PID.TID 0000.0001)      1 ..........................................................................................
(PID.TID 0000.0001) // =======================================================
(PID.TID 0000.0001) // END OF FIELD                                          =
(PID.TID 0000.0001) // =======================================================
(PID.TID 0000.0001) 
(PID.TID 0000.0001)  MDSREADFIELD: opening global file: tren_taux.bin
(PID.TID 0000.0001)  MDSREADFIELD: opening global file: tren_tauy.bin
(PID.TID 0000.0001)  MDSREADFIELD: opening global file: shi_qnet.bin
(PID.TID 0000.0001)  MDSREADFIELD: opening global file: shi_empr.bin
(PID.TID 0000.0001)  MDSREADFIELD: opening global file: theta_surf.bin
(PID.TID 0000.0001)  MDSREADFIELD: opening global file: sal_surf.bin
(PID.TID 0000.0001) // =======================================================
(PID.TID 0000.0001) // Model current state
(PID.TID 0000.0001) // =======================================================
(PID.TID 0000.0001) 
(PID.TID 0000.0001) // =======================================================
(PID.TID 0000.0001) // Begin MONITOR dynamic field statistics
(PID.TID 0000.0001) // =======================================================
(PID.TID 0000.0001) %MON time_tsnumber                =                     0
(PID.TID 0000.0001) %MON time_secondsf                =   0.0000000000000E+00
(PID.TID 0000.0001) %MON time_secondsi                =                     0
(PID.TID 0000.0001) %MON dynstat_eta_max              =   0.0000000000000E+00
(PID.TID 0000.0001) %MON dynstat_eta_min              =   0.0000000000000E+00
(PID.TID 0000.0001) %MON dynstat_eta_mean             =   0.0000000000000E+00
(PID.TID 0000.0001) %MON dynstat_eta_sd               =   0.0000000000000E+00
(PID.TID 0000.0001) %MON dynstat_uvel_max             =   0.0000000000000E+00
(PID.TID 0000.0001) %MON dynstat_uvel_min             =   0.0000000000000E+00
(PID.TID 0000.0001) %MON dynstat_uvel_mean            =   0.0000000000000E+00
(PID.TID 0000.0001) %MON dynstat_uvel_sd              =   0.0000000000000E+00
(PID.TID 0000.0001) %MON dynstat_vvel_max             =   0.0000000000000E+00
(PID.TID 0000.0001) %MON dynstat_vvel_min             =   0.0000000000000E+00
(PID.TID 0000.0001) %MON dynstat_vvel_mean            =   0.0000000000000E+00
(PID.TID 0000.0001) %MON dynstat_vvel_sd              =   0.0000000000000E+00
(PID.TID 0000.0001) %MON dynstat_wvel_max             =   0.0000000000000E+00
(PID.TID 0000.0001) %MON dynstat_wvel_min             =   0.0000000000000E+00
(PID.TID 0000.0001) %MON dynstat_wvel_mean            =   0.0000000000000E+00
(PID.TID 0000.0001) %MON dynstat_wvel_sd              =   0.0000000000000E+00
(PID.TID 0000.0001) %MON dynstat_theta_max            =   2.9468086242676E+01
(PID.TID 0000.0001) %MON dynstat_theta_min            =  -2.5116395950317E+00
(PID.TID 0000.0001) %MON dynstat_theta_mean           =   6.0045033194979E+00
(PID.TID 0000.0001) %MON dynstat_theta_sd             =   6.8009801118895E+00
(PID.TID 0000.0001) %MON dynstat_salt_max             =   3.7402008056641E+01
(PID.TID 0000.0001) %MON dynstat_salt_min             =   3.1665649414062E+01
(PID.TID 0000.0001) %MON dynstat_salt_mean            =   3.4727377683380E+01
(PID.TID 0000.0001) %MON dynstat_salt_sd              =   4.7723109182970E-01
(PID.TID 0000.0001) %MON advcfl_uvel_max              =   0.0000000000000E+00
(PID.TID 0000.0001) %MON advcfl_vvel_max              =   0.0000000000000E+00
(PID.TID 0000.0001) %MON advcfl_wvel_max              =   0.0000000000000E+00
(PID.TID 0000.0001) %MON advcfl_W_hf_max              =   0.0000000000000E+00
(PID.TID 0000.0001) %MON ke_max                       =   0.0000000000000E+00
(PID.TID 0000.0001) %MON ke_mean                      =   0.0000000000000E+00
(PID.TID 0000.0001) // =======================================================
(PID.TID 0000.0001) // End MONITOR dynamic field statistics
(PID.TID 0000.0001) // =======================================================
 S/R EXTERNAL_FIELDS_LOAD: Reading new data  0. 0
(PID.TID 0000.0001)  MDSREADFIELD: opening global file: tren_taux.bin
(PID.TID 0000.0001)  MDSREADFIELD: opening global file: tren_taux.bin
(PID.TID 0000.0001)  MDSREADFIELD: opening global file: tren_tauy.bin
(PID.TID 0000.0001)  MDSREADFIELD: opening global file: tren_tauy.bin
(PID.TID 0000.0001)  MDSREADFIELD: opening global file: shi_qnet.bin
(PID.TID 0000.0001)  MDSREADFIELD: opening global file: shi_qnet.bin
(PID.TID 0000.0001)  MDSREADFIELD: opening global file: shi_empr.bin
(PID.TID 0000.0001)  MDSREADFIELD: opening global file: shi_empr.bin
(PID.TID 0000.0001)  MDSREADFIELD: opening global file: theta_surf.bin
(PID.TID 0000.0001)  MDSREADFIELD: opening global file: theta_surf.bin
(PID.TID 0000.0001)  MDSREADFIELD: opening global file: sal_surf.bin
(PID.TID 0000.0001)  MDSREADFIELD: opening global file: sal_surf.bin
time,SST,SSS,fu,fv,Q,E-P,i0,i1,a,b =   0.0000E+00  0.0000E+00  0.0000E+00  0.0000E+00  0.0000E+00  2.4389E-01  0.0000E+00    12     1  5.0000E-01  5.0000E-01
time,fu0,fu1,fu =   0.0000E+00  0.0000E+00  0.0000E+00  0.0000E+00  5.0000E-01  5.0000E-01
 cg2d: Sum(rhs),rhsMax =   6.30745455865167E-15  2.92934433413851E+00
(PID.TID 0000.0001)                    cg2d_init_res =    6.28101049391337E+00
(PID.TID 0000.0001)                       cg2d_iters =    30
(PID.TID 0000.0001)                         cg2d_res =    2.17434230043815E-18
(PID.TID 0000.0001) // =======================================================
(PID.TID 0000.0001) // Begin MONITOR dynamic field statistics
(PID.TID 0000.0001) // =======================================================
(PID.TID 0000.0001) %MON time_tsnumber                =                     1
(PID.TID 0000.0001) %MON time_secondsf                =   4.3200000000000E+04
(PID.TID 0000.0001) %MON time_secondsi                =                 43200
(PID.TID 0000.0001) %MON dynstat_eta_max              =   1.2965945173527E-01
(PID.TID 0000.0001) %MON dynstat_eta_min              =  -1.4742405589625E-01
(PID.TID 0000.0001) %MON dynstat_eta_mean             =  -1.6405575262599E-03
(PID.TID 0000.0001) %MON dynstat_eta_sd               =   2.8914949948808E-02
(PID.TID 0000.0001) %MON dynstat_uvel_max             =   7.6889830474032E-03
(PID.TID 0000.0001) %MON dynstat_uvel_min             =  -8.9072479547210E-03
(PID.TID 0000.0001) %MON dynstat_uvel_mean            =  -2.1000698752245E-04
(PID.TID 0000.0001) %MON dynstat_uvel_sd              =   1.2023692905761E-03
(PID.TID 0000.0001) %MON dynstat_vvel_max             =   1.7097888078750E-02
(PID.TID 0000.0001) %MON dynstat_vvel_min             =  -1.6285445607561E-02
(PID.TID 0000.0001) %MON dynstat_vvel_mean            =   8.7410423661266E-04
(PID.TID 0000.0001) %MON dynstat_vvel_sd              =   3.1170336667943E-03
(PID.TID 0000.0001) %MON dynstat_wvel_max             =   0.0000000000000E+00
(PID.TID 0000.0001) %MON dynstat_wvel_min             =   0.0000000000000E+00
(PID.TID 0000.0001) %MON dynstat_wvel_mean            =   0.0000000000000E+00
(PID.TID 0000.0001) %MON dynstat_wvel_sd              =   0.0000000000000E+00
(PID.TID 0000.0001) %MON dynstat_theta_max            =   2.9475217830319E+01
(PID.TID 0000.0001) %MON dynstat_theta_min            =  -1.8983425752574E+00
(PID.TID 0000.0001) %MON dynstat_theta_mean           =   6.0050429932482E+00
(PID.TID 0000.0001) %MON dynstat_theta_sd             =   6.8005680568834E+00
(PID.TID 0000.0001) %MON dynstat_salt_max             =   3.7401976106105E+01
(PID.TID 0000.0001) %MON dynstat_salt_min             =   3.1665292434110E+01
(PID.TID 0000.0001) %MON dynstat_salt_mean            =   3.4727338346499E+01
(PID.TID 0000.0001) %MON dynstat_salt_sd              =   4.7715840844680E-01
(PID.TID 0000.0001) %MON advcfl_uvel_max              =   1.5976785592346E-03
(PID.TID 0000.0001) %MON advcfl_vvel_max              =   1.6609227182721E-03
(PID.TID 0000.0001) %MON advcfl_wvel_max              =   0.0000000000000E+00
(PID.TID 0000.0001) %MON advcfl_W_hf_max              =   0.0000000000000E+00
(PID.TID 0000.0001) %MON ke_max                       =   1.3973673493401E-04
(PID.TID 0000.0001) %MON ke_mean                      =   5.5029452115058E-06
(PID.TID 0000.0001) // =======================================================
(PID.TID 0000.0001) // End MONITOR dynamic field statistics
(PID.TID 0000.0001) // =======================================================
time,SST,SSS,fu,fv,Q,E-P,i0,i1,a,b =   4.3200E+04  0.0000E+00  0.0000E+00  0.0000E+00  0.0000E+00  2.3576E-01  0.0000E+00    12     1  5.1667E-01  4.8333E-01
time,fu0,fu1,fu =   4.3200E+04  0.0000E+00  0.0000E+00  0.0000E+00  5.1667E-01  4.8333E-01
 cg2d: Sum(rhs),rhsMax =   2.34118280317830E-14  5.02830064570965E+00
(PID.TID 0000.0001)                    cg2d_init_res =    3.98200319273667E+00
(PID.TID 0000.0001)                       cg2d_iters =    29
(PID.TID 0000.0001)                         cg2d_res =    8.69682022982468E-18
(PID.TID 0000.0001) // =======================================================
(PID.TID 0000.0001) // Begin MONITOR dynamic field statistics
(PID.TID 0000.0001) // =======================================================
(PID.TID 0000.0001) %MON time_tsnumber                =                     2
(PID.TID 0000.0001) %MON time_secondsf                =   8.6400000000000E+04
(PID.TID 0000.0001) %MON time_secondsi                =                 86400
(PID.TID 0000.0001) %MON dynstat_eta_max              =   2.6054204031024E-01
(PID.TID 0000.0001) %MON dynstat_eta_min              =  -2.8927811902764E-01
(PID.TID 0000.0001) %MON dynstat_eta_mean             =  -4.8062019638188E-03
(PID.TID 0000.0001) %MON dynstat_eta_sd               =   6.7638667242491E-02
(PID.TID 0000.0001) %MON dynstat_uvel_max             =   1.6303104062227E-02
(PID.TID 0000.0001) %MON dynstat_uvel_min             =  -1.6680128061516E-02
(PID.TID 0000.0001) %MON dynstat_uvel_mean            =  -5.8611531806203E-04
(PID.TID 0000.0001) %MON dynstat_uvel_sd              =   2.3334658227979E-03
(PID.TID 0000.0001) %MON dynstat_vvel_max             =   3.0492304429360E-02
(PID.TID 0000.0001) %MON dynstat_vvel_min             =  -2.7398816421347E-02
(PID.TID 0000.0001) %MON dynstat_vvel_mean            =   1.6899454312104E-03
(PID.TID 0000.0001) %MON dynstat_vvel_sd              =   5.7948457289967E-03
(PID.TID 0000.0001) %MON dynstat_wvel_max             =   1.1581504179293E-04
(PID.TID 0000.0001) %MON dynstat_wvel_min             =  -1.3438811162648E-04
(PID.TID 0000.0001) %MON dynstat_wvel_mean            =  -1.0745793208425E-06
(PID.TID 0000.0001) %MON dynstat_wvel_sd              =   2.1208972462829E-05
(PID.TID 0000.0001) %MON dynstat_theta_max            =   2.9471589207852E+01
(PID.TID 0000.0001) %MON dynstat_theta_min            =  -1.8983608104440E+00
(PID.TID 0000.0001) %MON dynstat_theta_mean           =   6.0039971955856E+00
(PID.TID 0000.0001) %MON dynstat_theta_sd             =   6.7982341794658E+00
(PID.TID 0000.0001) %MON dynstat_salt_max             =   3.7399558359253E+01
(PID.TID 0000.0001) %MON dynstat_salt_min             =   3.1674528263102E+01
(PID.TID 0000.0001) %MON dynstat_salt_mean            =   3.4727068561158E+01
(PID.TID 0000.0001) %MON dynstat_salt_sd              =   4.7737816134414E-01
(PID.TID 0000.0001) %MON advcfl_uvel_max              =   4.1540360908459E-03
(PID.TID 0000.0001) %MON advcfl_vvel_max              =   2.9620828564283E-03
(PID.TID 0000.0001) %MON advcfl_wvel_max              =   2.1229064049060E-01
(PID.TID 0000.0001) %MON advcfl_W_hf_max              =   2.1544753516333E-01
(PID.TID 0000.0001) %MON ke_max                       =   4.5992210514504E-04
(PID.TID 0000.0001) %MON ke_mean                      =   1.9418615886441E-05
(PID.TID 0000.0001) // =======================================================
(PID.TID 0000.0001) // End MONITOR dynamic field statistics
(PID.TID 0000.0001) // =======================================================
time,SST,SSS,fu,fv,Q,E-P,i0,i1,a,b =   8.6400E+04  0.0000E+00  0.0000E+00  0.0000E+00  0.0000E+00  2.2763E-01  0.0000E+00    12     1  5.3333E-01  4.6667E-01
time,fu0,fu1,fu =   8.6400E+04  0.0000E+00  0.0000E+00  0.0000E+00  5.3333E-01  4.6667E-01
 cg2d: Sum(rhs),rhsMax =  -7.00967062172708E-14  5.44212558322832E+00
(PID.TID 0000.0001)                    cg2d_init_res =    3.03712892181742E+00
(PID.TID 0000.0001)                       cg2d_iters =    29
(PID.TID 0000.0001)                         cg2d_res =    7.99027054910968E-18
(PID.TID 0000.0001) // =======================================================
(PID.TID 0000.0001) // Begin MONITOR dynamic field statistics
(PID.TID 0000.0001) // =======================================================
(PID.TID 0000.0001) %MON time_tsnumber                =                     3
(PID.TID 0000.0001) %MON time_secondsf                =   1.2960000000000E+05
(PID.TID 0000.0001) %MON time_secondsi                =                129600
(PID.TID 0000.0001) %MON dynstat_eta_max              =   3.9570915553954E-01
(PID.TID 0000.0001) %MON dynstat_eta_min              =  -4.2151666008935E-01
(PID.TID 0000.0001) %MON dynstat_eta_mean             =  -9.3232007369267E-03
(PID.TID 0000.0001) %MON dynstat_eta_sd               =   1.0640019581227E-01
(PID.TID 0000.0001) %MON dynstat_uvel_max             =   2.5364753896219E-02
(PID.TID 0000.0001) %MON dynstat_uvel_min             =  -3.1733884053096E-02
(PID.TID 0000.0001) %MON dynstat_uvel_mean            =  -1.1010847905614E-03
(PID.TID 0000.0001) %MON dynstat_uvel_sd              =   3.5553735573563E-03
(PID.TID 0000.0001) %MON dynstat_vvel_max             =   4.0555243903786E-02
(PID.TID 0000.0001) %MON dynstat_vvel_min             =  -3.3596331072503E-02
(PID.TID 0000.0001) %MON dynstat_vvel_mean            =   2.4088463704393E-03
(PID.TID 0000.0001) %MON dynstat_vvel_sd              =   8.1346919169430E-03
(PID.TID 0000.0001) %MON dynstat_wvel_max             =   1.4552751824870E-04
(PID.TID 0000.0001) %MON dynstat_wvel_min             =  -1.5871028610706E-04
(PID.TID 0000.0001) %MON dynstat_wvel_mean            =  -2.0772108900724E-06
(PID.TID 0000.0001) %MON dynstat_wvel_sd              =   3.0215725829726E-05
(PID.TID 0000.0001) %MON dynstat_theta_max            =   2.9472802771517E+01
(PID.TID 0000.0001) %MON dynstat_theta_min            =  -1.8983636406110E+00
(PID.TID 0000.0001) %MON dynstat_theta_mean           =   6.0020301828638E+00
(PID.TID 0000.0001) %MON dynstat_theta_sd             =   6.7948722006653E+00
(PID.TID 0000.0001) %MON dynstat_salt_max             =   3.7398575645346E+01
(PID.TID 0000.0001) %MON dynstat_salt_min             =   3.1689609965738E+01
(PID.TID 0000.0001) %MON dynstat_salt_mean            =   3.4726666077876E+01
(PID.TID 0000.0001) %MON dynstat_salt_sd              =   4.7777323549511E-01
(PID.TID 0000.0001) %MON advcfl_uvel_max              =   7.0321515984397E-03
(PID.TID 0000.0001) %MON advcfl_vvel_max              =   3.9396167312958E-03
(PID.TID 0000.0001) %MON advcfl_wvel_max              =   2.3236312078915E-01
(PID.TID 0000.0001) %MON advcfl_W_hf_max              =   2.3816751885403E-01
(PID.TID 0000.0001) %MON ke_max                       =   8.5645919434772E-04
(PID.TID 0000.0001) %MON ke_mean                      =   3.9496271122803E-05
(PID.TID 0000.0001) // =======================================================
(PID.TID 0000.0001) // End MONITOR dynamic field statistics
(PID.TID 0000.0001) // =======================================================
time,SST,SSS,fu,fv,Q,E-P,i0,i1,a,b =   1.2960E+05  0.0000E+00  0.0000E+00  0.0000E+00  0.0000E+00  2.1950E-01  0.0000E+00    12     1  5.5000E-01  4.5000E-01
time,fu0,fu1,fu =   1.2960E+05  0.0000E+00  0.0000E+00  0.0000E+00  5.5000E-01  4.5000E-01
 cg2d: Sum(rhs),rhsMax =  -1.12604370272607E-13  5.98353336369332E+00
(PID.TID 0000.0001)                    cg2d_init_res =    2.61168406770123E+00
(PID.TID 0000.0001)                       cg2d_iters =    29
(PID.TID 0000.0001)                         cg2d_res =    7.97703045900044E-18
(PID.TID 0000.0001) // =======================================================
(PID.TID 0000.0001) // Begin MONITOR dynamic field statistics
(PID.TID 0000.0001) // =======================================================
(PID.TID 0000.0001) %MON time_tsnumber                =                     4
(PID.TID 0000.0001) %MON time_secondsf                =   1.7280000000000E+05
(PID.TID 0000.0001) %MON time_secondsi                =                172800
(PID.TID 0000.0001) %MON dynstat_eta_max              =   5.2665182812987E-01
(PID.TID 0000.0001) %MON dynstat_eta_min              =  -5.1540333051564E-01
(PID.TID 0000.0001) %MON dynstat_eta_mean             =  -1.4972954300495E-02
(PID.TID 0000.0001) %MON dynstat_eta_sd               =   1.4434101885361E-01
(PID.TID 0000.0001) %MON dynstat_uvel_max             =   3.5389727352378E-02
(PID.TID 0000.0001) %MON dynstat_uvel_min             =  -4.8739673664401E-02
(PID.TID 0000.0001) %MON dynstat_uvel_mean            =  -1.7226147541500E-03
(PID.TID 0000.0001) %MON dynstat_uvel_sd              =   4.8700041583930E-03
(PID.TID 0000.0001) %MON dynstat_vvel_max             =   4.9937017057979E-02
(PID.TID 0000.0001) %MON dynstat_vvel_min             =  -3.6189366626805E-02
(PID.TID 0000.0001) %MON dynstat_vvel_mean            =   2.9977018198540E-03
(PID.TID 0000.0001) %MON dynstat_vvel_sd              =   1.0217616077551E-02
(PID.TID 0000.0001) %MON dynstat_wvel_max             =   1.4630740328223E-04
(PID.TID 0000.0001) %MON dynstat_wvel_min             =  -1.7710231094108E-04
(PID.TID 0000.0001) %MON dynstat_wvel_mean            =  -2.9717435636337E-06
(PID.TID 0000.0001) %MON dynstat_wvel_sd              =   3.3104045857073E-05
(PID.TID 0000.0001) %MON dynstat_theta_max            =   2.9481335689371E+01
(PID.TID 0000.0001) %MON dynstat_theta_min            =  -1.8983669617844E+00
(PID.TID 0000.0001) %MON dynstat_theta_mean           =   5.9993845981396E+00
(PID.TID 0000.0001) %MON dynstat_theta_sd             =   6.7904248706860E+00
(PID.TID 0000.0001) %MON dynstat_salt_max             =   3.7398714029534E+01
(PID.TID 0000.0001) %MON dynstat_salt_min             =   3.1670652738422E+01
(PID.TID 0000.0001) %MON dynstat_salt_mean            =   3.4726176202193E+01
(PID.TID 0000.0001) %MON dynstat_salt_sd              =   4.7828247165147E-01
(PID.TID 0000.0001) %MON advcfl_uvel_max              =   1.0800593255243E-02
(PID.TID 0000.0001) %MON advcfl_vvel_max              =   4.8509807604499E-03
(PID.TID 0000.0001) %MON advcfl_wvel_max              =   2.2172550691961E-01
(PID.TID 0000.0001) %MON advcfl_W_hf_max              =   2.2278048880400E-01
(PID.TID 0000.0001) %MON ke_max                       =   1.2811245847085E-03
(PID.TID 0000.0001) %MON ke_mean                      =   6.4505067716285E-05
(PID.TID 0000.0001) // =======================================================
(PID.TID 0000.0001) // End MONITOR dynamic field statistics
(PID.TID 0000.0001) // =======================================================
time,SST,SSS,fu,fv,Q,E-P,i0,i1,a,b =   1.7280E+05  0.0000E+00  0.0000E+00  0.0000E+00  0.0000E+00  2.1137E-01  0.0000E+00    12     1  5.6667E-01  4.3333E-01
time,fu0,fu1,fu =   1.7280E+05  0.0000E+00  0.0000E+00  0.0000E+00  5.6667E-01  4.3333E-01
 cg2d: Sum(rhs),rhsMax =   2.24265050974282E-14  7.05751308763476E+00
(PID.TID 0000.0001)                    cg2d_init_res =    2.17512810590212E+00
(PID.TID 0000.0001)                       cg2d_iters =    29
(PID.TID 0000.0001)                         cg2d_res =    6.02829519405467E-18
(PID.TID 0000.0001) // =======================================================
(PID.TID 0000.0001) // Begin MONITOR dynamic field statistics
(PID.TID 0000.0001) // =======================================================
(PID.TID 0000.0001) %MON time_tsnumber                =                     5
(PID.TID 0000.0001) %MON time_secondsf                =   2.1600000000000E+05
(PID.TID 0000.0001) %MON time_secondsi                =                216000
(PID.TID 0000.0001) %MON dynstat_eta_max              =   6.5459563797622E-01
(PID.TID 0000.0001) %MON dynstat_eta_min              =  -6.4233367985174E-01
(PID.TID 0000.0001) %MON dynstat_eta_mean             =  -2.1501722786997E-02
(PID.TID 0000.0001) %MON dynstat_eta_sd               =   1.8206471931165E-01
(PID.TID 0000.0001) %MON dynstat_uvel_max             =   4.5973308323685E-02
(PID.TID 0000.0001) %MON dynstat_uvel_min             =  -6.4711035044679E-02
(PID.TID 0000.0001) %MON dynstat_uvel_mean            =  -2.4127327363503E-03
(PID.TID 0000.0001) %MON dynstat_uvel_sd              =   6.2498687851199E-03
(PID.TID 0000.0001) %MON dynstat_vvel_max             =   6.2056847984017E-02
(PID.TID 0000.0001) %MON dynstat_vvel_min             =  -4.4647293491176E-02
(PID.TID 0000.0001) %MON dynstat_vvel_mean            =   3.4319139718292E-03
(PID.TID 0000.0001) %MON dynstat_vvel_sd              =   1.2040819673698E-02
(PID.TID 0000.0001) %MON dynstat_wvel_max             =   1.5591375254585E-04
(PID.TID 0000.0001) %MON dynstat_wvel_min             =  -1.8920117806872E-04
(PID.TID 0000.0001) %MON dynstat_wvel_mean            =  -3.7302460270477E-06
(PID.TID 0000.0001) %MON dynstat_wvel_sd              =   3.4997427823732E-05
(PID.TID 0000.0001) %MON dynstat_theta_max            =   2.9490245898350E+01
(PID.TID 0000.0001) %MON dynstat_theta_min            =  -1.8991389571487E+00
(PID.TID 0000.0001) %MON dynstat_theta_mean           =   5.9962058859482E+00
(PID.TID 0000.0001) %MON dynstat_theta_sd             =   6.7850146863927E+00
(PID.TID 0000.0001) %MON dynstat_salt_max             =   3.7398545662511E+01
(PID.TID 0000.0001) %MON dynstat_salt_min             =   3.1633625475478E+01
(PID.TID 0000.0001) %MON dynstat_salt_mean            =   3.4725624574286E+01
(PID.TID 0000.0001) %MON dynstat_salt_sd              =   4.7884173425942E-01
(PID.TID 0000.0001) %MON advcfl_uvel_max              =   1.4339808129529E-02
(PID.TID 0000.0001) %MON advcfl_vvel_max              =   6.0283251455552E-03
(PID.TID 0000.0001) %MON advcfl_wvel_max              =   2.3274636107762E-01
(PID.TID 0000.0001) %MON advcfl_W_hf_max              =   2.3260047163099E-01
(PID.TID 0000.0001) %MON ke_max                       =   1.7169694650572E-03
(PID.TID 0000.0001) %MON ke_mean                      =   9.2936406276832E-05
(PID.TID 0000.0001) // =======================================================
(PID.TID 0000.0001) // End MONITOR dynamic field statistics
(PID.TID 0000.0001) // =======================================================
time,SST,SSS,fu,fv,Q,E-P,i0,i1,a,b =   2.1600E+05  0.0000E+00  0.0000E+00  0.0000E+00  0.0000E+00  2.0324E-01  0.0000E+00    12     1  5.8333E-01  4.1667E-01
time,fu0,fu1,fu =   2.1600E+05  0.0000E+00  0.0000E+00  0.0000E+00  5.8333E-01  4.1667E-01
 cg2d: Sum(rhs),rhsMax =  -2.09283979035746E-13  8.11142280018661E+00
(PID.TID 0000.0001)                    cg2d_init_res =    1.84442037328747E+00
(PID.TID 0000.0001)                       cg2d_iters =    29
(PID.TID 0000.0001)                         cg2d_res =    5.10038117632006E-18
(PID.TID 0000.0001) // =======================================================
(PID.TID 0000.0001) // Begin MONITOR dynamic field statistics
(PID.TID 0000.0001) // =======================================================
(PID.TID 0000.0001) %MON time_tsnumber                =                     6
(PID.TID 0000.0001) %MON time_secondsf                =   2.5920000000000E+05
(PID.TID 0000.0001) %MON time_secondsi                =                259200
(PID.TID 0000.0001) %MON dynstat_eta_max              =   7.7411388841702E-01
(PID.TID 0000.0001) %MON dynstat_eta_min              =  -7.3672126396270E-01
(PID.TID 0000.0001) %MON dynstat_eta_mean             =  -2.8633121004000E-02
(PID.TID 0000.0001) %MON dynstat_eta_sd               =   2.1954418224498E-01
(PID.TID 0000.0001) %MON dynstat_uvel_max             =   5.6719229685748E-02
(PID.TID 0000.0001) %MON dynstat_uvel_min             =  -7.7116302077665E-02
(PID.TID 0000.0001) %MON dynstat_uvel_mean            =  -3.1300156761147E-03
(PID.TID 0000.0001) %MON dynstat_uvel_sd              =   7.6870452721287E-03
(PID.TID 0000.0001) %MON dynstat_vvel_max             =   7.2268403897095E-02
(PID.TID 0000.0001) %MON dynstat_vvel_min             =  -5.5267314957095E-02
(PID.TID 0000.0001) %MON dynstat_vvel_mean            =   3.6985677460463E-03
(PID.TID 0000.0001) %MON dynstat_vvel_sd              =   1.3596661427423E-02
(PID.TID 0000.0001) %MON dynstat_wvel_max             =   1.6783183907851E-04
(PID.TID 0000.0001) %MON dynstat_wvel_min             =  -1.9594126996027E-04
(PID.TID 0000.0001) %MON dynstat_wvel_mean            =  -4.3304692598198E-06
(PID.TID 0000.0001) %MON dynstat_wvel_sd              =   3.6666302721209E-05
(PID.TID 0000.0001) %MON dynstat_theta_max            =   2.9495824134878E+01
(PID.TID 0000.0001) %MON dynstat_theta_min            =  -1.8991382729773E+00
(PID.TID 0000.0001) %MON dynstat_theta_mean           =   5.9927218341040E+00
(PID.TID 0000.0001) %MON dynstat_theta_sd             =   6.7788366325316E+00
(PID.TID 0000.0001) %MON dynstat_salt_max             =   3.7399175316771E+01
(PID.TID 0000.0001) %MON dynstat_salt_min             =   3.1586705078192E+01
(PID.TID 0000.0001) %MON dynstat_salt_mean            =   3.4725043937350E+01
(PID.TID 0000.0001) %MON dynstat_salt_sd              =   4.7941357032425E-01
(PID.TID 0000.0001) %MON advcfl_uvel_max              =   1.7088785161434E-02
(PID.TID 0000.0001) %MON advcfl_vvel_max              =   7.0202959156772E-03
(PID.TID 0000.0001) %MON advcfl_wvel_max              =   2.5829715763845E-01
(PID.TID 0000.0001) %MON advcfl_W_hf_max              =   2.4743666417749E-01
(PID.TID 0000.0001) %MON ke_max                       =   2.4495518513341E-03
(PID.TID 0000.0001) %MON ke_mean                      =   1.2337196842379E-04
(PID.TID 0000.0001) // =======================================================
(PID.TID 0000.0001) // End MONITOR dynamic field statistics
(PID.TID 0000.0001) // =======================================================
time,SST,SSS,fu,fv,Q,E-P,i0,i1,a,b =   2.5920E+05  0.0000E+00  0.0000E+00  0.0000E+00  0.0000E+00  1.9511E-01  0.0000E+00    12     1  6.0000E-01  4.0000E-01
time,fu0,fu1,fu =   2.5920E+05  0.0000E+00  0.0000E+00  0.0000E+00  6.0000E-01  4.0000E-01
 cg2d: Sum(rhs),rhsMax =  -1.85719495338077E-13  9.00952769868729E+00
(PID.TID 0000.0001)                    cg2d_init_res =    1.61464086293136E+00
(PID.TID 0000.0001)                       cg2d_iters =    29
(PID.TID 0000.0001)                         cg2d_res =    4.52926350162263E-18
(PID.TID 0000.0001) // =======================================================
(PID.TID 0000.0001) // Begin MONITOR dynamic field statistics
(PID.TID 0000.0001) // =======================================================
(PID.TID 0000.0001) %MON time_tsnumber                =                     7
(PID.TID 0000.0001) %MON time_secondsf                =   3.0240000000000E+05
(PID.TID 0000.0001) %MON time_secondsi                =                302400
(PID.TID 0000.0001) %MON dynstat_eta_max              =   8.7566130769362E-01
(PID.TID 0000.0001) %MON dynstat_eta_min              =  -8.2261725883957E-01
(PID.TID 0000.0001) %MON dynstat_eta_mean             =  -3.6082732186414E-02
(PID.TID 0000.0001) %MON dynstat_eta_sd               =   2.5629419649487E-01
(PID.TID 0000.0001) %MON dynstat_uvel_max             =   6.7554683676167E-02
(PID.TID 0000.0001) %MON dynstat_uvel_min             =  -8.4594049740805E-02
(PID.TID 0000.0001) %MON dynstat_uvel_mean            =  -3.8324636681804E-03
(PID.TID 0000.0001) %MON dynstat_uvel_sd              =   9.1717260066483E-03
(PID.TID 0000.0001) %MON dynstat_vvel_max             =   8.0675560130312E-02
(PID.TID 0000.0001) %MON dynstat_vvel_min             =  -6.6313429962295E-02
(PID.TID 0000.0001) %MON dynstat_vvel_mean            =   3.7970650622941E-03
(PID.TID 0000.0001) %MON dynstat_vvel_sd              =   1.4887233978310E-02
(PID.TID 0000.0001) %MON dynstat_wvel_max             =   1.7693142429765E-04
(PID.TID 0000.0001) %MON dynstat_wvel_min             =  -1.9590176627013E-04
(PID.TID 0000.0001) %MON dynstat_wvel_mean            =  -4.7576163967417E-06
(PID.TID 0000.0001) %MON dynstat_wvel_sd              =   3.8052831839713E-05
(PID.TID 0000.0001) %MON dynstat_theta_max            =   2.9499608035810E+01
(PID.TID 0000.0001) %MON dynstat_theta_min            =  -1.8991633410403E+00
(PID.TID 0000.0001) %MON dynstat_theta_mean           =   5.9891189121887E+00
(PID.TID 0000.0001) %MON dynstat_theta_sd             =   6.7720928997097E+00
(PID.TID 0000.0001) %MON dynstat_salt_max             =   3.7399784239193E+01
(PID.TID 0000.0001) %MON dynstat_salt_min             =   3.1534123550253E+01
(PID.TID 0000.0001) %MON dynstat_salt_mean            =   3.4724457341118E+01
(PID.TID 0000.0001) %MON dynstat_salt_sd              =   4.7997180824687E-01
(PID.TID 0000.0001) %MON advcfl_uvel_max              =   1.8745835873981E-02
(PID.TID 0000.0001) %MON advcfl_vvel_max              =   7.8369837264465E-03
(PID.TID 0000.0001) %MON advcfl_wvel_max              =   2.6579038122378E-01
(PID.TID 0000.0001) %MON advcfl_W_hf_max              =   2.5374531256358E-01
(PID.TID 0000.0001) %MON ke_max                       =   3.1562809295850E-03
(PID.TID 0000.0001) %MON ke_mean                      =   1.5462211872037E-04
(PID.TID 0000.0001) // =======================================================
(PID.TID 0000.0001) // End MONITOR dynamic field statistics
(PID.TID 0000.0001) // =======================================================
time,SST,SSS,fu,fv,Q,E-P,i0,i1,a,b =   3.0240E+05  0.0000E+00  0.0000E+00  0.0000E+00  0.0000E+00  1.8698E-01  0.0000E+00    12     1  6.1667E-01  3.8333E-01
time,fu0,fu1,fu =   3.0240E+05  0.0000E+00  0.0000E+00  0.0000E+00  6.1667E-01  3.8333E-01
 cg2d: Sum(rhs),rhsMax =   9.07468544752987E-14  9.66100743864267E+00
(PID.TID 0000.0001)                    cg2d_init_res =    1.46207556161618E+00
(PID.TID 0000.0001)                       cg2d_iters =    29
(PID.TID 0000.0001)                         cg2d_res =    4.22056547380273E-18
(PID.TID 0000.0001) // =======================================================
(PID.TID 0000.0001) // Begin MONITOR dynamic field statistics
(PID.TID 0000.0001) // =======================================================
(PID.TID 0000.0001) %MON time_tsnumber                =                     8
(PID.TID 0000.0001) %MON time_secondsf                =   3.4560000000000E+05
(PID.TID 0000.0001) %MON time_secondsi                =                345600
(PID.TID 0000.0001) %MON dynstat_eta_max              =   9.5302063840517E-01
(PID.TID 0000.0001) %MON dynstat_eta_min              =  -8.6988071112736E-01
(PID.TID 0000.0001) %MON dynstat_eta_mean             =  -4.3573665838103E-02
(PID.TID 0000.0001) %MON dynstat_eta_sd               =   2.9162206182873E-01
(PID.TID 0000.0001) %MON dynstat_uvel_max             =   7.8336195447744E-02
(PID.TID 0000.0001) %MON dynstat_uvel_min             =  -8.7079828400059E-02
(PID.TID 0000.0001) %MON dynstat_uvel_mean            =  -4.4804064056766E-03
(PID.TID 0000.0001) %MON dynstat_uvel_sd              =   1.0686545670500E-02
(PID.TID 0000.0001) %MON dynstat_vvel_max             =   8.7276120596049E-02
(PID.TID 0000.0001) %MON dynstat_vvel_min             =  -7.6840966768203E-02
(PID.TID 0000.0001) %MON dynstat_vvel_mean            =   3.7384684482978E-03
(PID.TID 0000.0001) %MON dynstat_vvel_sd              =   1.5925447483032E-02
(PID.TID 0000.0001) %MON dynstat_wvel_max             =   1.8430781221681E-04
(PID.TID 0000.0001) %MON dynstat_wvel_min             =  -1.9328715880379E-04
(PID.TID 0000.0001) %MON dynstat_wvel_mean            =  -5.0057658669347E-06
(PID.TID 0000.0001) %MON dynstat_wvel_sd              =   3.8996358946326E-05
(PID.TID 0000.0001) %MON dynstat_theta_max            =   2.9503683776875E+01
(PID.TID 0000.0001) %MON dynstat_theta_min            =  -1.8991877357453E+00
(PID.TID 0000.0001) %MON dynstat_theta_mean           =   5.9855144924614E+00
(PID.TID 0000.0001) %MON dynstat_theta_sd             =   6.7649738414046E+00
(PID.TID 0000.0001) %MON dynstat_salt_max             =   3.7400360011035E+01
(PID.TID 0000.0001) %MON dynstat_salt_min             =   3.1480563731263E+01
(PID.TID 0000.0001) %MON dynstat_salt_mean            =   3.4723879621584E+01
(PID.TID 0000.0001) %MON dynstat_salt_sd              =   4.8051137281203E-01
(PID.TID 0000.0001) %MON advcfl_uvel_max              =   1.9296678384869E-02
(PID.TID 0000.0001) %MON advcfl_vvel_max              =   8.4781752455615E-03
(PID.TID 0000.0001) %MON advcfl_wvel_max              =   2.3679591354681E-01
(PID.TID 0000.0001) %MON advcfl_W_hf_max              =   2.2700330764615E-01
(PID.TID 0000.0001) %MON ke_max                       =   3.6496971259550E-03
(PID.TID 0000.0001) %MON ke_mean                      =   1.8575327795682E-04
(PID.TID 0000.0001) // =======================================================
(PID.TID 0000.0001) // End MONITOR dynamic field statistics
(PID.TID 0000.0001) // =======================================================
time,SST,SSS,fu,fv,Q,E-P,i0,i1,a,b =   3.4560E+05  0.0000E+00  0.0000E+00  0.0000E+00  0.0000E+00  1.7885E-01  0.0000E+00    12     1  6.3333E-01  3.6667E-01
time,fu0,fu1,fu =   3.4560E+05  0.0000E+00  0.0000E+00  0.0000E+00  6.3333E-01  3.6667E-01
 cg2d: Sum(rhs),rhsMax =  -7.17759185420164E-14  1.00533380153474E+01
(PID.TID 0000.0001)                    cg2d_init_res =    1.35444490147056E+00
(PID.TID 0000.0001)                       cg2d_iters =    29
(PID.TID 0000.0001)                         cg2d_res =    4.00406546459616E-18
(PID.TID 0000.0001) // =======================================================
(PID.TID 0000.0001) // Begin MONITOR dynamic field statistics
(PID.TID 0000.0001) // =======================================================
(PID.TID 0000.0001) %MON time_tsnumber                =                     9
(PID.TID 0000.0001) %MON time_secondsf                =   3.8880000000000E+05
(PID.TID 0000.0001) %MON time_secondsi                =                388800
(PID.TID 0000.0001) %MON dynstat_eta_max              =   1.0048778754718E+00
(PID.TID 0000.0001) %MON dynstat_eta_min              =  -9.3301635242369E-01
(PID.TID 0000.0001) %MON dynstat_eta_mean             =  -5.0851357906822E-02
(PID.TID 0000.0001) %MON dynstat_eta_sd               =   3.2472970564101E-01
(PID.TID 0000.0001) %MON dynstat_uvel_max             =   8.8890161989119E-02
(PID.TID 0000.0001) %MON dynstat_uvel_min             =  -8.5475103140911E-02
(PID.TID 0000.0001) %MON dynstat_uvel_mean            =  -5.0389328884183E-03
(PID.TID 0000.0001) %MON dynstat_uvel_sd              =   1.2210693441189E-02
(PID.TID 0000.0001) %MON dynstat_vvel_max             =   9.3958772123505E-02
(PID.TID 0000.0001) %MON dynstat_vvel_min             =  -8.6332775915326E-02
(PID.TID 0000.0001) %MON dynstat_vvel_mean            =   3.5438364766948E-03
(PID.TID 0000.0001) %MON dynstat_vvel_sd              =   1.6736318085718E-02
(PID.TID 0000.0001) %MON dynstat_wvel_max             =   2.0042238538937E-04
(PID.TID 0000.0001) %MON dynstat_wvel_min             =  -2.0635590573789E-04
(PID.TID 0000.0001) %MON dynstat_wvel_mean            =  -5.0785348275956E-06
(PID.TID 0000.0001) %MON dynstat_wvel_sd              =   3.9341467722589E-05
(PID.TID 0000.0001) %MON dynstat_theta_max            =   2.9507832966544E+01
(PID.TID 0000.0001) %MON dynstat_theta_min            =  -1.8996035829633E+00
(PID.TID 0000.0001) %MON dynstat_theta_mean           =   5.9820597934570E+00
(PID.TID 0000.0001) %MON dynstat_theta_sd             =   6.7576538435464E+00
(PID.TID 0000.0001) %MON dynstat_salt_max             =   3.7400902098781E+01
(PID.TID 0000.0001) %MON dynstat_salt_min             =   3.1430117387321E+01
(PID.TID 0000.0001) %MON dynstat_salt_mean            =   3.4723336281675E+01
(PID.TID 0000.0001) %MON dynstat_salt_sd              =   4.8102000419403E-01
(PID.TID 0000.0001) %MON advcfl_uvel_max              =   1.8941075166641E-02
(PID.TID 0000.0001) %MON advcfl_vvel_max              =   9.1273412530314E-03
(PID.TID 0000.0001) %MON advcfl_wvel_max              =   2.3860220281257E-01
(PID.TID 0000.0001) %MON advcfl_W_hf_max              =   2.3501772900286E-01
(PID.TID 0000.0001) %MON ke_max                       =   4.2438810372225E-03
(PID.TID 0000.0001) %MON ke_mean                      =   2.1614606743060E-04
(PID.TID 0000.0001) // =======================================================
(PID.TID 0000.0001) // End MONITOR dynamic field statistics
(PID.TID 0000.0001) // =======================================================
time,SST,SSS,fu,fv,Q,E-P,i0,i1,a,b =   3.8880E+05  0.0000E+00  0.0000E+00  0.0000E+00  0.0000E+00  1.7072E-01  0.0000E+00    12     1  6.5000E-01  3.5000E-01
time,fu0,fu1,fu =   3.8880E+05  0.0000E+00  0.0000E+00  0.0000E+00  6.5000E-01  3.5000E-01
 cg2d: Sum(rhs),rhsMax =   2.99385516377981E-13  1.02166251627677E+01
(PID.TID 0000.0001)                    cg2d_init_res =    1.27028252501646E+00
(PID.TID 0000.0001)                       cg2d_iters =    29
(PID.TID 0000.0001)                         cg2d_res =    3.82609418598827E-18
(PID.TID 0000.0001) // =======================================================
(PID.TID 0000.0001) // Begin MONITOR dynamic field statistics
(PID.TID 0000.0001) // =======================================================
(PID.TID 0000.0001) %MON time_tsnumber                =                    10
(PID.TID 0000.0001) %MON time_secondsf                =   4.3200000000000E+05
(PID.TID 0000.0001) %MON time_secondsi                =                432000
(PID.TID 0000.0001) %MON dynstat_eta_max              =   1.0330841426298E+00
(PID.TID 0000.0001) %MON dynstat_eta_min              =  -1.0346509132686E+00
(PID.TID 0000.0001) %MON dynstat_eta_mean             =  -5.7695941764416E-02
(PID.TID 0000.0001) %MON dynstat_eta_sd               =   3.5479495950335E-01
(PID.TID 0000.0001) %MON dynstat_uvel_max             =   9.9049070685471E-02
(PID.TID 0000.0001) %MON dynstat_uvel_min             =  -8.1113689562059E-02
(PID.TID 0000.0001) %MON dynstat_uvel_mean            =  -5.4796249171509E-03
(PID.TID 0000.0001) %MON dynstat_uvel_sd              =   1.3725166629175E-02
(PID.TID 0000.0001) %MON dynstat_vvel_max             =   9.9833225015928E-02
(PID.TID 0000.0001) %MON dynstat_vvel_min             =  -9.4507559842636E-02
(PID.TID 0000.0001) %MON dynstat_vvel_mean            =   3.2416544813021E-03
(PID.TID 0000.0001) %MON dynstat_vvel_sd              =   1.7355245832696E-02
(PID.TID 0000.0001) %MON dynstat_wvel_max             =   2.1594766841743E-04
(PID.TID 0000.0001) %MON dynstat_wvel_min             =  -2.1690578376059E-04
(PID.TID 0000.0001) %MON dynstat_wvel_mean            =  -4.9886606715276E-06
(PID.TID 0000.0001) %MON dynstat_wvel_sd              =   3.9020593564710E-05
(PID.TID 0000.0001) %MON dynstat_theta_max            =   2.9510117878172E+01
(PID.TID 0000.0001) %MON dynstat_theta_min            =  -1.8996045613904E+00
(PID.TID 0000.0001) %MON dynstat_theta_mean           =   5.9788507592653E+00
(PID.TID 0000.0001) %MON dynstat_theta_sd             =   6.7502807932730E+00
(PID.TID 0000.0001) %MON dynstat_salt_max             =   3.7401420332072E+01
(PID.TID 0000.0001) %MON dynstat_salt_min             =   3.1385522751316E+01
(PID.TID 0000.0001) %MON dynstat_salt_mean            =   3.4722841632340E+01
(PID.TID 0000.0001) %MON dynstat_salt_sd              =   4.8147915061245E-01
(PID.TID 0000.0001) %MON advcfl_uvel_max              =   1.7974596515031E-02
(PID.TID 0000.0001) %MON advcfl_vvel_max              =   9.6979972440816E-03
(PID.TID 0000.0001) %MON advcfl_wvel_max              =   2.4256427452290E-01
(PID.TID 0000.0001) %MON advcfl_W_hf_max              =   2.2782136012981E-01
(PID.TID 0000.0001) %MON ke_max                       =   5.1642929847589E-03
(PID.TID 0000.0001) %MON ke_mean                      =   2.4552025052929E-04
(PID.TID 0000.0001) // =======================================================
(PID.TID 0000.0001) // End MONITOR dynamic field statistics
(PID.TID 0000.0001) // =======================================================
time,SST,SSS,fu,fv,Q,E-P,i0,i1,a,b =   4.3200E+05  0.0000E+00  0.0000E+00  0.0000E+00  0.0000E+00  1.6259E-01  0.0000E+00    12     1  6.6667E-01  3.3333E-01
time,fu0,fu1,fu =   4.3200E+05  0.0000E+00  0.0000E+00  0.0000E+00  6.6667E-01  3.3333E-01
 cg2d: Sum(rhs),rhsMax =  -4.26950141907412E-14  1.01911317917752E+01
(PID.TID 0000.0001)                    cg2d_init_res =    1.20087881988430E+00
(PID.TID 0000.0001)                       cg2d_iters =    29
(PID.TID 0000.0001)                         cg2d_res =    3.51198850896284E-18
(PID.TID 0000.0001) // =======================================================
(PID.TID 0000.0001) // Begin MONITOR dynamic field statistics
(PID.TID 0000.0001) // =======================================================
(PID.TID 0000.0001) %MON time_tsnumber                =                    11
(PID.TID 0000.0001) %MON time_secondsf                =   4.7520000000000E+05
(PID.TID 0000.0001) %MON time_secondsi                =                475200
(PID.TID 0000.0001) %MON dynstat_eta_max              =   1.0407638102327E+00
(PID.TID 0000.0001) %MON dynstat_eta_min              =  -1.1068888847031E+00
(PID.TID 0000.0001) %MON dynstat_eta_mean             =  -6.3930962317280E-02
(PID.TID 0000.0001) %MON dynstat_eta_sd               =   3.8107845110157E-01
(PID.TID 0000.0001) %MON dynstat_uvel_max             =   1.0866087199595E-01
(PID.TID 0000.0001) %MON dynstat_uvel_min             =  -8.0337958400366E-02
(PID.TID 0000.0001) %MON dynstat_uvel_mean            =  -5.7817844606806E-03
(PID.TID 0000.0001) %MON dynstat_uvel_sd              =   1.5215328024745E-02
(PID.TID 0000.0001) %MON dynstat_vvel_max             =   1.0404881497587E-01
(PID.TID 0000.0001) %MON dynstat_vvel_min             =  -1.0106295795649E-01
(PID.TID 0000.0001) %MON dynstat_vvel_mean            =   2.8647843186437E-03
(PID.TID 0000.0001) %MON dynstat_vvel_sd              =   1.7822354025364E-02
(PID.TID 0000.0001) %MON dynstat_wvel_max             =   2.3193527320602E-04
(PID.TID 0000.0001) %MON dynstat_wvel_min             =  -2.3386837643914E-04
(PID.TID 0000.0001) %MON dynstat_wvel_mean            =  -4.7565107017899E-06
(PID.TID 0000.0001) %MON dynstat_wvel_sd              =   3.8086382907642E-05
(PID.TID 0000.0001) %MON dynstat_theta_max            =   2.9508292455862E+01
(PID.TID 0000.0001) %MON dynstat_theta_min            =  -1.8995986974695E+00
(PID.TID 0000.0001) %MON dynstat_theta_mean           =   5.9759571161484E+00
(PID.TID 0000.0001) %MON dynstat_theta_sd             =   6.7429991192092E+00
(PID.TID 0000.0001) %MON dynstat_salt_max             =   3.7401931276520E+01
(PID.TID 0000.0001) %MON dynstat_salt_min             =   3.1347939045152E+01
(PID.TID 0000.0001) %MON dynstat_salt_mean            =   3.4722413031743E+01
(PID.TID 0000.0001) %MON dynstat_salt_sd              =   4.8187840435318E-01
(PID.TID 0000.0001) %MON advcfl_uvel_max              =   1.7145026580378E-02
(PID.TID 0000.0001) %MON advcfl_vvel_max              =   1.0107508003723E-02
(PID.TID 0000.0001) %MON advcfl_wvel_max              =   2.2736913156552E-01
(PID.TID 0000.0001) %MON advcfl_W_hf_max              =   2.1246137707606E-01
(PID.TID 0000.0001) %MON ke_max                       =   6.0824303086696E-03
(PID.TID 0000.0001) %MON ke_mean                      =   2.7386898478389E-04
(PID.TID 0000.0001) // =======================================================
(PID.TID 0000.0001) // End MONITOR dynamic field statistics
(PID.TID 0000.0001) // =======================================================
time,SST,SSS,fu,fv,Q,E-P,i0,i1,a,b =   4.7520E+05  0.0000E+00  0.0000E+00  0.0000E+00  0.0000E+00  1.5446E-01  0.0000E+00    12     1  6.8333E-01  3.1667E-01
time,fu0,fu1,fu =   4.7520E+05  0.0000E+00  0.0000E+00  0.0000E+00  6.8333E-01  3.1667E-01
 cg2d: Sum(rhs),rhsMax =  -2.38697950294409E-14  1.01422019371261E+01
(PID.TID 0000.0001)                    cg2d_init_res =    1.13274825182873E+00
(PID.TID 0000.0001)                       cg2d_iters =    29
(PID.TID 0000.0001)                         cg2d_res =    3.16395797516061E-18
(PID.TID 0000.0001) // =======================================================
(PID.TID 0000.0001) // Begin MONITOR dynamic field statistics
(PID.TID 0000.0001) // =======================================================
(PID.TID 0000.0001) %MON time_tsnumber                =                    12
(PID.TID 0000.0001) %MON time_secondsf                =   5.1840000000000E+05
(PID.TID 0000.0001) %MON time_secondsi                =                518400
(PID.TID 0000.0001) %MON dynstat_eta_max              =   1.0782017781012E+00
(PID.TID 0000.0001) %MON dynstat_eta_min              =  -1.1713213717585E+00
(PID.TID 0000.0001) %MON dynstat_eta_mean             =  -6.9427928914039E-02
(PID.TID 0000.0001) %MON dynstat_eta_sd               =   4.0303021760639E-01
(PID.TID 0000.0001) %MON dynstat_uvel_max             =   1.1758235375034E-01
(PID.TID 0000.0001) %MON dynstat_uvel_min             =  -8.6619088465376E-02
(PID.TID 0000.0001) %MON dynstat_uvel_mean            =  -5.9330306140967E-03
(PID.TID 0000.0001) %MON dynstat_uvel_sd              =   1.6670451376871E-02
(PID.TID 0000.0001) %MON dynstat_vvel_max             =   1.0664879678022E-01
(PID.TID 0000.0001) %MON dynstat_vvel_min             =  -1.0572035933289E-01
(PID.TID 0000.0001) %MON dynstat_vvel_mean            =   2.4473459711197E-03
(PID.TID 0000.0001) %MON dynstat_vvel_sd              =   1.8175045810987E-02
(PID.TID 0000.0001) %MON dynstat_wvel_max             =   2.4803146278544E-04
(PID.TID 0000.0001) %MON dynstat_wvel_min             =  -2.5372179011412E-04
(PID.TID 0000.0001) %MON dynstat_wvel_mean            =  -4.4078298053415E-06
(PID.TID 0000.0001) %MON dynstat_wvel_sd              =   3.6695983439271E-05
(PID.TID 0000.0001) %MON dynstat_theta_max            =   2.9500382360902E+01
(PID.TID 0000.0001) %MON dynstat_theta_min            =  -1.8995891103437E+00
(PID.TID 0000.0001) %MON dynstat_theta_mean           =   5.9734247625930E+00
(PID.TID 0000.0001) %MON dynstat_theta_sd             =   6.7359326646205E+00
(PID.TID 0000.0001) %MON dynstat_salt_max             =   3.7402448717673E+01
(PID.TID 0000.0001) %MON dynstat_salt_min             =   3.1317288824628E+01
(PID.TID 0000.0001) %MON dynstat_salt_mean            =   3.4722061971944E+01
(PID.TID 0000.0001) %MON dynstat_salt_sd              =   4.8220279586275E-01
(PID.TID 0000.0001) %MON advcfl_uvel_max              =   1.8552700189154E-02
(PID.TID 0000.0001) %MON advcfl_vvel_max              =   1.0360075386668E-02
(PID.TID 0000.0001) %MON advcfl_wvel_max              =   1.9508724507833E-01
(PID.TID 0000.0001) %MON advcfl_W_hf_max              =   1.9087925545128E-01
(PID.TID 0000.0001) %MON ke_max                       =   6.9651684164024E-03
(PID.TID 0000.0001) %MON ke_mean                      =   3.0131552916600E-04
(PID.TID 0000.0001) // =======================================================
(PID.TID 0000.0001) // End MONITOR dynamic field statistics
(PID.TID 0000.0001) // =======================================================
time,SST,SSS,fu,fv,Q,E-P,i0,i1,a,b =   5.1840E+05  0.0000E+00  0.0000E+00  0.0000E+00  0.0000E+00  1.4633E-01  0.0000E+00    12     1  7.0000E-01  3.0000E-01
time,fu0,fu1,fu =   5.1840E+05  0.0000E+00  0.0000E+00  0.0000E+00  7.0000E-01  3.0000E-01
 cg2d: Sum(rhs),rhsMax =  -4.20961876468340E-13  1.08259677670314E+01
(PID.TID 0000.0001)                    cg2d_init_res =    1.00187965833843E+00
(PID.TID 0000.0001)                       cg2d_iters =    29
(PID.TID 0000.0001)                         cg2d_res =    2.50291742078183E-18
(PID.TID 0000.0001) // =======================================================
(PID.TID 0000.0001) // Begin MONITOR dynamic field statistics
(PID.TID 0000.0001) // =======================================================
(PID.TID 0000.0001) %MON time_tsnumber                =                    13
(PID.TID 0000.0001) %MON time_secondsf                =   5.6160000000000E+05
(PID.TID 0000.0001) %MON time_secondsi                =                561600
(PID.TID 0000.0001) %MON dynstat_eta_max              =   1.1426775981384E+00
(PID.TID 0000.0001) %MON dynstat_eta_min              =  -1.2170518440465E+00
(PID.TID 0000.0001) %MON dynstat_eta_mean             =  -7.4106910361223E-02
(PID.TID 0000.0001) %MON dynstat_eta_sd               =   4.2036215007319E-01
(PID.TID 0000.0001) %MON dynstat_uvel_max             =   1.2567157996603E-01
(PID.TID 0000.0001) %MON dynstat_uvel_min             =  -9.2133142549182E-02
(PID.TID 0000.0001) %MON dynstat_uvel_mean            =  -5.9292917777320E-03
(PID.TID 0000.0001) %MON dynstat_uvel_sd              =   1.8081732062546E-02
(PID.TID 0000.0001) %MON dynstat_vvel_max             =   1.0864040321508E-01
(PID.TID 0000.0001) %MON dynstat_vvel_min             =  -1.0826796652234E-01
(PID.TID 0000.0001) %MON dynstat_vvel_mean            =   2.0220467896227E-03
(PID.TID 0000.0001) %MON dynstat_vvel_sd              =   1.8441478006906E-02
(PID.TID 0000.0001) %MON dynstat_wvel_max             =   2.6374470611771E-04
(PID.TID 0000.0001) %MON dynstat_wvel_min             =  -2.7241198812949E-04
(PID.TID 0000.0001) %MON dynstat_wvel_mean            =  -3.9711887059880E-06
(PID.TID 0000.0001) %MON dynstat_wvel_sd              =   3.5063586094481E-05
(PID.TID 0000.0001) %MON dynstat_theta_max            =   2.9484795924112E+01
(PID.TID 0000.0001) %MON dynstat_theta_min            =  -1.8995789515466E+00
(PID.TID 0000.0001) %MON dynstat_theta_mean           =   5.9712865741110E+00
(PID.TID 0000.0001) %MON dynstat_theta_sd             =   6.7292141965400E+00
(PID.TID 0000.0001) %MON dynstat_salt_max             =   3.7402969379263E+01
(PID.TID 0000.0001) %MON dynstat_salt_min             =   3.1292936451958E+01
(PID.TID 0000.0001) %MON dynstat_salt_mean            =   3.4721795437920E+01
(PID.TID 0000.0001) %MON dynstat_salt_sd              =   4.8245085187052E-01
(PID.TID 0000.0001) %MON advcfl_uvel_max              =   1.9829056580697E-02
(PID.TID 0000.0001) %MON advcfl_vvel_max              =   1.0553543981051E-02
(PID.TID 0000.0001) %MON advcfl_wvel_max              =   1.9488231941842E-01
(PID.TID 0000.0001) %MON advcfl_W_hf_max              =   1.8571667771180E-01
(PID.TID 0000.0001) %MON ke_max                       =   7.7843803191154E-03
(PID.TID 0000.0001) %MON ke_mean                      =   3.2795054891305E-04
(PID.TID 0000.0001) // =======================================================
(PID.TID 0000.0001) // End MONITOR dynamic field statistics
(PID.TID 0000.0001) // =======================================================
time,SST,SSS,fu,fv,Q,E-P,i0,i1,a,b =   5.6160E+05  0.0000E+00  0.0000E+00  0.0000E+00  0.0000E+00  1.3821E-01  0.0000E+00    12     1  7.1667E-01  2.8333E-01
time,fu0,fu1,fu =   5.6160E+05  0.0000E+00  0.0000E+00  0.0000E+00  7.1667E-01  2.8333E-01
 cg2d: Sum(rhs),rhsMax =  -5.56846235788555E-14  1.11450990674741E+01
(PID.TID 0000.0001)                    cg2d_init_res =    9.33962495218763E-01
(PID.TID 0000.0001)                       cg2d_iters =    28
(PID.TID 0000.0001)                         cg2d_res =    6.69232006235147E-18
(PID.TID 0000.0001) // =======================================================
(PID.TID 0000.0001) // Begin MONITOR dynamic field statistics
(PID.TID 0000.0001) // =======================================================
(PID.TID 0000.0001) %MON time_tsnumber                =                    14
(PID.TID 0000.0001) %MON time_secondsf                =   6.0480000000000E+05
(PID.TID 0000.0001) %MON time_secondsi                =                604800
(PID.TID 0000.0001) %MON dynstat_eta_max              =   1.1757537590122E+00
(PID.TID 0000.0001) %MON dynstat_eta_min              =  -1.2317904498976E+00
(PID.TID 0000.0001) %MON dynstat_eta_mean             =  -7.7933833549636E-02
(PID.TID 0000.0001) %MON dynstat_eta_sd               =   4.3306974144244E-01
(PID.TID 0000.0001) %MON dynstat_uvel_max             =   1.3278548436024E-01
(PID.TID 0000.0001) %MON dynstat_uvel_min             =  -9.6765889453187E-02
(PID.TID 0000.0001) %MON dynstat_uvel_mean            =  -5.7742630820716E-03
(PID.TID 0000.0001) %MON dynstat_uvel_sd              =   1.9440385338540E-02
(PID.TID 0000.0001) %MON dynstat_vvel_max             =   1.0954715758368E-01
(PID.TID 0000.0001) %MON dynstat_vvel_min             =  -1.0858592385873E-01
(PID.TID 0000.0001) %MON dynstat_vvel_mean            =   1.6182637962009E-03
(PID.TID 0000.0001) %MON dynstat_vvel_sd              =   1.8637215199581E-02
(PID.TID 0000.0001) %MON dynstat_wvel_max             =   2.7903714288929E-04
(PID.TID 0000.0001) %MON dynstat_wvel_min             =  -2.8680748543797E-04
(PID.TID 0000.0001) %MON dynstat_wvel_mean            =  -3.4755782332607E-06
(PID.TID 0000.0001) %MON dynstat_wvel_sd              =   3.3400352622502E-05
(PID.TID 0000.0001) %MON dynstat_theta_max            =   2.9460574121704E+01
(PID.TID 0000.0001) %MON dynstat_theta_min            =  -1.8995705101009E+00
(PID.TID 0000.0001) %MON dynstat_theta_mean           =   5.9695248223747E+00
(PID.TID 0000.0001) %MON dynstat_theta_sd             =   6.7229302489183E+00
(PID.TID 0000.0001) %MON dynstat_salt_max             =   3.7403467906352E+01
(PID.TID 0000.0001) %MON dynstat_salt_min             =   3.1274395378097E+01
(PID.TID 0000.0001) %MON dynstat_salt_mean            =   3.4721609593266E+01
(PID.TID 0000.0001) %MON dynstat_salt_sd              =   4.8263126088778E-01
(PID.TID 0000.0001) %MON advcfl_uvel_max              =   2.0951522079902E-02
(PID.TID 0000.0001) %MON advcfl_vvel_max              =   1.0641627896664E-02
(PID.TID 0000.0001) %MON advcfl_wvel_max              =   1.8376072427700E-01
(PID.TID 0000.0001) %MON advcfl_W_hf_max              =   1.7469635183462E-01
(PID.TID 0000.0001) %MON ke_max                       =   8.8184125088514E-03
(PID.TID 0000.0001) %MON ke_mean                      =   3.5371553871156E-04
(PID.TID 0000.0001) // =======================================================
(PID.TID 0000.0001) // End MONITOR dynamic field statistics
(PID.TID 0000.0001) // =======================================================
time,SST,SSS,fu,fv,Q,E-P,i0,i1,a,b =   6.0480E+05  0.0000E+00  0.0000E+00  0.0000E+00  0.0000E+00  1.3008E-01  0.0000E+00    12     1  7.3333E-01  2.6667E-01
time,fu0,fu1,fu =   6.0480E+05  0.0000E+00  0.0000E+00  0.0000E+00  7.3333E-01  2.6667E-01
 cg2d: Sum(rhs),rhsMax =  -1.39978306723521E-13  1.11323153044278E+01
(PID.TID 0000.0001)                    cg2d_init_res =    9.17200715641752E-01
(PID.TID 0000.0001)                       cg2d_iters =    28
(PID.TID 0000.0001)                         cg2d_res =    6.51966249290340E-18
(PID.TID 0000.0001) // =======================================================
(PID.TID 0000.0001) // Begin MONITOR dynamic field statistics
(PID.TID 0000.0001) // =======================================================
(PID.TID 0000.0001) %MON time_tsnumber                =                    15
(PID.TID 0000.0001) %MON time_secondsf                =   6.4800000000000E+05
(PID.TID 0000.0001) %MON time_secondsi                =                648000
(PID.TID 0000.0001) %MON dynstat_eta_max              =   1.1759224102543E+00
(PID.TID 0000.0001) %MON dynstat_eta_min              =  -1.2185927565545E+00
(PID.TID 0000.0001) %MON dynstat_eta_mean             =  -8.0915424023366E-02
(PID.TID 0000.0001) %MON dynstat_eta_sd               =   4.4140668483075E-01
(PID.TID 0000.0001) %MON dynstat_uvel_max             =   1.4156485608831E-01
(PID.TID 0000.0001) %MON dynstat_uvel_min             =  -1.0043354343953E-01
(PID.TID 0000.0001) %MON dynstat_uvel_mean            =  -5.4783956380379E-03
(PID.TID 0000.0001) %MON dynstat_uvel_sd              =   2.0736652565876E-02
(PID.TID 0000.0001) %MON dynstat_vvel_max             =   1.1022267459134E-01
(PID.TID 0000.0001) %MON dynstat_vvel_min             =  -1.1141314772885E-01
(PID.TID 0000.0001) %MON dynstat_vvel_mean            =   1.2608924748014E-03
(PID.TID 0000.0001) %MON dynstat_vvel_sd              =   1.8765983598505E-02
(PID.TID 0000.0001) %MON dynstat_wvel_max             =   2.9408982650441E-04
(PID.TID 0000.0001) %MON dynstat_wvel_min             =  -2.9657795587024E-04
(PID.TID 0000.0001) %MON dynstat_wvel_mean            =  -2.9484331572311E-06
(PID.TID 0000.0001) %MON dynstat_wvel_sd              =   3.1865145649686E-05
(PID.TID 0000.0001) %MON dynstat_theta_max            =   2.9427713859571E+01
(PID.TID 0000.0001) %MON dynstat_theta_min            =  -1.8995649617459E+00
(PID.TID 0000.0001) %MON dynstat_theta_mean           =   5.9681595285352E+00
(PID.TID 0000.0001) %MON dynstat_theta_sd             =   6.7171926940648E+00
(PID.TID 0000.0001) %MON dynstat_salt_max             =   3.7403907089286E+01
(PID.TID 0000.0001) %MON dynstat_salt_min             =   3.1261819475950E+01
(PID.TID 0000.0001) %MON dynstat_salt_mean            =   3.4721508397205E+01
(PID.TID 0000.0001) %MON dynstat_salt_sd              =   4.8273769505138E-01
(PID.TID 0000.0001) %MON advcfl_uvel_max              =   2.1897623755100E-02
(PID.TID 0000.0001) %MON advcfl_vvel_max              =   1.0822893875826E-02
(PID.TID 0000.0001) %MON advcfl_wvel_max              =   1.6380709471577E-01
(PID.TID 0000.0001) %MON advcfl_W_hf_max              =   1.5393469487395E-01
(PID.TID 0000.0001) %MON ke_max                       =   1.0042692297314E-02
(PID.TID 0000.0001) %MON ke_mean                      =   3.7836908097067E-04
(PID.TID 0000.0001) // =======================================================
(PID.TID 0000.0001) // End MONITOR dynamic field statistics
(PID.TID 0000.0001) // =======================================================
time,SST,SSS,fu,fv,Q,E-P,i0,i1,a,b =   6.4800E+05  0.0000E+00  0.0000E+00  0.0000E+00  0.0000E+00  1.2195E-01  0.0000E+00    12     1  7.5000E-01  2.5000E-01
time,fu0,fu1,fu =   6.4800E+05  0.0000E+00  0.0000E+00  0.0000E+00  7.5000E-01  2.5000E-01
 cg2d: Sum(rhs),rhsMax =  -1.21937182573362E-13  1.08400210326468E+01
(PID.TID 0000.0001)                    cg2d_init_res =    9.41557714165733E-01
(PID.TID 0000.0001)                       cg2d_iters =    28
(PID.TID 0000.0001)                         cg2d_res =    8.25205009839709E-18
(PID.TID 0000.0001) // =======================================================
(PID.TID 0000.0001) // Begin MONITOR dynamic field statistics
(PID.TID 0000.0001) // =======================================================
(PID.TID 0000.0001) %MON time_tsnumber                =                    16
(PID.TID 0000.0001) %MON time_secondsf                =   6.9120000000000E+05
(PID.TID 0000.0001) %MON time_secondsi                =                691200
(PID.TID 0000.0001) %MON dynstat_eta_max              =   1.1478177243218E+00
(PID.TID 0000.0001) %MON dynstat_eta_min              =  -1.1859316096316E+00
(PID.TID 0000.0001) %MON dynstat_eta_mean             =  -8.3092771088945E-02
(PID.TID 0000.0001) %MON dynstat_eta_sd               =   4.4582753344214E-01
(PID.TID 0000.0001) %MON dynstat_uvel_max             =   1.5068608555009E-01
(PID.TID 0000.0001) %MON dynstat_uvel_min             =  -1.0307360492998E-01
(PID.TID 0000.0001) %MON dynstat_uvel_mean            =  -5.0575827547393E-03
(PID.TID 0000.0001) %MON dynstat_uvel_sd              =   2.1959572642830E-02
(PID.TID 0000.0001) %MON dynstat_vvel_max             =   1.1057712866309E-01
(PID.TID 0000.0001) %MON dynstat_vvel_min             =  -1.1368343650400E-01
(PID.TID 0000.0001) %MON dynstat_vvel_mean            =   9.6981497971560E-04
(PID.TID 0000.0001) %MON dynstat_vvel_sd              =   1.8823884203560E-02
(PID.TID 0000.0001) %MON dynstat_wvel_max             =   3.0893515369319E-04
(PID.TID 0000.0001) %MON dynstat_wvel_min             =  -3.0148462348746E-04
(PID.TID 0000.0001) %MON dynstat_wvel_mean            =  -2.4142486731540E-06
(PID.TID 0000.0001) %MON dynstat_wvel_sd              =   3.0541478531386E-05
(PID.TID 0000.0001) %MON dynstat_theta_max            =   2.9387261355567E+01
(PID.TID 0000.0001) %MON dynstat_theta_min            =  -1.8995625080363E+00
(PID.TID 0000.0001) %MON dynstat_theta_mean           =   5.9671899784289E+00
(PID.TID 0000.0001) %MON dynstat_theta_sd             =   6.7120852908131E+00
(PID.TID 0000.0001) %MON dynstat_salt_max             =   3.7404252795162E+01
(PID.TID 0000.0001) %MON dynstat_salt_min             =   3.1256159787264E+01
(PID.TID 0000.0001) %MON dynstat_salt_mean            =   3.4721486131298E+01
(PID.TID 0000.0001) %MON dynstat_salt_sd              =   4.8277545636031E-01
(PID.TID 0000.0001) %MON advcfl_uvel_max              =   2.2645479814676E-02
(PID.TID 0000.0001) %MON advcfl_vvel_max              =   1.1043434224804E-02
(PID.TID 0000.0001) %MON advcfl_wvel_max              =   1.5011597752594E-01
(PID.TID 0000.0001) %MON advcfl_W_hf_max              =   1.4985766679729E-01
(PID.TID 0000.0001) %MON ke_max                       =   1.1252425491301E-02
(PID.TID 0000.0001) %MON ke_mean                      =   4.0153060138081E-04
(PID.TID 0000.0001) // =======================================================
(PID.TID 0000.0001) // End MONITOR dynamic field statistics
(PID.TID 0000.0001) // =======================================================
time,SST,SSS,fu,fv,Q,E-P,i0,i1,a,b =   6.9120E+05  0.0000E+00  0.0000E+00  0.0000E+00  0.0000E+00  1.1382E-01  0.0000E+00    12     1  7.6667E-01  2.3333E-01
time,fu0,fu1,fu =   6.9120E+05  0.0000E+00  0.0000E+00  0.0000E+00  7.6667E-01  2.3333E-01
 cg2d: Sum(rhs),rhsMax =   1.91527349535647E-13  1.07135718748253E+01
(PID.TID 0000.0001)                    cg2d_init_res =    9.61453178391819E-01
(PID.TID 0000.0001)                       cg2d_iters =    28
(PID.TID 0000.0001)                         cg2d_res =    6.53488626625927E-18
(PID.TID 0000.0001) // =======================================================
(PID.TID 0000.0001) // Begin MONITOR dynamic field statistics
(PID.TID 0000.0001) // =======================================================
(PID.TID 0000.0001) %MON time_tsnumber                =                    17
(PID.TID 0000.0001) %MON time_secondsf                =   7.3440000000000E+05
(PID.TID 0000.0001) %MON time_secondsi                =                734400
(PID.TID 0000.0001) %MON dynstat_eta_max              =   1.0968712303585E+00
(PID.TID 0000.0001) %MON dynstat_eta_min              =  -1.1695600196893E+00
(PID.TID 0000.0001) %MON dynstat_eta_mean             =  -8.4534276030431E-02
(PID.TID 0000.0001) %MON dynstat_eta_sd               =   4.4691532303683E-01
(PID.TID 0000.0001) %MON dynstat_uvel_max             =   1.5904681166233E-01
(PID.TID 0000.0001) %MON dynstat_uvel_min             =  -1.0465202420829E-01
(PID.TID 0000.0001) %MON dynstat_uvel_mean            =  -4.5318570101712E-03
(PID.TID 0000.0001) %MON dynstat_uvel_sd              =   2.3096967788278E-02
(PID.TID 0000.0001) %MON dynstat_vvel_max             =   1.0986420201680E-01
(PID.TID 0000.0001) %MON dynstat_vvel_min             =  -1.1439765377403E-01
(PID.TID 0000.0001) %MON dynstat_vvel_mean            =   7.5991172371520E-04
(PID.TID 0000.0001) %MON dynstat_vvel_sd              =   1.8805666344274E-02
(PID.TID 0000.0001) %MON dynstat_wvel_max             =   3.2336510844600E-04
(PID.TID 0000.0001) %MON dynstat_wvel_min             =  -3.0144003038466E-04
(PID.TID 0000.0001) %MON dynstat_wvel_mean            =  -1.8937993224093E-06
(PID.TID 0000.0001) %MON dynstat_wvel_sd              =   2.9443132297288E-05
(PID.TID 0000.0001) %MON dynstat_theta_max            =   2.9341106699716E+01
(PID.TID 0000.0001) %MON dynstat_theta_min            =  -1.8995627284250E+00
(PID.TID 0000.0001) %MON dynstat_theta_mean           =   5.9665842335764E+00
(PID.TID 0000.0001) %MON dynstat_theta_sd             =   6.7076793278542E+00
(PID.TID 0000.0001) %MON dynstat_salt_max             =   3.7404482673276E+01
(PID.TID 0000.0001) %MON dynstat_salt_min             =   3.1258981066993E+01
(PID.TID 0000.0001) %MON dynstat_salt_mean            =   3.4721534393035E+01
(PID.TID 0000.0001) %MON dynstat_salt_sd              =   4.8275974761765E-01
(PID.TID 0000.0001) %MON advcfl_uvel_max              =   2.3174369761972E-02
(PID.TID 0000.0001) %MON advcfl_vvel_max              =   1.1112814705254E-02
(PID.TID 0000.0001) %MON advcfl_wvel_max              =   1.7432173173111E-01
(PID.TID 0000.0001) %MON advcfl_W_hf_max              =   1.7398901586416E-01
(PID.TID 0000.0001) %MON ke_max                       =   1.2417546207457E-02
(PID.TID 0000.0001) %MON ke_mean                      =   4.2277145768503E-04
(PID.TID 0000.0001) // =======================================================
(PID.TID 0000.0001) // End MONITOR dynamic field statistics
(PID.TID 0000.0001) // =======================================================
time,SST,SSS,fu,fv,Q,E-P,i0,i1,a,b =   7.3440E+05  0.0000E+00  0.0000E+00  0.0000E+00  0.0000E+00  1.0569E-01  0.0000E+00    12     1  7.8333E-01  2.1667E-01
time,fu0,fu1,fu =   7.3440E+05  0.0000E+00  0.0000E+00  0.0000E+00  7.8333E-01  2.1667E-01
 cg2d: Sum(rhs),rhsMax =  -9.32795507502249E-14  1.06869729349167E+01
(PID.TID 0000.0001)                    cg2d_init_res =    9.72232045041589E-01
(PID.TID 0000.0001)                       cg2d_iters =    28
(PID.TID 0000.0001)                         cg2d_res =    8.37867452958747E-18
(PID.TID 0000.0001) // =======================================================
(PID.TID 0000.0001) // Begin MONITOR dynamic field statistics
(PID.TID 0000.0001) // =======================================================
(PID.TID 0000.0001) %MON time_tsnumber                =                    18
(PID.TID 0000.0001) %MON time_secondsf                =   7.7760000000000E+05
(PID.TID 0000.0001) %MON time_secondsi                =                777600
(PID.TID 0000.0001) %MON dynstat_eta_max              =   1.0754255663442E+00
(PID.TID 0000.0001) %MON dynstat_eta_min              =  -1.1606072890982E+00
(PID.TID 0000.0001) %MON dynstat_eta_mean             =  -8.5328599217471E-02
(PID.TID 0000.0001) %MON dynstat_eta_sd               =   4.4531026009918E-01
(PID.TID 0000.0001) %MON dynstat_uvel_max             =   1.6644499889797E-01
(PID.TID 0000.0001) %MON dynstat_uvel_min             =  -1.0516993596103E-01
(PID.TID 0000.0001) %MON dynstat_uvel_mean            =  -3.9240604487805E-03
(PID.TID 0000.0001) %MON dynstat_uvel_sd              =   2.4135481372233E-02
(PID.TID 0000.0001) %MON dynstat_vvel_max             =   1.0786532179070E-01
(PID.TID 0000.0001) %MON dynstat_vvel_min             =  -1.1350861917104E-01
(PID.TID 0000.0001) %MON dynstat_vvel_mean            =   6.4128950339184E-04
(PID.TID 0000.0001) %MON dynstat_vvel_sd              =   1.8711041590694E-02
(PID.TID 0000.0001) %MON dynstat_wvel_max             =   3.3704005459125E-04
(PID.TID 0000.0001) %MON dynstat_wvel_min             =  -3.0651186752497E-04
(PID.TID 0000.0001) %MON dynstat_wvel_mean            =  -1.4038100281137E-06
(PID.TID 0000.0001) %MON dynstat_wvel_sd              =   2.8538916899103E-05
(PID.TID 0000.0001) %MON dynstat_theta_max            =   2.9291621616079E+01
(PID.TID 0000.0001) %MON dynstat_theta_min            =  -1.8995649568536E+00
(PID.TID 0000.0001) %MON dynstat_theta_mean           =   5.9663153355465E+00
(PID.TID 0000.0001) %MON dynstat_theta_sd             =   6.7040236755676E+00
(PID.TID 0000.0001) %MON dynstat_salt_max             =   3.7404586923308E+01
(PID.TID 0000.0001) %MON dynstat_salt_min             =   3.1272009502972E+01
(PID.TID 0000.0001) %MON dynstat_salt_mean            =   3.4721643528979E+01
(PID.TID 0000.0001) %MON dynstat_salt_sd              =   4.8270051655331E-01
(PID.TID 0000.0001) %MON advcfl_uvel_max              =   2.3465506059718E-02
(PID.TID 0000.0001) %MON advcfl_vvel_max              =   1.1026452122773E-02
(PID.TID 0000.0001) %MON advcfl_wvel_max              =   1.8783633521785E-01
(PID.TID 0000.0001) %MON advcfl_W_hf_max              =   1.8900153031664E-01
(PID.TID 0000.0001) %MON ke_max                       =   1.3511538631309E-02
(PID.TID 0000.0001) %MON ke_mean                      =   4.4171160774400E-04
(PID.TID 0000.0001) // =======================================================
(PID.TID 0000.0001) // End MONITOR dynamic field statistics
(PID.TID 0000.0001) // =======================================================
time,SST,SSS,fu,fv,Q,E-P,i0,i1,a,b =   7.7760E+05  0.0000E+00  0.0000E+00  0.0000E+00  0.0000E+00  9.7557E-02  0.0000E+00    12     1  8.0000E-01  2.0000E-01
time,fu0,fu1,fu =   7.7760E+05  0.0000E+00  0.0000E+00  0.0000E+00  8.0000E-01  2.0000E-01
 cg2d: Sum(rhs),rhsMax =   1.21097576410989E-13  1.04540754339682E+01
(PID.TID 0000.0001)                    cg2d_init_res =    9.94997084757156E-01
(PID.TID 0000.0001)                       cg2d_iters =    28
(PID.TID 0000.0001)                         cg2d_res =    8.71477007551863E-18
(PID.TID 0000.0001) // =======================================================
(PID.TID 0000.0001) // Begin MONITOR dynamic field statistics
(PID.TID 0000.0001) // =======================================================
(PID.TID 0000.0001) %MON time_tsnumber                =                    19
(PID.TID 0000.0001) %MON time_secondsf                =   8.2080000000000E+05
(PID.TID 0000.0001) %MON time_secondsi                =                820800
(PID.TID 0000.0001) %MON dynstat_eta_max              =   1.0502797486245E+00
(PID.TID 0000.0001) %MON dynstat_eta_min              =  -1.1478296712184E+00
(PID.TID 0000.0001) %MON dynstat_eta_mean             =  -8.5578005105547E-02
(PID.TID 0000.0001) %MON dynstat_eta_sd               =   4.4165101382659E-01
(PID.TID 0000.0001) %MON dynstat_uvel_max             =   1.7268529389622E-01
(PID.TID 0000.0001) %MON dynstat_uvel_min             =  -1.0535672170070E-01
(PID.TID 0000.0001) %MON dynstat_uvel_mean            =  -3.2586172796685E-03
(PID.TID 0000.0001) %MON dynstat_uvel_sd              =   2.5060703245555E-02
(PID.TID 0000.0001) %MON dynstat_vvel_max             =   1.0563083128467E-01
(PID.TID 0000.0001) %MON dynstat_vvel_min             =  -1.1099636466183E-01
(PID.TID 0000.0001) %MON dynstat_vvel_mean            =   6.1960200178630E-04
(PID.TID 0000.0001) %MON dynstat_vvel_sd              =   1.8549391616546E-02
(PID.TID 0000.0001) %MON dynstat_wvel_max             =   3.4960303530863E-04
(PID.TID 0000.0001) %MON dynstat_wvel_min             =  -3.1589436252250E-04
(PID.TID 0000.0001) %MON dynstat_wvel_mean            =  -9.5698809004553E-07
(PID.TID 0000.0001) %MON dynstat_wvel_sd              =   2.7783574233342E-05
(PID.TID 0000.0001) %MON dynstat_theta_max            =   2.9258143732293E+01
(PID.TID 0000.0001) %MON dynstat_theta_min            =  -1.8995685526495E+00
(PID.TID 0000.0001) %MON dynstat_theta_mean           =   5.9663538281628E+00
(PID.TID 0000.0001) %MON dynstat_theta_sd             =   6.7011485565711E+00
(PID.TID 0000.0001) %MON dynstat_salt_max             =   3.7404565253065E+01
(PID.TID 0000.0001) %MON dynstat_salt_min             =   3.1296533568485E+01
(PID.TID 0000.0001) %MON dynstat_salt_mean            =   3.4721800258172E+01
(PID.TID 0000.0001) %MON dynstat_salt_sd              =   4.8261407420251E-01
(PID.TID 0000.0001) %MON advcfl_uvel_max              =   2.3617598231575E-02
(PID.TID 0000.0001) %MON advcfl_vvel_max              =   1.0782406743063E-02
(PID.TID 0000.0001) %MON advcfl_wvel_max              =   1.8924198583722E-01
(PID.TID 0000.0001) %MON advcfl_W_hf_max              =   1.9199705836084E-01
(PID.TID 0000.0001) %MON ke_max                       =   1.4512312804327E-02
(PID.TID 0000.0001) %MON ke_mean                      =   4.5808978036985E-04
(PID.TID 0000.0001) // =======================================================
(PID.TID 0000.0001) // End MONITOR dynamic field statistics
(PID.TID 0000.0001) // =======================================================
time,SST,SSS,fu,fv,Q,E-P,i0,i1,a,b =   8.2080E+05  0.0000E+00  0.0000E+00  0.0000E+00  0.0000E+00  8.9427E-02  0.0000E+00    12     1  8.1667E-01  1.8333E-01
time,fu0,fu1,fu =   8.2080E+05  0.0000E+00  0.0000E+00  0.0000E+00  8.1667E-01  1.8333E-01
 cg2d: Sum(rhs),rhsMax =  -2.73198130784635E-13  9.92029359373593E+00
(PID.TID 0000.0001)                    cg2d_init_res =    1.03872209334903E+00
(PID.TID 0000.0001)                       cg2d_iters =    28
(PID.TID 0000.0001)                         cg2d_res =    9.59935386487768E-18
(PID.TID 0000.0001) // =======================================================
(PID.TID 0000.0001) // Begin MONITOR dynamic field statistics
(PID.TID 0000.0001) // =======================================================
(PID.TID 0000.0001) %MON time_tsnumber                =                    20
(PID.TID 0000.0001) %MON time_secondsf                =   8.6400000000000E+05
(PID.TID 0000.0001) %MON time_secondsi                =                864000
(PID.TID 0000.0001) %MON dynstat_eta_max              =   9.9623581106884E-01
(PID.TID 0000.0001) %MON dynstat_eta_min              =  -1.1195253943599E+00
(PID.TID 0000.0001) %MON dynstat_eta_mean             =  -8.5392269370415E-02
(PID.TID 0000.0001) %MON dynstat_eta_sd               =   4.3653479520114E-01
(PID.TID 0000.0001) %MON dynstat_uvel_max             =   1.7758433858647E-01
(PID.TID 0000.0001) %MON dynstat_uvel_min             =  -1.0544304814696E-01
(PID.TID 0000.0001) %MON dynstat_uvel_mean            =  -2.5604606576195E-03
(PID.TID 0000.0001) %MON dynstat_uvel_sd              =   2.5857575399422E-02
(PID.TID 0000.0001) %MON dynstat_vvel_max             =   1.1030931789880E-01
(PID.TID 0000.0001) %MON dynstat_vvel_min             =  -1.1282785774636E-01
(PID.TID 0000.0001) %MON dynstat_vvel_mean            =   6.9635411851049E-04
(PID.TID 0000.0001) %MON dynstat_vvel_sd              =   1.8341875926541E-02
(PID.TID 0000.0001) %MON dynstat_wvel_max             =   3.6072737493848E-04
(PID.TID 0000.0001) %MON dynstat_wvel_min             =  -3.2423190084625E-04
(PID.TID 0000.0001) %MON dynstat_wvel_mean            =  -5.6227635850977E-07
(PID.TID 0000.0001) %MON dynstat_wvel_sd              =   2.7143685219005E-05
(PID.TID 0000.0001) %MON dynstat_theta_max            =   2.9242272736956E+01
(PID.TID 0000.0001) %MON dynstat_theta_min            =  -1.8995730242144E+00
(PID.TID 0000.0001) %MON dynstat_theta_mean           =   5.9666510316617E+00
(PID.TID 0000.0001) %MON dynstat_theta_sd             =   6.6990550186296E+00
(PID.TID 0000.0001) %MON dynstat_salt_max             =   3.7404423793640E+01
(PID.TID 0000.0001) %MON dynstat_salt_min             =   3.1332811807622E+01
(PID.TID 0000.0001) %MON dynstat_salt_mean            =   3.4721992774375E+01
(PID.TID 0000.0001) %MON dynstat_salt_sd              =   4.8251060131651E-01
(PID.TID 0000.0001) %MON advcfl_uvel_max              =   2.4150778425352E-02
(PID.TID 0000.0001) %MON advcfl_vvel_max              =   1.0960321609417E-02
(PID.TID 0000.0001) %MON advcfl_wvel_max              =   1.8072687197579E-01
(PID.TID 0000.0001) %MON advcfl_W_hf_max              =   1.8394850435953E-01
(PID.TID 0000.0001) %MON ke_max                       =   1.5402403271899E-02
(PID.TID 0000.0001) %MON ke_mean                      =   4.7179253576680E-04
(PID.TID 0000.0001) // =======================================================
(PID.TID 0000.0001) // End MONITOR dynamic field statistics
(PID.TID 0000.0001) // =======================================================
(PID.TID 0000.0001)   Seconds in section "ALL                [THE_MODEL_MAIN]":
(PID.TID 0000.0001)           User time:  24.5300007
(PID.TID 0000.0001)         System time:  0.150000006
(PID.TID 0000.0001)     Wall clock time:  24.9043969
(PID.TID 0000.0001)          No. starts: 1
(PID.TID 0000.0001)           No. stops: 1
(PID.TID 0000.0001)   Seconds in section "INITIALISE_FIXED   [THE_MODEL_MAIN]":
(PID.TID 0000.0001)           User time:  0.270000011
(PID.TID 0000.0001)         System time:  0.0299999993
(PID.TID 0000.0001)     Wall clock time:  0.291032076
(PID.TID 0000.0001)          No. starts: 1
(PID.TID 0000.0001)           No. stops: 1
(PID.TID 0000.0001)   Seconds in section "THE_MAIN_LOOP      [THE_MODEL_MAIN]":
(PID.TID 0000.0001)           User time:  23.8400006
(PID.TID 0000.0001)         System time:  0.0700000022
(PID.TID 0000.0001)     Wall clock time:  24.14035
(PID.TID 0000.0001)          No. starts: 1
(PID.TID 0000.0001)           No. stops: 1
(PID.TID 0000.0001)   Seconds in section "INITIALISE_VARIA    [THE_MAIN_LOOP]":
(PID.TID 0000.0001)           User time:  0.219999999
(PID.TID 0000.0001)         System time:  0.0299999993
(PID.TID 0000.0001)     Wall clock time:  0.252784014
(PID.TID 0000.0001)          No. starts: 1
(PID.TID 0000.0001)           No. stops: 1
(PID.TID 0000.0001)   Seconds in section "WRITE_STATE         [THE_MAIN_LOOP]":
(PID.TID 0000.0001)           User time:  0.0699999928
(PID.TID 0000.0001)         System time:  0.
(PID.TID 0000.0001)     Wall clock time:  0.0754990578
(PID.TID 0000.0001)          No. starts: 1
(PID.TID 0000.0001)           No. stops: 1
(PID.TID 0000.0001)   Seconds in section "MONITOR             [THE_MAIN_LOOP]":
(PID.TID 0000.0001)           User time:  0.0600000024
(PID.TID 0000.0001)         System time:  0.
(PID.TID 0000.0001)     Wall clock time:  0.0523530245
(PID.TID 0000.0001)          No. starts: 1
(PID.TID 0000.0001)           No. stops: 1
(PID.TID 0000.0001)   Seconds in section "MAIN LOOP           [THE_MAIN_LOOP]":
(PID.TID 0000.0001)           User time:  23.4900006
(PID.TID 0000.0001)         System time:  0.0400000028
(PID.TID 0000.0001)     Wall clock time:  23.7593371
(PID.TID 0000.0001)          No. starts: 1
(PID.TID 0000.0001)           No. stops: 1
(PID.TID 0000.0001)   Seconds in section "FORWARD_STEP        [THE_MAIN_LOOP]":
(PID.TID 0000.0001)           User time:  23.4900006
(PID.TID 0000.0001)         System time:  0.0400000028
(PID.TID 0000.0001)     Wall clock time:  23.7578479
(PID.TID 0000.0001)          No. starts: 20
(PID.TID 0000.0001)           No. stops: 20
(PID.TID 0000.0001)   Seconds in section "EXTERNAL_FIELDS_LOAD[THE_MAIN_LOOP]":
(PID.TID 0000.0001)           User time:  0.0700013638
(PID.TID 0000.0001)         System time:  0.
(PID.TID 0000.0001)     Wall clock time:  0.0559608936
(PID.TID 0000.0001)          No. starts: 20
(PID.TID 0000.0001)           No. stops: 20
(PID.TID 0000.0001)   Seconds in section "THERMODYNAMICS      [THE_MAIN_LOOP]":
(PID.TID 0000.0001)           User time:  8.96999335
(PID.TID 0000.0001)         System time:  0.0300000049
(PID.TID 0000.0001)     Wall clock time:  9.07435989
(PID.TID 0000.0001)          No. starts: 20
(PID.TID 0000.0001)           No. stops: 20
(PID.TID 0000.0001)   Seconds in section "DYNAMICS            [THE_MAIN_LOOP]":
(PID.TID 0000.0001)           User time:  10.3200014
(PID.TID 0000.0001)         System time:  0.
(PID.TID 0000.0001)     Wall clock time:  10.4522471
(PID.TID 0000.0001)          No. starts: 20
(PID.TID 0000.0001)           No. stops: 20
(PID.TID 0000.0001)   Seconds in section "SOLVE_FOR_PRESSURE  [THE_MAIN_LOOP]":
(PID.TID 0000.0001)           User time:  1.40999961
(PID.TID 0000.0001)         System time:  0.00999999791
(PID.TID 0000.0001)     Wall clock time:  1.43456042
(PID.TID 0000.0001)          No. starts: 20
(PID.TID 0000.0001)           No. stops: 20
(PID.TID 0000.0001)   Seconds in section "THE_CORRECTION_STEP [THE_MAIN_LOOP]":
(PID.TID 0000.0001)           User time:  1.14000714
(PID.TID 0000.0001)         System time:  0.
(PID.TID 0000.0001)     Wall clock time:  1.13538086
(PID.TID 0000.0001)          No. starts: 20
(PID.TID 0000.0001)           No. stops: 20
(PID.TID 0000.0001)   Seconds in section "BLOCKING_EXCHANGES  [THE_MAIN_LOOP]":
(PID.TID 0000.0001)           User time:  0.17000103
(PID.TID 0000.0001)         System time:  0.
(PID.TID 0000.0001)     Wall clock time:  0.149593592
(PID.TID 0000.0001)          No. starts: 20
(PID.TID 0000.0001)           No. stops: 20
(PID.TID 0000.0001)   Seconds in section "DO_THE_MODEL_IO     [THE_MAIN_LOOP]":
(PID.TID 0000.0001)           User time:  0.0799999237
(PID.TID 0000.0001)         System time:  0.
(PID.TID 0000.0001)     Wall clock time:  0.0815740824
(PID.TID 0000.0001)          No. starts: 20
(PID.TID 0000.0001)           No. stops: 20
(PID.TID 0000.0001)   Seconds in section "WRITE_CHECKPOINT    [THE_MAIN_LOOP]":
(PID.TID 0000.0001)           User time:  0.
(PID.TID 0000.0001)         System time:  0.
(PID.TID 0000.0001)     Wall clock time:  0.00144302845
(PID.TID 0000.0001)          No. starts: 20
(PID.TID 0000.0001)           No. stops: 20
(PID.TID 0000.0001)   Seconds in section "WRITE_CHECKPOINT   [THE_MODEL_MAIN]":
(PID.TID 0000.0001)           User time:  0.420000076
(PID.TID 0000.0001)         System time:  0.0500000045
(PID.TID 0000.0001)     Wall clock time:  0.472688913
(PID.TID 0000.0001)          No. starts: 1
(PID.TID 0000.0001)           No. stops: 1
(PID.TID 0000.0001) // ======================================================
(PID.TID 0000.0001) // Tile <-> Tile communication statistics
(PID.TID 0000.0001) // ======================================================
(PID.TID 0000.0001) // o Tile number: 000001
(PID.TID 0000.0001) //         No. X exchanges =              0
(PID.TID 0000.0001) //            Max. X spins =              0
(PID.TID 0000.0001) //            Min. X spins =     1000000000
(PID.TID 0000.0001) //          Total. X spins =              0
(PID.TID 0000.0001) //            Avg. X spins =       0.00E+00
(PID.TID 0000.0001) //         No. Y exchanges =              0
(PID.TID 0000.0001) //            Max. Y spins =              0
(PID.TID 0000.0001) //            Min. Y spins =     1000000000
(PID.TID 0000.0001) //          Total. Y spins =              0
(PID.TID 0000.0001) //            Avg. Y spins =       0.00E+00
(PID.TID 0000.0001) // o Thread number: 000001
(PID.TID 0000.0001) //            No. barriers =          11328
(PID.TID 0000.0001) //      Max. barrier spins =              1
(PID.TID 0000.0001) //      Min. barrier spins =              1
(PID.TID 0000.0001) //     Total barrier spins =          11328
(PID.TID 0000.0001) //      Avg. barrier spins =       1.00E+00
