(PID.TID 0000.0001) 
(PID.TID 0000.0001) // ======================================================
(PID.TID 0000.0001) //                      MITgcm UV
(PID.TID 0000.0001) //                      =========
(PID.TID 0000.0001) // ======================================================
(PID.TID 0000.0001) // execution environment starting up...
(PID.TID 0000.0001) 
(PID.TID 0000.0001) // MITgcmUV version:  checkpoint56a_post
(PID.TID 0000.0001) // Build user:        mlosch
(PID.TID 0000.0001) // Build host:        faulks
(PID.TID 0000.0001) // Build date:        Sun Nov 28 19:16:25 EST 2004
(PID.TID 0000.0001) 
(PID.TID 0000.0001) // =======================================================
(PID.TID 0000.0001) // Execution Environment parameter file "eedata"
(PID.TID 0000.0001) // =======================================================
(PID.TID 0000.0001) ># Example "eedata" file
(PID.TID 0000.0001) ># Lines beginning "#" are comments
(PID.TID 0000.0001) ># nTx - No. threads per process in X
(PID.TID 0000.0001) ># nTy - No. threads per process in Y
(PID.TID 0000.0001) > &EEPARMS
(PID.TID 0000.0001) > nTx=1,nTy=1
(PID.TID 0000.0001) > &
(PID.TID 0000.0001) ># Note: Some systems use & as the
(PID.TID 0000.0001) ># namelist terminator. Other systems
(PID.TID 0000.0001) ># use a / character (as shown here).
(PID.TID 0000.0001) 
(PID.TID 0000.0001) // =======================================================
(PID.TID 0000.0001) // Computational Grid Specification ( see files "SIZE.h" )
(PID.TID 0000.0001) //                                  ( and "eedata"       )
(PID.TID 0000.0001) // =======================================================
(PID.TID 0000.0001)      nPx =    1 ; /* No. processes in X */
(PID.TID 0000.0001)      nPy =    1 ; /* No. processes in Y */
(PID.TID 0000.0001)      nSx =    2 ; /* No. tiles in X per process */
(PID.TID 0000.0001)      nSy =    1 ; /* No. tiles in Y per process */
(PID.TID 0000.0001)      sNx =   45 ; /* Tile size in X */
(PID.TID 0000.0001)      sNy =   40 ; /* Tile size in Y */
(PID.TID 0000.0001)      OLx =    2 ; /* Tile overlap distance in X */
(PID.TID 0000.0001)      OLy =    2 ; /* Tile overlap distance in Y */
(PID.TID 0000.0001)      nTx =    1 ; /* No. threads in X per process */
(PID.TID 0000.0001)      nTy =    1 ; /* No. threads in Y per process */
(PID.TID 0000.0001)       Nr =   15 ; /* No. levels in the vertical   */
(PID.TID 0000.0001)       nX =   90 ; /* Total domain size in X ( = nPx*nSx*sNx ) */
(PID.TID 0000.0001)       nY =   40 ; /* Total domain size in Y ( = nPy*nSy*sNy ) */
(PID.TID 0000.0001)   nTiles =    2 ; /* Total no. tiles per process ( = nSx*nSy ) */
(PID.TID 0000.0001)   nProcs =    1 ; /* Total no. processes ( = nPx*nPy ) */
(PID.TID 0000.0001) nThreads =    1 ; /* Total no. threads per process ( = nTx*nTy ) */
(PID.TID 0000.0001) usingMPI =    F ; /* Flag used to control whether MPI is in use */
(PID.TID 0000.0001)                   /*  note: To execute a program with MPI calls */
(PID.TID 0000.0001)                   /*  it must be launched appropriately e.g     */
(PID.TID 0000.0001)                   /*  "mpirun -np 64 ......"                    */
(PID.TID 0000.0001) useCoupler=   F ; /* Flag used to control communications with */
(PID.TID 0000.0001)                   /*  other model components, through a coupler */
(PID.TID 0000.0001) 
(PID.TID 0000.0001) // ======================================================
(PID.TID 0000.0001) // Mapping of tiles to threads
(PID.TID 0000.0001) // ======================================================
(PID.TID 0000.0001) // -o- Thread   1, tiles (   1:   2,   1:   1)
(PID.TID 0000.0001) 
(PID.TID 0000.0001) // ======================================================
(PID.TID 0000.0001) // Tile <-> Tile connectvity table
(PID.TID 0000.0001) // ======================================================
(PID.TID 0000.0001) // Tile number: 000001 (process no. = 000001)
(PID.TID 0000.0001) //        WEST: Tile = 000002, Process = 000001, Comm = put
(PID.TID 0000.0001) //                bi = 000002, bj = 000001
(PID.TID 0000.0001) //        EAST: Tile = 000002, Process = 000001, Comm = put
(PID.TID 0000.0001) //                bi = 000002, bj = 000001
(PID.TID 0000.0001) //       SOUTH: Tile = 000001, Process = 000001, Comm = put
(PID.TID 0000.0001) //                bi = 000001, bj = 000001
(PID.TID 0000.0001) //       NORTH: Tile = 000001, Process = 000001, Comm = put
(PID.TID 0000.0001) //                bi = 000001, bj = 000001
(PID.TID 0000.0001) // Tile number: 000002 (process no. = 000001)
(PID.TID 0000.0001) //        WEST: Tile = 000001, Process = 000001, Comm = put
(PID.TID 0000.0001) //                bi = 000001, bj = 000001
(PID.TID 0000.0001) //        EAST: Tile = 000001, Process = 000001, Comm = put
(PID.TID 0000.0001) //                bi = 000001, bj = 000001
(PID.TID 0000.0001) //       SOUTH: Tile = 000002, Process = 000001, Comm = put
(PID.TID 0000.0001) //                bi = 000002, bj = 000001
(PID.TID 0000.0001) //       NORTH: Tile = 000002, Process = 000001, Comm = put
(PID.TID 0000.0001) //                bi = 000002, bj = 000001
(PID.TID 0000.0001) 
(PID.TID 0000.0001) // =======================================================
(PID.TID 0000.0001) // Model parameter file "data"
(PID.TID 0000.0001) // =======================================================
(PID.TID 0000.0001) ># ====================
(PID.TID 0000.0001) ># | Model parameters |
(PID.TID 0000.0001) ># ====================
(PID.TID 0000.0001) >#
(PID.TID 0000.0001) ># Continuous equation parameters
(PID.TID 0000.0001) > &PARM01
(PID.TID 0000.0001) > tRef = 15*20.,
(PID.TID 0000.0001) > sRef = 15*35.,
(PID.TID 0000.0001) > viscAr=1.E-3,
(PID.TID 0000.0001) > viscAh=5.E5,
(PID.TID 0000.0001) > diffKhT=0.0,
(PID.TID 0000.0001) > diffKrT=3.E-5,
(PID.TID 0000.0001) > diffKhS=0.0,
(PID.TID 0000.0001) > diffKrS=3.E-5,
(PID.TID 0000.0001) > rhonil=1035.,
(PID.TID 0000.0001) > gravity=9.81,
(PID.TID 0000.0001) > eosType = 'POLY3',
(PID.TID 0000.0001) > ivdc_kappa=100.,
(PID.TID 0000.0001) > implicitDiffusion=.TRUE.,
(PID.TID 0000.0001) > useOldFreezing=.TRUE.,
(PID.TID 0000.0001) > useRealFreshWaterFlux=.TRUE.,
(PID.TID 0000.0001) > useCDscheme=.TRUE.,
(PID.TID 0000.0001) > useNHMTerms=.TRUE.,
(PID.TID 0000.0001) ># turn on looped cells
(PID.TID 0000.0001) > hFacMin=.05,
(PID.TID 0000.0001) > hFacMindr=50.,
(PID.TID 0000.0001) ># set precision of data files
(PID.TID 0000.0001) > readBinaryPrec=32,
(PID.TID 0000.0001) > &
(PID.TID 0000.0001) >
(PID.TID 0000.0001) ># Elliptic solver parameters
(PID.TID 0000.0001) > &PARM02
(PID.TID 0000.0001) > cg2dMaxIters=500,
(PID.TID 0000.0001) > cg2dTargetResidual=1.E-13,
(PID.TID 0000.0001) > &
(PID.TID 0000.0001) >
(PID.TID 0000.0001) ># Time stepping parameters
(PID.TID 0000.0001) > &PARM03
(PID.TID 0000.0001) > nIter0 =      0,
(PID.TID 0000.0001) > nTimeSteps = 20,
(PID.TID 0000.0001) ># 100 years of integration will yield a reasonable flow field
(PID.TID 0000.0001) ># startTime  =          0.,
(PID.TID 0000.0001) ># endTime    = 3110400000.,
(PID.TID 0000.0001) > deltaTmom = 1200.0,
(PID.TID 0000.0001) > tauCD =     321428.,
(PID.TID 0000.0001) > deltaTtracer= 43200.0,
(PID.TID 0000.0001) > deltaTClock = 43200.0,
(PID.TID 0000.0001) ># if you are using a version later than checkpoint45d on the main branch
(PID.TID 0000.0001) ># you can uncomment the following line and increase the time step
(PID.TID 0000.0001) ># deltaTtracer and deltaTClock to 172800.0 as well to speed up the
(PID.TID 0000.0001) ># asynchronous time stepping
(PID.TID 0000.0001) ># deltaTfreesurf = 172800.0,
(PID.TID 0000.0001) > abEps = 0.1,
(PID.TID 0000.0001) > pChkptFreq= 311040000.,
(PID.TID 0000.0001) > dumpFreq=   311040000.,
(PID.TID 0000.0001) > dumpFreq=   864000.,
(PID.TID 0000.0001) > taveFreq=   311040000.,
(PID.TID 0000.0001) > taveFreq=   216000.,
(PID.TID 0000.0001) >#monitorFreq=31104000.,
(PID.TID 0000.0001) > monitorFreq=1.,
(PID.TID 0000.0001) ># 2 months restoring timescale for temperature
(PID.TID 0000.0001) > tauThetaClimRelax =  5184000.0,
(PID.TID 0000.0001) ># 6 months restoring timescale for salinity
(PID.TID 0000.0001) > tauSaltClimRelax = 15552000.0,
(PID.TID 0000.0001) > periodicExternalForcing=.TRUE.,
(PID.TID 0000.0001) > externForcingPeriod=2592000.,
(PID.TID 0000.0001) > externForcingCycle=31104000.,
(PID.TID 0000.0001) > &
(PID.TID 0000.0001) >
(PID.TID 0000.0001) ># Gridding parameters
(PID.TID 0000.0001) > &PARM04
(PID.TID 0000.0001) > usingCartesianGrid=.FALSE.,
(PID.TID 0000.0001) > usingSphericalPolarGrid=.TRUE.,
(PID.TID 0000.0001) > delR= 50., 70., 100., 140., 190.,
(PID.TID 0000.0001) >       240., 290., 340., 390., 440.,
(PID.TID 0000.0001) >       490., 540., 590., 640., 690.,
(PID.TID 0000.0001) > phiMin=-80.,
(PID.TID 0000.0001) > dySpacing=4.,
(PID.TID 0000.0001) > dxSpacing=4.,
(PID.TID 0000.0001) > &
(PID.TID 0000.0001) >
(PID.TID 0000.0001) ># Input datasets
(PID.TID 0000.0001) > &PARM05
(PID.TID 0000.0001) > bathyFile=      'bathymetry.bin',
(PID.TID 0000.0001) > hydrogThetaFile='lev_t.bin',
(PID.TID 0000.0001) > hydrogSaltFile= 'lev_s.bin',
(PID.TID 0000.0001) > zonalWindFile=  'trenberth_taux.bin',
(PID.TID 0000.0001) > meridWindFile=  'trenberth_tauy.bin',
(PID.TID 0000.0001) > thetaClimFile=  'lev_sst.bin',
(PID.TID 0000.0001) > saltClimFile=   'lev_sss.bin',
(PID.TID 0000.0001) > surfQFile=      'ncep_qnet.bin',
(PID.TID 0000.0001) > the_run_name=   'global_ocean.90x40x15',
(PID.TID 0000.0001) ># fresh water flux is turned off, uncomment next line to turn on
(PID.TID 0000.0001) ># (not recommened together with surface salinity restoring)
(PID.TID 0000.0001) ># EmPmRFile=      'ncep_emp.bin',
(PID.TID 0000.0001) > &
(PID.TID 0000.0001) 
(PID.TID 0000.0001) S/R INI_PARMS ; starts to read PARM01
(PID.TID 0000.0001) S/R INI_PARMS ; read PARM01 : OK
(PID.TID 0000.0001) S/R INI_PARMS ; starts to read PARM02
(PID.TID 0000.0001) S/R INI_PARMS ; read PARM02 : OK
(PID.TID 0000.0001) S/R INI_PARMS ; starts to read PARM03
(PID.TID 0000.0001) S/R INI_PARMS ; read PARM03 : OK
(PID.TID 0000.0001) S/R INI_PARMS ; starts to read PARM04
(PID.TID 0000.0001) S/R INI_PARMS ; read PARM04 : OK
(PID.TID 0000.0001) S/R INI_PARMS ; starts to read PARM05
(PID.TID 0000.0001) S/R INI_PARMS ; read PARM05 : OK
(PID.TID 0000.0001)  PACKAGES_BOOT: opening data.pkg
(PID.TID 0000.0001)  OPEN_COPY_DATA_FILE: opening file data.pkg
(PID.TID 0000.0001) // =======================================================
(PID.TID 0000.0001) // Parameter file "data.pkg"
(PID.TID 0000.0001) // =======================================================
(PID.TID 0000.0001) ># Packages
(PID.TID 0000.0001) > &PACKAGES
(PID.TID 0000.0001) > useGMRedi=.TRUE.,
(PID.TID 0000.0001) > usePTRACERS=.TRUE.,
(PID.TID 0000.0001) > useMNC=.TRUE.,
(PID.TID 0000.0001) > &
(PID.TID 0000.0001) >
(PID.TID 0000.0001) 
(PID.TID 0000.0001)  PACKAGES_BOOT: finished reading data.pkg
(PID.TID 0000.0001)  MNC_READPARMS: opening file 'data.mnc'
(PID.TID 0000.0001) // =======================================================
(PID.TID 0000.0001) // Parameter file "data.mnc"
(PID.TID 0000.0001) // =======================================================
(PID.TID 0000.0001) ># Example "data.mnc" file
(PID.TID 0000.0001) ># Lines beginning "#" are comments
(PID.TID 0000.0001) > &MNC_01
(PID.TID 0000.0001) ># mnc_echo_gvtypes=.FALSE.,
(PID.TID 0000.0001) ># mnc_use_indir=.FALSE.,
(PID.TID 0000.0001) > mnc_use_outdir=.TRUE.,
(PID.TID 0000.0001) > mnc_outdir_str='mnc_test_',
(PID.TID 0000.0001) > mnc_outdir_date=.TRUE.,
(PID.TID 0000.0001) ># monitor_mnc=.FALSE.,
(PID.TID 0000.0001) > timeave_mnc=.TRUE.,
(PID.TID 0000.0001) > snapshot_mnc=.TRUE.,
(PID.TID 0000.0001) ># pickup_write_mnc=.TRUE.,
(PID.TID 0000.0001) > &
(PID.TID 0000.0001) ># Note: Some systems use & as the
(PID.TID 0000.0001) ># namelist terminator. Other systems
(PID.TID 0000.0001) ># use a / character (as shown here).
(PID.TID 0000.0001) 
(PID.TID 0000.0001)  MNC_READPARMS: finished reading data.mnc
(PID.TID 0000.0001)  GM_READPARMS: opening data.gmredi
(PID.TID 0000.0001)  OPEN_COPY_DATA_FILE: opening file data.gmredi
(PID.TID 0000.0001) // =======================================================
(PID.TID 0000.0001) // Parameter file "data.gmredi"
(PID.TID 0000.0001) // =======================================================
(PID.TID 0000.0001) ># GM+Redi package parameters:
(PID.TID 0000.0001) >
(PID.TID 0000.0001) >#-from MOM :
(PID.TID 0000.0001) ># GM_background_K: 	G & Mc.W  diffusion coefficient
(PID.TID 0000.0001) ># GM_maxSlope    :	max slope of isopycnals
(PID.TID 0000.0001) ># GM_Scrit       :	transition for scaling diffusion coefficient
(PID.TID 0000.0001) ># GM_Sd          :	half width scaling for diffusion coefficient
(PID.TID 0000.0001) ># GM_taper_scheme:	slope clipping or one of the tapering schemes
(PID.TID 0000.0001) ># GM_Kmin_horiz  :	horizontal diffusion minimum value
(PID.TID 0000.0001) >
(PID.TID 0000.0001) >#-Option parameters (needs to "define" options in GMREDI_OPTIONS.h")
(PID.TID 0000.0001) ># GM_isopycK     :	isopycnal diffusion coefficient (default=GM_background_K)
(PID.TID 0000.0001) ># GM_AdvForm     :	turn on GM Advective form       (default=Skew flux form)
(PID.TID 0000.0001) >
(PID.TID 0000.0001) > &GM_PARM01
(PID.TID 0000.0001) >  GM_background_K    = 1.e+3,
(PID.TID 0000.0001) >  GM_taper_scheme    = 'gkw91',
(PID.TID 0000.0001) >  GM_maxSlope        = 1.e-2,
(PID.TID 0000.0001) >  GM_Kmin_horiz      = 50.,
(PID.TID 0000.0001) >  GM_Scrit           = 4.e-3,
(PID.TID 0000.0001) >  GM_Sd              = 1.e-3,
(PID.TID 0000.0001) ># GM_Visbeck_alpha   = 0.,
(PID.TID 0000.0001) ># GM_Visbeck_length  = 2.e+5,
(PID.TID 0000.0001) ># GM_Visbeck_depth   = 1.e+3,
(PID.TID 0000.0001) ># GM_Visbeck_maxval_K= 2.5e+3,
(PID.TID 0000.0001) > &end
(PID.TID 0000.0001) >
(PID.TID 0000.0001) >
(PID.TID 0000.0001) 
(PID.TID 0000.0001)  GM_READPARMS: finished reading data.gmredi
(PID.TID 0000.0001)  PTRACERS_READPARMS: opening data.ptracers
(PID.TID 0000.0001)  OPEN_COPY_DATA_FILE: opening file data.ptracers
(PID.TID 0000.0001) // =======================================================
(PID.TID 0000.0001) // Parameter file "data.ptracers"
(PID.TID 0000.0001) // =======================================================
(PID.TID 0000.0001) ># This set-up makes is supposed to immitate salt. That is, PTRACER(:,:,:,1)
(PID.TID 0000.0001) ># should look exactly like S(:,:,:).
(PID.TID 0000.0001) > &PTRACERS_PARM01
(PID.TID 0000.0001) > PTRACERS_numInUse=1,
(PID.TID 0000.0001) > PTRACERS_advScheme=2,
(PID.TID 0000.0001) > PTRACERS_diffKh=0.E3,
(PID.TID 0000.0001) > PTRACERS_diffKr=3.E-5,
(PID.TID 0000.0001) > PTRACERS_initialFile='lev_s.bin',
(PID.TID 0000.0001) >#EH3 added for MNC
(PID.TID 0000.0001) > PTRACERS_write_mnc=.TRUE.,
(PID.TID 0000.0001) > PTRACERS_names(1)='salt_mimic',
(PID.TID 0000.0001) > &
(PID.TID 0000.0001) 
(PID.TID 0000.0001)  PTRACERS_READPARMS: finished reading data.ptracers
(PID.TID 0000.0001) // ===================================
(PID.TID 0000.0001) // PTRACERS parameters
(PID.TID 0000.0001) // ===================================
(PID.TID 0000.0001) PTRACERS_numInUse = /* number of tracers */
(PID.TID 0000.0001)                       1
(PID.TID 0000.0001)     ;
(PID.TID 0000.0001) PTRACERS_taveFreq = /* Frequency^-1 for time-Aver. output (s) */
(PID.TID 0000.0001)                 2.160000000000000E+05
(PID.TID 0000.0001)     ;
(PID.TID 0000.0001) PTRACERS_useRecords = /* all tracers in 1 file */
(PID.TID 0000.0001)                   F
(PID.TID 0000.0001)     ;
(PID.TID 0000.0001) PTRACERS_write_mdsio = /* write mdsio files */
(PID.TID 0000.0001)                   F
(PID.TID 0000.0001)     ;
(PID.TID 0000.0001) PTRACERS_write_mnc = /* write mnc files */
(PID.TID 0000.0001)                   T
(PID.TID 0000.0001)     ;
(PID.TID 0000.0001)  -----------------------------------
(PID.TID 0000.0001)  tracer number :    1
(PID.TID 0000.0001) PTRACERS_advScheme = /* Advection Scheme */
(PID.TID 0000.0001)                       2
(PID.TID 0000.0001)     ;
(PID.TID 0000.0001) PTRACERS_diffKh = /* Laplacian Diffusivity */
(PID.TID 0000.0001)                 0.000000000000000E+00
(PID.TID 0000.0001)     ;
(PID.TID 0000.0001) PTRACERS_diffK4 = /* Biharmonic Diffusivity */
(PID.TID 0000.0001)                 0.000000000000000E+00
(PID.TID 0000.0001)     ;
(PID.TID 0000.0001) PTRACERS_diffKrNr = /* Vertical Diffusivity */
(PID.TID 0000.0001)    15 @  3.000000000000000E-05              /* K =  1: 15 */
(PID.TID 0000.0001)     ;
(PID.TID 0000.0001) PTRACERS_useGMRedi = /* apply GM-Redi */
(PID.TID 0000.0001)                   T
(PID.TID 0000.0001)     ;
(PID.TID 0000.0001) PTRACERS_useKPP = /* apply KPP scheme */
(PID.TID 0000.0001)                   F
(PID.TID 0000.0001)     ;
(PID.TID 0000.0001)  -----------------------------------
(PID.TID 0000.0001) %MON XC_max                       =   3.5800000000000E+02
(PID.TID 0000.0001) %MON XC_min                       =   2.0000000000000E+00
(PID.TID 0000.0001) %MON XC_mean                      =   1.8000000000000E+02
(PID.TID 0000.0001) %MON XC_sd                        =   1.0391663325314E+02
(PID.TID 0000.0001) %MON XG_max                       =   3.5600000000000E+02
(PID.TID 0000.0001) %MON XG_min                       =   4.0000000000000E+00
(PID.TID 0000.0001) %MON XG_mean                      =   1.8000000000000E+02
(PID.TID 0000.0001) %MON XG_sd                        =   1.0276186062932E+02
(PID.TID 0000.0001) %MON DXC_max                      =   4.4443898815675E+05
(PID.TID 0000.0001) %MON DXC_min                      =   9.2460385861875E+04
(PID.TID 0000.0001) %MON DXC_mean                     =   3.1372497618153E+05
(PID.TID 0000.0001) %MON DXC_sd                       =   1.1216447457560E+05
(PID.TID 0000.0001) %MON DXF_max                      =   4.4443898815675E+05
(PID.TID 0000.0001) %MON DXF_min                      =   9.2460385861875E+04
(PID.TID 0000.0001) %MON DXF_mean                     =   3.1372497618153E+05
(PID.TID 0000.0001) %MON DXF_sd                       =   1.1216447457560E+05
(PID.TID 0000.0001) %MON DXG_max                      =   4.4470989340816E+05
(PID.TID 0000.0001) %MON DXG_min                      =   7.7223062580781E+04
(PID.TID 0000.0001) %MON DXG_mean                     =   3.1353386340261E+05
(PID.TID 0000.0001) %MON DXG_sd                       =   1.1256651772502E+05
(PID.TID 0000.0001) %MON DXV_max                      =   4.4470989340816E+05
(PID.TID 0000.0001) %MON DXV_min                      =   7.7223062580781E+04
(PID.TID 0000.0001) %MON DXV_mean                     =   3.1353386340261E+05
(PID.TID 0000.0001) %MON DXV_sd                       =   1.1256651772502E+05
(PID.TID 0000.0001) %MON YC_max                       =   7.8000000000000E+01
(PID.TID 0000.0001) %MON YC_min                       =  -7.8000000000000E+01
(PID.TID 0000.0001) %MON YC_mean                      =   0.0000000000000E+00
(PID.TID 0000.0001) %MON YC_sd                        =   4.6173585522461E+01
(PID.TID 0000.0001) %MON YG_max                       =   7.6000000000000E+01
(PID.TID 0000.0001) %MON YG_min                       =  -8.0000000000000E+01
(PID.TID 0000.0001) %MON YG_mean                      =  -2.0512820512821E+00
(PID.TID 0000.0001) %MON YG_sd                        =   4.6760682979564E+01
(PID.TID 0000.0001) %MON DYC_max                      =   4.4470989340816E+05
(PID.TID 0000.0001) %MON DYC_min                      =   4.4470989340816E+05
(PID.TID 0000.0001) %MON DYC_mean                     =   4.4470989340817E+05
(PID.TID 0000.0001) %MON DYC_sd                       =   1.4668330550194E-08
(PID.TID 0000.0001) %MON DYF_max                      =   4.4470989340816E+05
(PID.TID 0000.0001) %MON DYF_min                      =   4.4470989340816E+05
(PID.TID 0000.0001) %MON DYF_mean                     =   4.4470989340817E+05
(PID.TID 0000.0001) %MON DYF_sd                       =   1.4668330550194E-08
(PID.TID 0000.0001) %MON DYG_max                      =   4.4470989340816E+05
(PID.TID 0000.0001) %MON DYG_min                      =   4.4470989340816E+05
(PID.TID 0000.0001) %MON DYG_mean                     =   4.4470989340817E+05
(PID.TID 0000.0001) %MON DYG_sd                       =   1.4668330550194E-08
(PID.TID 0000.0001) %MON DYU_max                      =   4.4470989340816E+05
(PID.TID 0000.0001) %MON DYU_min                      =   4.4470989340816E+05
(PID.TID 0000.0001) %MON DYU_mean                     =   4.4470989340817E+05
(PID.TID 0000.0001) %MON DYU_sd                       =   1.4668330550194E-08
(PID.TID 0000.0001) %MON RA_max                       =   1.9760627980089E+11
(PID.TID 0000.0001) %MON RA_min                       =   4.1109698667290E+10
(PID.TID 0000.0001) %MON RA_mean                      =   1.3948826965196E+11
(PID.TID 0000.0001) %MON RA_sd                        =   4.9870522472902E+10
(PID.TID 0000.0001) %MON RAW_max                      =   1.9760627980089E+11
(PID.TID 0000.0001) %MON RAW_min                      =   4.1109698667290E+10
(PID.TID 0000.0001) %MON RAW_mean                     =   1.3948826965196E+11
(PID.TID 0000.0001) %MON RAW_sd                       =   4.9870522472902E+10
(PID.TID 0000.0001) %MON RAS_max                      =   1.9772672958215E+11
(PID.TID 0000.0001) %MON RAS_min                      =   3.4334886267982E+10
(PID.TID 0000.0001) %MON RAS_mean                     =   1.3940329716694E+11
(PID.TID 0000.0001) %MON RAS_sd                       =   5.0049278732353E+10
(PID.TID 0000.0001) %MON RAZ_max                      =   1.9772672958215E+11
(PID.TID 0000.0001) %MON RAZ_min                      =   3.4334886267982E+10
(PID.TID 0000.0001) %MON RAZ_mean                     =   1.3940329716694E+11
(PID.TID 0000.0001) %MON RAZ_sd                       =   5.0049278732353E+10
(PID.TID 0000.0001)  MDSREADFIELD: opening global file: bathymetry.bin
(PID.TID 0000.0001) // =======================================================
(PID.TID 0000.0001) // Field Model R_low (ini_masks_etc) at iteration          1
(PID.TID 0000.0001) // CMIN =         -5.200000000000000E+03
(PID.TID 0000.0001) // CMAX =         -1.200000000000000E+02
(PID.TID 0000.0001) // CINT =          1.881481481481482E+02
(PID.TID 0000.0001) // SYMBOLS (CMIN->CMAX): -abcdefghijklmnopqrstuvwxyz+
(PID.TID 0000.0001) //                  0.0: .
(PID.TID 0000.0001) // RANGE I (Lo:Hi:Step):(  -1:  92:   1)
(PID.TID 0000.0001) // RANGE J (Lo:Hi:Step):(  42:  -1:  -1)
(PID.TID 0000.0001) // RANGE K (Lo:Hi:Step):(   1:   1:   1)
(PID.TID 0000.0001) // =======================================================
(PID.TID 0000.0001) K =   1
(PID.TID 0000.0001) //                I=8       I=18      I=28      I=38      I=44      I=54      I=64      I=74      I=84
(PID.TID 0000.0001) // |--J--|*01234567|901234567|901234567|901234567|901234567|567890123|567890123|567890123|567890123|56789012
(PID.TID 0000.0001) //     42 ............................................zyxxmyxxmgfeeefefgimnpwwwy..+zyy.....yyyyoiiihhz+.....
(PID.TID 0000.0001) //     41 ..................................................................................................
(PID.TID 0000.0001) //     40 qlloqz+.++++zzz++++++......................................................................+++qllo
(PID.TID 0000.0001) //     39 slloorzzzzzzzzz+...++.........................................................yxxz........+zvusllo
(PID.TID 0000.0001) //     38 mqpporzzzzzz+++...............................................................zxxy+......zyyvsmqpp
(PID.TID 0000.0001) //     37 mmmuz......................................................................++...zy+...yttyy.+smmmu
(PID.TID 0000.0001) //     36 utt+.........................................mm++mm++....................+++++++znmm.yoowssvuyutt+
(PID.TID 0000.0001) //     35 ++++.................................+zzz..rrmmkkmmkk+...+gghn...........+++....+nmiijlsoopuww++++
(PID.TID 0000.0001) //     34 .....................................+vvy.ggqyxv+yxv+y.ccdffhim..................+nihhikkihhm+....
(PID.TID 0000.0001) //     33 +.....................................uuz---h----------aaabdefin+.................zqvddflifffw+...
(PID.TID 0000.0001) //     32 +.....................................+t----h-------------acdfgnn................+++gdffkofffm+...
(PID.TID 0000.0001) //     31 ......................................-----ad------------abddegil..............qbaafccdhqqgddm....
(PID.TID 0000.0001) //     30 .....................................f----b--b---b------------abd............zfbb--fbcdosjfddi....
(PID.TID 0000.0001) //     29 ...................................tu----e---fjg-fjg----------abdf...........eaac--abfmijaadgi....
(PID.TID 0000.0001) //     28 .................................+xfl-----------------------bdedefi.........qbaa---aemfbbaaejz....
(PID.TID 0000.0001) //     27 ................xx..............+wfgfpf--------ea--eallc---bbbccefgi...+++x.qb-----akfa---ah......
(PID.TID 0000.0001) //     26 ................xnn...........+vd---dna------a--aa--aicfna---aabdfghku.++xssuy-----bgca---ci......
(PID.TID 0000.0001) //     25 ................iiik...oo+...+ivd---doaa-bc--ilglilglf--aa---aabcghhkll...ssum+xaaacjbaabdjk......
(PID.TID 0000.0001) //     24 ..............xnheeft.kkk+...uii.aagdm----aa---------a-------bbbcdefjljjju.zummwwbbchba--abi......
(PID.TID 0000.0001) //     23 ..............xgheefp.iikw...uuw..fihi----fed---------eaaa--bbbbcdfflkjiiiq....zykccefa--abd......
(PID.TID 0000.0001) //     22 uss...........bbelffslffkk...zz.wqkeeqoheccdfa---a-----egabaabcdddegghliiiqq......xeeehheehccquss.
(PID.TID 0000.0001) //     21 bbeir........nbbcdjhqdddiiz.....wqfeelgghmedea---a-----bibbcddddddefghklnqoo........ieeflhgcccbbei
(PID.TID 0000.0001) //     20 bbder.......ldcccdgkccccidd......z.vkkktqqhegg---g----aaacddddddddefghkiiijl.........nhfa--gfcbbde
(PID.TID 0000.0001) //     19 cdaaf.......kddosggpaaaibbccx...+z+.....r+nlec---c---agaaabcddccddefikfgffff...........d---cjhcdaa
(PID.TID 0000.0001) //     18 d---d.......kglggvliaaaibbcaaeaiv++...qqzolhecccfcccfdgkaabcdfccdeeikgfgffdd+..........d---djhd---
(PID.TID 0000.0001) //     17 c---c.......l.feewlfaaaoaa----aiv.....qqnllslmlofmlofcdbaacceffffhhligfigeddj.........hd---ckhc---
(PID.TID 0000.0001) //     16 ba--c......tn.ddgnlfdaaqa-----lv.......vnllvllnwvlnwv--accivomfffhilhgfffeddjf........re--aeigba--
(PID.TID 0000.0001) //     15 b--dpz....+ll.ccdfhmdddlc----av.........otsxoomv-omv---abccddfihgijkhgfffeejfff......+fd---ckfb--d
(PID.TID 0000.0001) //     14 c--mcl....weeqbaafilkfend--eagy.........hhstofft-fft----aacdheefijkmjhhjijiffff.....zlfdaaadlfc--m
(PID.TID 0000.0001) //     13 cclbbg....nccobaaiddgkffqrqeaal.........eeutqfft-fft------aaceeffhijlkjhhigfffq....+jgfodccflhcclb
(PID.TID 0000.0001) //     12 hgaaacw+iiicclemhdddfliigfdcaabfaaaz....ccsurqpc-qpc--------abcifffikiiihhggff.....kbbbdfffglhhgaa
(PID.TID 0000.0001) //     11 gcaaacbbifccennhbbdefnihgfdccaaaa----..dcccnt.nca.ncab-------aabcdfilhggjiggff....l---abcefjlkgcaa
(PID.TID 0000.0001) //     10 fcaaccbdaacfrllfbbdegkmmljhfdddba----d.dcccfx.nyr.nyrebaba----abcdgilhfeegijgi..+w--aa-abcfilkfcaa
(PID.TID 0000.0001) //      9 ffcdcccaaaoqsolfdeehikihhlllgfedcccccdmdcccf.vyfavyfaaaaaaaa--abdehmjhfeeefglv.++w-----abcdfklffcd
(PID.TID 0000.0001) //      8 iffjklcaafddffeeccvznkfffhhhlkjifgjkkfeeddfsyvcaavcaaaaaaccdcccdfgjligedbbceg+.++xffn--cfddefliffj
(PID.TID 0000.0001) //      7 mqnnbbkkf--bmbaabbgtykfddeffeeddccdfhlffeelfbaaaaaaaaaacddeghgjgjlligeddaaabedfiiiiiisvkfkecchmqnn
(PID.TID 0000.0001) //      6 ca-------------aabcelttdddedddddccccdfkkiiffbaaaaaaaabcdgimmkmefecaaabbbaaabbdfiiiiispmmregifcca--
(PID.TID 0000.0001) //      5 -------a-------aaccehhhiddeddddddcccdfiikomodddefddefffmlmigedccaaaaaaaababbbdfiijsqgeccccbaa-----
(PID.TID 0000.0001) //      4 -ahebaabbbbbeihffgijiiiijpywnnpokkomkiiijmmmolkomlkommmgffeeedccaaaaaabbcccefhmz..yjgeccccbaa--ahe
(PID.TID 0000.0001) //      3 ffhhrpjiiwyy............................yxotmjjjjjjjjgfeeeeeeddeffffheddeghjkyy..yqjgeddccdbbgffhh
(PID.TID 0000.0001) //      2 ............................................zyxxmyxxmgfeeefefgimnpwwwy..+zyy.....yyyyoiiihhz+.....
(PID.TID 0000.0001) //      1 ..................................................................................................
(PID.TID 0000.0001) //      0 qlloqz+.++++zzz++++++......................................................................+++qllo
(PID.TID 0000.0001) //     -1 slloorzzzzzzzzz+...++.........................................................yxxz........+zvusllo
(PID.TID 0000.0001) // =======================================================
(PID.TID 0000.0001) // END OF FIELD                                          =
(PID.TID 0000.0001) // =======================================================
(PID.TID 0000.0001) 
(PID.TID 0000.0001) // =======================================================
(PID.TID 0000.0001) // Field Model Ro_surf (ini_masks_etc) at iteration          1
(PID.TID 0000.0001) // CMIN =          1.000000000000000E+32
(PID.TID 0000.0001) // CMAX =         -1.000000000000000E+32
(PID.TID 0000.0001) // CINT =          0.000000000000000E+00
(PID.TID 0000.0001) // SYMBOLS (CMIN->CMAX): -abcdefghijklmnopqrstuvwxyz+
(PID.TID 0000.0001) //                  0.0: .
(PID.TID 0000.0001) // RANGE I (Lo:Hi:Step):(  -1:  92:   1)
(PID.TID 0000.0001) // RANGE J (Lo:Hi:Step):(  42:  -1:  -1)
(PID.TID 0000.0001) // RANGE K (Lo:Hi:Step):(   1:   1:   1)
(PID.TID 0000.0001) // =======================================================
(PID.TID 0000.0001) // =======================================================
(PID.TID 0000.0001) // END OF FIELD                                          =
(PID.TID 0000.0001) // =======================================================
(PID.TID 0000.0001) 
(PID.TID 0000.0001) // =======================================================
(PID.TID 0000.0001) // Field hFacC at iteration          1
(PID.TID 0000.0001) // CMIN =          1.000000000000000E+00
(PID.TID 0000.0001) // CMAX =          1.000000000000000E+00
(PID.TID 0000.0001) // CINT =          0.000000000000000E+00
(PID.TID 0000.0001) // SYMBOLS (CMIN->CMAX): -abcdefghijklmnopqrstuvwxyz+
(PID.TID 0000.0001) //                  0.0: .
(PID.TID 0000.0001) // RANGE I (Lo:Hi:Step):(  -1:  92:   1)
(PID.TID 0000.0001) // RANGE J (Lo:Hi:Step):(  42:  -1:  -1)
(PID.TID 0000.0001) // RANGE K (Lo:Hi:Step):(   1:   1:   1)
(PID.TID 0000.0001) // =======================================================
(PID.TID 0000.0001) // =======================================================
(PID.TID 0000.0001) // END OF FIELD                                          =
(PID.TID 0000.0001) // =======================================================
(PID.TID 0000.0001) 
(PID.TID 0000.0001) // =======================================================
(PID.TID 0000.0001) // Field hFacW at iteration          1
(PID.TID 0000.0001) // CMIN =          1.000000000000000E+00
(PID.TID 0000.0001) // CMAX =          1.000000000000000E+00
(PID.TID 0000.0001) // CINT =          0.000000000000000E+00
(PID.TID 0000.0001) // SYMBOLS (CMIN->CMAX): -abcdefghijklmnopqrstuvwxyz+
(PID.TID 0000.0001) //                  0.0: .
(PID.TID 0000.0001) // RANGE I (Lo:Hi:Step):(  -1:  92:   1)
(PID.TID 0000.0001) // RANGE J (Lo:Hi:Step):(  42:  -1:  -1)
(PID.TID 0000.0001) // RANGE K (Lo:Hi:Step):(   1:   1:   1)
(PID.TID 0000.0001) // =======================================================
(PID.TID 0000.0001) // =======================================================
(PID.TID 0000.0001) // END OF FIELD                                          =
(PID.TID 0000.0001) // =======================================================
(PID.TID 0000.0001) 
(PID.TID 0000.0001) // =======================================================
(PID.TID 0000.0001) // Field hFacS at iteration          1
(PID.TID 0000.0001) // CMIN =          1.000000000000000E+00
(PID.TID 0000.0001) // CMAX =          1.000000000000000E+00
(PID.TID 0000.0001) // CINT =          0.000000000000000E+00
(PID.TID 0000.0001) // SYMBOLS (CMIN->CMAX): -abcdefghijklmnopqrstuvwxyz+
(PID.TID 0000.0001) //                  0.0: .
(PID.TID 0000.0001) // RANGE I (Lo:Hi:Step):(  -1:  92:   1)
(PID.TID 0000.0001) // RANGE J (Lo:Hi:Step):(  42:  -1:  -1)
(PID.TID 0000.0001) // RANGE K (Lo:Hi:Step):(   1:   1:   1)
(PID.TID 0000.0001) // =======================================================
(PID.TID 0000.0001) // =======================================================
(PID.TID 0000.0001) // END OF FIELD                                          =
(PID.TID 0000.0001) // =======================================================
(PID.TID 0000.0001) 
(PID.TID 0000.0001) 
(PID.TID 0000.0001) // ===================================
(PID.TID 0000.0001) // GAD parameters :
(PID.TID 0000.0001) // ===================================
(PID.TID 0000.0001) tempAdvScheme =   /* Temp. Horiz.Advection scheme selector */
(PID.TID 0000.0001)                       2
(PID.TID 0000.0001)     ;
(PID.TID 0000.0001) tempVertAdvScheme =   /* Temp. Vert. Advection scheme selector */
(PID.TID 0000.0001)                       2
(PID.TID 0000.0001)     ;
(PID.TID 0000.0001) tempMultiDimAdvec =   /* use Muti-Dim Advec method for Temp */
(PID.TID 0000.0001)                   F
(PID.TID 0000.0001)     ;
(PID.TID 0000.0001) tempAdamsBashforth =   /* use Adams-Bashforth time-stepping for Temp */
(PID.TID 0000.0001)                   T
(PID.TID 0000.0001)     ;
(PID.TID 0000.0001) saltAdvScheme =   /* Salt. Horiz.advection scheme selector */
(PID.TID 0000.0001)                       2
(PID.TID 0000.0001)     ;
(PID.TID 0000.0001) saltVertAdvScheme =   /* Salt. Vert. Advection scheme selector */
(PID.TID 0000.0001)                       2
(PID.TID 0000.0001)     ;
(PID.TID 0000.0001) saltMultiDimAdvec =   /* use Muti-Dim Advec method for Salt */
(PID.TID 0000.0001)                   F
(PID.TID 0000.0001)     ;
(PID.TID 0000.0001) saltAdamsBashforth =   /* use Adams-Bashforth time-stepping for Salt */
(PID.TID 0000.0001)                   T
(PID.TID 0000.0001)     ;
(PID.TID 0000.0001) // ===================================
(PID.TID 0000.0001) GMREDI_CHECK: #define GMREDI
(PID.TID 0000.0001) GM_AdvForm =  /* if FALSE => use SkewFlux Form */
(PID.TID 0000.0001)                   F
(PID.TID 0000.0001)     ;
(PID.TID 0000.0001) GM_AdvSeparate = /* Calc Bolus & Euler Adv. separately */
(PID.TID 0000.0001)                   F
(PID.TID 0000.0001)     ;
(PID.TID 0000.0001) GM_ExtraDiag =  /* Tensor Extra Diag (line 1&2) non 0 */
(PID.TID 0000.0001)                   F
(PID.TID 0000.0001)     ;
(PID.TID 0000.0001) GM_isopycK =   /* Background Isopyc. Diffusivity ( m^2/s ) */
(PID.TID 0000.0001)                 1.000000000000000E+03
(PID.TID 0000.0001)     ;
(PID.TID 0000.0001)  GM_skewflx*K =   /* Background GM_SkewFlx Diffusivity ( m^2/s ) */
(PID.TID 0000.0001)                 1.000000000000000E+03
(PID.TID 0000.0001)     ;
(PID.TID 0000.0001)  GM_advec*K =   /* Backg. GM-Advec(=Bolus) Diffusivity ( m^2/s ) */
(PID.TID 0000.0001)                 0.000000000000000E+00
(PID.TID 0000.0001)     ;
(PID.TID 0000.0001)  GM_Visbeck_alpha =   /* Visbeck alpha coeff. ( ) */
(PID.TID 0000.0001)                 0.000000000000000E+00
(PID.TID 0000.0001)     ;
(PID.TID 0000.0001)  Tapering/Cliping : gkw91
(PID.TID 0000.0001)  GM_Small_Number =  /* epsilon used in slope calc */
(PID.TID 0000.0001)                 1.000000000000000E-12
(PID.TID 0000.0001)     ;
(PID.TID 0000.0001)  GM_slopeSqCutoff =  /* Slope^2 cut-off value */
(PID.TID 0000.0001)                 1.000000000000000E+48
(PID.TID 0000.0001)     ;
(PID.TID 0000.0001) %MON fCori_max                    =   1.4226580169407E-04
(PID.TID 0000.0001) %MON fCori_min                    =  -1.4226580169407E-04
(PID.TID 0000.0001) %MON fCori_mean                   =   1.5961865317148E-21
(PID.TID 0000.0001) %MON fCori_sd                     =   9.6335367303779E-05
(PID.TID 0000.0001) %MON fCoriG_max                   =   1.4112379284621E-04
(PID.TID 0000.0001) %MON fCoriG_min                   =  -1.4323448157692E-04
(PID.TID 0000.0001) %MON fCoriG_mean                  =  -3.6726790147928E-06
(PID.TID 0000.0001) %MON fCoriG_sd                    =   9.7510077443651E-05
(PID.TID 0000.0001) %MON fCoriCos_max                 =   1.4535550371427E-04
(PID.TID 0000.0001) %MON fCoriCos_min                 =   3.0239529651320E-05
(PID.TID 0000.0001) %MON fCoriCos_mean                =   1.0260497651149E-04
(PID.TID 0000.0001) %MON fCoriCos_sd                  =   3.6683828681187E-05
(PID.TID 0000.0001) // CG2D normalisation factor =          0.6568267742571170272718184E-04
(PID.TID 0000.0001) 
(PID.TID 0000.0001) CONFIG_CHECK: OK
(PID.TID 0000.0001) // =======================================================
(PID.TID 0000.0001) // Model configuration
(PID.TID 0000.0001) // =======================================================
(PID.TID 0000.0001) //
(PID.TID 0000.0001) // "Physical" paramters ( PARM01 in namelist )
(PID.TID 0000.0001) //
(PID.TID 0000.0001) buoyancyRelation = OCEANIC
(PID.TID 0000.0001) fluidIsAir  =  /* fluid major constituent is Air */
(PID.TID 0000.0001)                   F
(PID.TID 0000.0001)     ;
(PID.TID 0000.0001) fluidIsWater=  /* fuild major constituent is Water */
(PID.TID 0000.0001)                   T
(PID.TID 0000.0001)     ;
(PID.TID 0000.0001) usingPCoords =  /* use p (or p*) vertical coordinate */
(PID.TID 0000.0001)                   F
(PID.TID 0000.0001)     ;
(PID.TID 0000.0001) usingZCoords =  /* use z (or z*) vertical coordinate */
(PID.TID 0000.0001)                   T
(PID.TID 0000.0001)     ;
(PID.TID 0000.0001) tRef =   /* Reference temperature profile ( oC or oK ) */
(PID.TID 0000.0001)    15 @  2.000000000000000E+01              /* K =  1: 15 */
(PID.TID 0000.0001)     ;
(PID.TID 0000.0001) sRef =   /* Reference salinity profile ( ppt ) */
(PID.TID 0000.0001)    15 @  3.500000000000000E+01              /* K =  1: 15 */
(PID.TID 0000.0001)     ;
(PID.TID 0000.0001) viscAh =   /* Lateral eddy viscosity ( m^2/s ) */
(PID.TID 0000.0001)                 5.000000000000000E+05
(PID.TID 0000.0001)     ;
(PID.TID 0000.0001) viscAhMax =   /* Maximum lateral eddy viscosity ( m^2/s ) */
(PID.TID 0000.0001)                 1.000000000000000E+21
(PID.TID 0000.0001)     ;
(PID.TID 0000.0001) viscAhGrid =   /* Grid dependent lateral eddy viscosity ( non-dim. ) */
(PID.TID 0000.0001)                 0.000000000000000E+00
(PID.TID 0000.0001)     ;
(PID.TID 0000.0001) viscC2leith =   /* Leith harmonic viscosity factor ( non-dom. ) */
(PID.TID 0000.0001)                 0.000000000000000E+00
(PID.TID 0000.0001)     ;
(PID.TID 0000.0001) viscA4 =   /* Lateral biharmonic viscosity ( m^4/s ) */
(PID.TID 0000.0001)                 0.000000000000000E+00
(PID.TID 0000.0001)     ;
(PID.TID 0000.0001) viscA4Max =   /* Maximum biharmonic viscosity ( m^2/s ) */
(PID.TID 0000.0001)                 1.000000000000000E+21
(PID.TID 0000.0001)     ;
(PID.TID 0000.0001) viscA4Grid =   /* Grid dependent biharmonic viscosity ( non-dim. ) */
(PID.TID 0000.0001)                 0.000000000000000E+00
(PID.TID 0000.0001)     ;
(PID.TID 0000.0001) viscC4leith =   /* Leith biharmonic viscosity factor ( non-dom. ) */
(PID.TID 0000.0001)                 0.000000000000000E+00
(PID.TID 0000.0001)     ;
(PID.TID 0000.0001) no_slip_sides =  /* Viscous BCs: No-slip sides */
(PID.TID 0000.0001)                   T
(PID.TID 0000.0001)     ;
(PID.TID 0000.0001) viscAr =   /* Vertical eddy viscosity ( units of r^2/s ) */
(PID.TID 0000.0001)                 1.000000000000000E-03
(PID.TID 0000.0001)     ;
(PID.TID 0000.0001) no_slip_bottom =  /* Viscous BCs: No-slip bottom */
(PID.TID 0000.0001)                   T
(PID.TID 0000.0001)     ;
(PID.TID 0000.0001) diffKhT =   /* Laplacian diffusion of heat laterally ( m^2/s ) */
(PID.TID 0000.0001)                 0.000000000000000E+00
(PID.TID 0000.0001)     ;
(PID.TID 0000.0001) diffK4T =   /* Bihaarmonic diffusion of heat laterally ( m^4/s ) */
(PID.TID 0000.0001)                 0.000000000000000E+00
(PID.TID 0000.0001)     ;
(PID.TID 0000.0001) diffKhS =   /* Laplacian diffusion of salt laterally ( m^2/s ) */
(PID.TID 0000.0001)                 0.000000000000000E+00
(PID.TID 0000.0001)     ;
(PID.TID 0000.0001) diffK4S =   /* Bihaarmonic diffusion of salt laterally ( m^4/s ) */
(PID.TID 0000.0001)                 0.000000000000000E+00
(PID.TID 0000.0001)     ;
(PID.TID 0000.0001) diffKrNrT = /* vertical profile of vertical diffusion of Temp ( m^2/s )*/
(PID.TID 0000.0001)    15 @  3.000000000000000E-05              /* K =  1: 15 */
(PID.TID 0000.0001)     ;
(PID.TID 0000.0001) diffKrNrS = /* vertical profile of vertical diffusion of Salt ( m^2/s )*/
(PID.TID 0000.0001)    15 @  3.000000000000000E-05              /* K =  1: 15 */
(PID.TID 0000.0001)     ;
(PID.TID 0000.0001) diffKrBL79surf =   /* Surface diffusion for Bryan and Lewis 1979 ( m^2/s ) */
(PID.TID 0000.0001)                 0.000000000000000E+00
(PID.TID 0000.0001)     ;
(PID.TID 0000.0001) diffKrBL79deep =   /* Deep diffusion for Bryan and Lewis 1979 ( m^2/s ) */
(PID.TID 0000.0001)                 0.000000000000000E+00
(PID.TID 0000.0001)     ;
(PID.TID 0000.0001) diffKrBL79scl =   /* Depth scale for Bryan and Lewis 1979 ( m ) */
(PID.TID 0000.0001)                 2.000000000000000E+02
(PID.TID 0000.0001)     ;
(PID.TID 0000.0001) diffKrBL79Ho =   /* Turning depth for Bryan and Lewis 1979 ( m ) */
(PID.TID 0000.0001)                -2.000000000000000E+03
(PID.TID 0000.0001)     ;
(PID.TID 0000.0001)  Equation of State : eosType = POLY3
(PID.TID 0000.0001) tAlpha =   /* Linear EOS thermal expansion coefficient ( 1/degree ) */
(PID.TID 0000.0001)                 1.234567000000000E+05
(PID.TID 0000.0001)     ;
(PID.TID 0000.0001) sBeta =   /* Linear EOS haline contraction coefficient ( 1/ppt ) */
(PID.TID 0000.0001)                 1.234567000000000E+05
(PID.TID 0000.0001)     ;
(PID.TID 0000.0001)   1  13.497  32.600  24.548  -0.202   0.773  -0.005  -0.002   0.000   0.000   0.000   0.000   0.000
(PID.TID 0000.0001)   2  13.488  32.600  24.819  -0.204   0.773  -0.005  -0.002   0.000   0.000   0.000   0.000   0.000
(PID.TID 0000.0001)   3  13.476  32.600  25.201  -0.205   0.772  -0.005  -0.002   0.000   0.000   0.000   0.000   0.000
(PID.TID 0000.0001)   4   8.469  35.150  28.642  -0.163   0.784  -0.005  -0.002   0.000   0.000   0.000   0.000   0.000
(PID.TID 0000.0001)   5   8.451  35.150  29.393  -0.167   0.782  -0.005  -0.002   0.000   0.000   0.000   0.000   0.000
(PID.TID 0000.0001)   6   5.940  34.900  30.563  -0.144   0.786  -0.005  -0.002  -0.001   0.000   0.000   0.000   0.000
(PID.TID 0000.0001)   7   4.425  34.900  31.985  -0.134   0.788  -0.005  -0.003   0.000   0.000   0.000   0.000   0.000
(PID.TID 0000.0001)   8   2.911  34.750  33.505  -0.125   0.789  -0.006  -0.003   0.000   0.000   0.000   0.000   0.000
(PID.TID 0000.0001)   9   1.893  34.800  35.341  -0.123   0.789  -0.006  -0.003   0.000   0.000   0.000   0.000   0.000
(PID.TID 0000.0001)  10   1.367  34.800  37.299  -0.129   0.787  -0.006  -0.003   0.000   0.000   0.000   0.000   0.000
(PID.TID 0000.0001)  11   1.327  34.800  39.405  -0.141   0.783  -0.005  -0.003   0.000   0.000   0.000   0.000   0.000
(PID.TID 0000.0001)  12   0.791  34.800  41.788  -0.149   0.780  -0.005  -0.003   0.000   0.000   0.000   0.000   0.000
(PID.TID 0000.0001)  13   0.736  34.750  44.259  -0.164   0.776  -0.005  -0.002   0.000   0.000   0.000   0.000   0.000
(PID.TID 0000.0001)  14   0.186  34.750  47.044  -0.175   0.773  -0.005  -0.002   0.000   0.000   0.000   0.000   0.000
(PID.TID 0000.0001)  15   0.595  34.750  49.835  -0.196   0.767  -0.004  -0.002   0.000   0.000   0.000   0.000   0.000
(PID.TID 0000.0001) rhonil =   /* Reference density ( kg/m^3 ) */
(PID.TID 0000.0001)                 1.035000000000000E+03
(PID.TID 0000.0001)     ;
(PID.TID 0000.0001) rhoConst =   /* Reference density ( kg/m^3 ) */
(PID.TID 0000.0001)                 1.035000000000000E+03
(PID.TID 0000.0001)     ;
(PID.TID 0000.0001) rhoConstFresh =   /* Reference density ( kg/m^3 ) */
(PID.TID 0000.0001)                 1.035000000000000E+03
(PID.TID 0000.0001)     ;
(PID.TID 0000.0001) gravity =   /* Gravitational acceleration ( m/s^2 ) */
(PID.TID 0000.0001)                 9.810000000000000E+00
(PID.TID 0000.0001)     ;
(PID.TID 0000.0001) gBaro =   /* Barotropic gravity ( m/s^2 ) */
(PID.TID 0000.0001)                 9.810000000000000E+00
(PID.TID 0000.0001)     ;
(PID.TID 0000.0001) rotationPeriod =   /* Rotation Period ( s ) */
(PID.TID 0000.0001)                 8.640000000000000E+04
(PID.TID 0000.0001)     ;
(PID.TID 0000.0001) omega =   /* Angular velocity ( rad/s ) */
(PID.TID 0000.0001)                 7.272205216643040E-05
(PID.TID 0000.0001)     ;
(PID.TID 0000.0001) f0 =   /* Reference coriolis parameter ( 1/s ) */
(PID.TID 0000.0001)                 1.000000000000000E-04
(PID.TID 0000.0001)     ;
(PID.TID 0000.0001) beta =   /* Beta ( 1/(m.s) ) */
(PID.TID 0000.0001)                 9.999999999999999E-12
(PID.TID 0000.0001)     ;
(PID.TID 0000.0001) freeSurfFac =   /* Implicit free surface factor */
(PID.TID 0000.0001)                 1.000000000000000E+00
(PID.TID 0000.0001)     ;
(PID.TID 0000.0001) implicitFreeSurface =   /* Implicit free surface on/off flag */
(PID.TID 0000.0001)                   T
(PID.TID 0000.0001)     ;
(PID.TID 0000.0001) rigidLid =   /* Rigid lid on/off flag */
(PID.TID 0000.0001)                   F
(PID.TID 0000.0001)     ;
(PID.TID 0000.0001) implicSurfPress =   /* Surface Pressure implicit factor (0-1)*/
(PID.TID 0000.0001)                 1.000000000000000E+00
(PID.TID 0000.0001)     ;
(PID.TID 0000.0001) implicDiv2Dflow =   /* Barot. Flow Div. implicit factor (0-1)*/
(PID.TID 0000.0001)                 1.000000000000000E+00
(PID.TID 0000.0001)     ;
(PID.TID 0000.0001) exactConserv =   /* Exact Volume Conservation on/off flag*/
(PID.TID 0000.0001)                   F
(PID.TID 0000.0001)     ;
(PID.TID 0000.0001) uniformLin_PhiSurf =   /* use uniform Bo_surf on/off flag*/
(PID.TID 0000.0001)                   T
(PID.TID 0000.0001)     ;
(PID.TID 0000.0001) nonlinFreeSurf =   /* Non-linear Free Surf. options (-1,0,1,2,3)*/
(PID.TID 0000.0001)                       0
(PID.TID 0000.0001)     ;
(PID.TID 0000.0001)      -1,0= Off ; 1,2,3= On, 2=+rescale gU,gV, 3=+update cg2d solv.
(PID.TID 0000.0001) hFacInf =   /* lower threshold for hFac (nonlinFreeSurf only)*/
(PID.TID 0000.0001)                 2.000000000000000E-01
(PID.TID 0000.0001)     ;
(PID.TID 0000.0001) hFacSup =   /* upper threshold for hFac (nonlinFreeSurf only)*/
(PID.TID 0000.0001)                 2.000000000000000E+00
(PID.TID 0000.0001)     ;
(PID.TID 0000.0001) select_rStar =   /* r* Coordinate options (not yet implemented)*/
(PID.TID 0000.0001)                       0
(PID.TID 0000.0001)     ;
(PID.TID 0000.0001) useRealFreshWaterFlux =   /* Real Fresh Water Flux on/off flag*/
(PID.TID 0000.0001)                   T
(PID.TID 0000.0001)     ;
(PID.TID 0000.0001) convertFW2Salt = /* convert F.W. Flux to Salt Flux (-1=use local S)(ppt)*/
(PID.TID 0000.0001)                -1.000000000000000E+00
(PID.TID 0000.0001)     ;
(PID.TID 0000.0001) nonHydrostatic =  /* Non-Hydrostatic on/off flag */
(PID.TID 0000.0001)                   F
(PID.TID 0000.0001)     ;
(PID.TID 0000.0001) momStepping =  /* Momentum equation on/off flag */
(PID.TID 0000.0001)                   T
(PID.TID 0000.0001)     ;
(PID.TID 0000.0001) momAdvection =  /* Momentum advection on/off flag */
(PID.TID 0000.0001)                   T
(PID.TID 0000.0001)     ;
(PID.TID 0000.0001) momViscosity =  /* Momentum viscosity on/off flag */
(PID.TID 0000.0001)                   T
(PID.TID 0000.0001)     ;
(PID.TID 0000.0001) momImplVertAdv =/* Momentum implicit vert. advection on/off*/
(PID.TID 0000.0001)                   F
(PID.TID 0000.0001)     ;
(PID.TID 0000.0001) implicitViscosity = /* Implicit viscosity on/off flag */
(PID.TID 0000.0001)                   F
(PID.TID 0000.0001)     ;
(PID.TID 0000.0001) useCoriolis =  /* Coriolis on/off flag */
(PID.TID 0000.0001)                   T
(PID.TID 0000.0001)     ;
(PID.TID 0000.0001) useCDscheme =  /* CD scheme on/off flag */
(PID.TID 0000.0001)                   T
(PID.TID 0000.0001)     ;
(PID.TID 0000.0001) useJamartWetPoints= /* Coriolis WetPoints method flag */
(PID.TID 0000.0001)                   F
(PID.TID 0000.0001)     ;
(PID.TID 0000.0001) useJamartMomAdv= /* V.I. Non-linear terms Jamart flag */
(PID.TID 0000.0001)                   F
(PID.TID 0000.0001)     ;
(PID.TID 0000.0001) SadournyCoriolis= /* Sadourny Coriolis discr. flag */
(PID.TID 0000.0001)                   F
(PID.TID 0000.0001)     ;
(PID.TID 0000.0001) upwindVorticity= /* Upwind bias vorticity flag */
(PID.TID 0000.0001)                   F
(PID.TID 0000.0001)     ;
(PID.TID 0000.0001) useAbsVorticity= /* Work with f+zeta in Coriolis */
(PID.TID 0000.0001)                   F
(PID.TID 0000.0001)     ;
(PID.TID 0000.0001) highOrderVorticity= /* High order interp. of vort. flag */
(PID.TID 0000.0001)                   F
(PID.TID 0000.0001)     ;
(PID.TID 0000.0001) momForcing =  /* Momentum forcing on/off flag */
(PID.TID 0000.0001)                   T
(PID.TID 0000.0001)     ;
(PID.TID 0000.0001) momPressureForcing =  /* Momentum pressure term on/off flag */
(PID.TID 0000.0001)                   T
(PID.TID 0000.0001)     ;
(PID.TID 0000.0001) staggerTimeStep =   /* Stagger time stepping on/off flag */
(PID.TID 0000.0001)                   F
(PID.TID 0000.0001)     ;
(PID.TID 0000.0001) multiDimAdvection =   /* enable/disable Multi-Dim Advection */
(PID.TID 0000.0001)                   T
(PID.TID 0000.0001)     ;
(PID.TID 0000.0001) useMultiDimAdvec =   /* Multi-Dim Advection is/is-not used */
(PID.TID 0000.0001)                   F
(PID.TID 0000.0001)     ;
(PID.TID 0000.0001) implicitDiffusion =/* Implicit Diffusion on/off flag */
(PID.TID 0000.0001)                   T
(PID.TID 0000.0001)     ;
(PID.TID 0000.0001) tempStepping =  /* Temperature equation on/off flag */
(PID.TID 0000.0001)                   T
(PID.TID 0000.0001)     ;
(PID.TID 0000.0001) tempAdvection=  /* Temperature advection on/off flag */
(PID.TID 0000.0001)                   T
(PID.TID 0000.0001)     ;
(PID.TID 0000.0001) tempImplVertAdv =/* Temp. implicit vert. advection on/off */
(PID.TID 0000.0001)                   F
(PID.TID 0000.0001)     ;
(PID.TID 0000.0001) tempForcing  =  /* Temperature forcing on/off flag */
(PID.TID 0000.0001)                   T
(PID.TID 0000.0001)     ;
(PID.TID 0000.0001) saltStepping =  /* Salinity equation on/off flag */
(PID.TID 0000.0001)                   T
(PID.TID 0000.0001)     ;
(PID.TID 0000.0001) saltAdvection=  /* Salinity advection on/off flag */
(PID.TID 0000.0001)                   T
(PID.TID 0000.0001)     ;
(PID.TID 0000.0001) saltImplVertAdv =/* Sali. implicit vert. advection on/off */
(PID.TID 0000.0001)                   F
(PID.TID 0000.0001)     ;
(PID.TID 0000.0001) saltForcing  =  /* Salinity forcing on/off flag */
(PID.TID 0000.0001)                   T
(PID.TID 0000.0001)     ;
(PID.TID 0000.0001) //
(PID.TID 0000.0001) // Elliptic solver(s) paramters ( PARM02 in namelist )
(PID.TID 0000.0001) //
(PID.TID 0000.0001) cg2dMaxIters =   /* Upper limit on 2d con. grad iterations  */
(PID.TID 0000.0001)                     500
(PID.TID 0000.0001)     ;
(PID.TID 0000.0001) cg2dChkResFreq =   /* 2d con. grad convergence test frequency */
(PID.TID 0000.0001)                       1
(PID.TID 0000.0001)     ;
(PID.TID 0000.0001) cg2dTargetResidual =   /* 2d con. grad target residual  */
(PID.TID 0000.0001)                 1.000000000000000E-13
(PID.TID 0000.0001)     ;
(PID.TID 0000.0001) cg2dTargetResWunit =   /* CG2d target residual [W units] */
(PID.TID 0000.0001)                -1.000000000000000E+00
(PID.TID 0000.0001)     ;
(PID.TID 0000.0001) cg2dPreCondFreq =   /* Freq. for updating cg2d preconditioner */
(PID.TID 0000.0001)                       1
(PID.TID 0000.0001)     ;
(PID.TID 0000.0001) //
(PID.TID 0000.0001) // Time stepping paramters ( PARM03 in namelist )
(PID.TID 0000.0001) //
(PID.TID 0000.0001) nIter0 =   /* Base timestep number  */
(PID.TID 0000.0001)                       0
(PID.TID 0000.0001)     ;
(PID.TID 0000.0001) nTimeSteps =   /* Number of timesteps */
(PID.TID 0000.0001)                      20
(PID.TID 0000.0001)     ;
(PID.TID 0000.0001) deltatTmom =   /* Momentum equation timestep ( s ) */
(PID.TID 0000.0001)                 1.200000000000000E+03
(PID.TID 0000.0001)     ;
(PID.TID 0000.0001) deltaTfreesurf =   /* FreeSurface equation timestep ( s ) */
(PID.TID 0000.0001)                 1.200000000000000E+03
(PID.TID 0000.0001)     ;
(PID.TID 0000.0001) deltatTtracer =   /* Tracer equation timestep ( s ) */
(PID.TID 0000.0001)                 4.320000000000000E+04
(PID.TID 0000.0001)     ;
(PID.TID 0000.0001) deltatTClock  =   /* Model clock timestep ( s ) */
(PID.TID 0000.0001)                 4.320000000000000E+04
(PID.TID 0000.0001)     ;
(PID.TID 0000.0001) cAdjFreq =   /* Convective adjustment interval ( s ) */
(PID.TID 0000.0001)                 0.000000000000000E+00
(PID.TID 0000.0001)     ;
(PID.TID 0000.0001) forcing_In_AB =   /* put T,S Forcing in Adams-Bash. stepping */
(PID.TID 0000.0001)                   T
(PID.TID 0000.0001)     ;
(PID.TID 0000.0001) abeps =   /* Adams-Bashforth stabilizing weight */
(PID.TID 0000.0001)                 1.000000000000000E-01
(PID.TID 0000.0001)     ;
(PID.TID 0000.0001) tauCD =   /* CD coupling time-scale ( s ) */
(PID.TID 0000.0001)                 3.214280000000000E+05
(PID.TID 0000.0001)     ;
(PID.TID 0000.0001) rCD =   /* Normalised CD coupling parameter */
(PID.TID 0000.0001)                 9.962666600296178E-01
(PID.TID 0000.0001)     ;
(PID.TID 0000.0001) startTime =   /* Run start time ( s ). */
(PID.TID 0000.0001)                 0.000000000000000E+00
(PID.TID 0000.0001)     ;
(PID.TID 0000.0001) endTime =   /* Integration ending time ( s ). */
(PID.TID 0000.0001)                 8.640000000000000E+05
(PID.TID 0000.0001)     ;
(PID.TID 0000.0001) pChkPtFreq =   /* Permanent restart/checkpoint file interval ( s ). */
(PID.TID 0000.0001)                 3.110400000000000E+08
(PID.TID 0000.0001)     ;
(PID.TID 0000.0001) chkPtFreq =   /* Rolling restart/checkpoint file interval ( s ). */
(PID.TID 0000.0001)                 0.000000000000000E+00
(PID.TID 0000.0001)     ;
(PID.TID 0000.0001) pickup_write_mdsio =   /* Model IO flag. */
(PID.TID 0000.0001)                   F
(PID.TID 0000.0001)     ;
(PID.TID 0000.0001) pickup_read_mdsio =   /* Model IO flag. */
(PID.TID 0000.0001)                   T
(PID.TID 0000.0001)     ;
(PID.TID 0000.0001) pickup_write_immed =   /* Model IO flag. */
(PID.TID 0000.0001)                   F
(PID.TID 0000.0001)     ;
(PID.TID 0000.0001) dumpFreq =   /* Model state write out interval ( s ). */
(PID.TID 0000.0001)                 8.640000000000000E+05
(PID.TID 0000.0001)     ;
(PID.TID 0000.0001) snapshot_mdsio =   /* Model IO flag. */
(PID.TID 0000.0001)                   F
(PID.TID 0000.0001)     ;
(PID.TID 0000.0001) monitorFreq =   /* Monitor output interval ( s ). */
(PID.TID 0000.0001)                 1.000000000000000E+00
(PID.TID 0000.0001)     ;
(PID.TID 0000.0001) monitor_stdio =   /* Model IO flag. */
(PID.TID 0000.0001)                   T
(PID.TID 0000.0001)     ;
(PID.TID 0000.0001) externForcingPeriod =   /* forcing period (s) */
(PID.TID 0000.0001)                 2.592000000000000E+06
(PID.TID 0000.0001)     ;
(PID.TID 0000.0001) externForcingCycle =   /* period of the cyle (s). */
(PID.TID 0000.0001)                 3.110400000000000E+07
(PID.TID 0000.0001)     ;
(PID.TID 0000.0001) tauThetaClimRelax =   /* relaxation time scale (s) */
(PID.TID 0000.0001)                 5.184000000000000E+06
(PID.TID 0000.0001)     ;
(PID.TID 0000.0001) tauSaltClimRelax =   /* relaxation time scale (s) */
(PID.TID 0000.0001)                 1.555200000000000E+07
(PID.TID 0000.0001)     ;
(PID.TID 0000.0001) latBandClimRelax =   /* max. Lat. where relaxation */
(PID.TID 0000.0001)                 1.800000000000000E+02
(PID.TID 0000.0001)     ;
(PID.TID 0000.0001) //
(PID.TID 0000.0001) // Gridding paramters ( PARM04 in namelist )
(PID.TID 0000.0001) //
(PID.TID 0000.0001) usingCartesianGrid =   /* Cartesian coordinates flag ( True / False ) */
(PID.TID 0000.0001)                   F
(PID.TID 0000.0001)     ;
(PID.TID 0000.0001) usingSphericalPolarGrid =   /* Spherical coordinates flag ( True / False ) */
(PID.TID 0000.0001)                   T
(PID.TID 0000.0001)     ;
(PID.TID 0000.0001) usingCylindricalGrid =   /* Spherical coordinates flag ( True / False ) */
(PID.TID 0000.0001)                   F
(PID.TID 0000.0001)     ;
(PID.TID 0000.0001) groundAtK1 =   /* Lower Boundary (ground) at the surface(k=1) ( T / F ) */
(PID.TID 0000.0001)                   F
(PID.TID 0000.0001)     ;
(PID.TID 0000.0001) Ro_SeaLevel =   /* r(1) ( units of r ) */
(PID.TID 0000.0001)                 0.000000000000000E+00
(PID.TID 0000.0001)     ;
(PID.TID 0000.0001) rkFac =   /* minus Vertical index orientation  */
(PID.TID 0000.0001)                 1.000000000000000E+00
(PID.TID 0000.0001)     ;
(PID.TID 0000.0001) horiVertRatio =   /* Ratio on units : Horiz - Vertical */
(PID.TID 0000.0001)                 1.000000000000000E+00
(PID.TID 0000.0001)     ;
(PID.TID 0000.0001) drC =   /* C spacing ( units of r ) */
(PID.TID 0000.0001)                 2.500000000000000E+01,      /* K =  1 */
(PID.TID 0000.0001)                 6.000000000000000E+01,      /* K =  2 */
(PID.TID 0000.0001)                 8.500000000000000E+01,      /* K =  3 */
(PID.TID 0000.0001)                 1.200000000000000E+02,      /* K =  4 */
(PID.TID 0000.0001)                 1.650000000000000E+02,      /* K =  5 */
(PID.TID 0000.0001)                 2.150000000000000E+02,      /* K =  6 */
(PID.TID 0000.0001)                 2.650000000000000E+02,      /* K =  7 */
(PID.TID 0000.0001)                 3.150000000000000E+02,      /* K =  8 */
(PID.TID 0000.0001)                 3.650000000000000E+02,      /* K =  9 */
(PID.TID 0000.0001)                 4.150000000000000E+02,      /* K = 10 */
(PID.TID 0000.0001)                 4.650000000000000E+02,      /* K = 11 */
(PID.TID 0000.0001)                 5.150000000000000E+02,      /* K = 12 */
(PID.TID 0000.0001)                 5.650000000000000E+02,      /* K = 13 */
(PID.TID 0000.0001)                 6.150000000000000E+02,      /* K = 14 */
(PID.TID 0000.0001)                 6.650000000000000E+02       /* K = 15 */
(PID.TID 0000.0001)     ;
(PID.TID 0000.0001) drF =   /* W spacing ( units of r ) */
(PID.TID 0000.0001)                 5.000000000000000E+01,      /* K =  1 */
(PID.TID 0000.0001)                 7.000000000000000E+01,      /* K =  2 */
(PID.TID 0000.0001)                 1.000000000000000E+02,      /* K =  3 */
(PID.TID 0000.0001)                 1.400000000000000E+02,      /* K =  4 */
(PID.TID 0000.0001)                 1.900000000000000E+02,      /* K =  5 */
(PID.TID 0000.0001)                 2.400000000000000E+02,      /* K =  6 */
(PID.TID 0000.0001)                 2.900000000000000E+02,      /* K =  7 */
(PID.TID 0000.0001)                 3.400000000000000E+02,      /* K =  8 */
(PID.TID 0000.0001)                 3.900000000000000E+02,      /* K =  9 */
(PID.TID 0000.0001)                 4.400000000000000E+02,      /* K = 10 */
(PID.TID 0000.0001)                 4.900000000000000E+02,      /* K = 11 */
(PID.TID 0000.0001)                 5.400000000000000E+02,      /* K = 12 */
(PID.TID 0000.0001)                 5.900000000000000E+02,      /* K = 13 */
(PID.TID 0000.0001)                 6.400000000000000E+02,      /* K = 14 */
(PID.TID 0000.0001)                 6.900000000000000E+02       /* K = 15 */
(PID.TID 0000.0001)     ;
(PID.TID 0000.0001) delX =   /* U spacing ( m - cartesian, degrees - spherical ) */
(PID.TID 0000.0001)    90 @  4.000000000000000E+00              /* I =  1: 90 */
(PID.TID 0000.0001)     ;
(PID.TID 0000.0001) delY =   /* V spacing ( m - cartesian, degrees - spherical ) */
(PID.TID 0000.0001)    40 @  4.000000000000000E+00              /* J =  1: 40 */
(PID.TID 0000.0001)     ;
(PID.TID 0000.0001) phiMin =    /* South edge (ignored - cartesian, degrees - spherical ) */
(PID.TID 0000.0001)                -8.000000000000000E+01
(PID.TID 0000.0001)     ;
(PID.TID 0000.0001) thetaMin =    /* West edge ( ignored - cartesian, degrees - spherical ) */
(PID.TID 0000.0001)                 0.000000000000000E+00
(PID.TID 0000.0001)     ;
(PID.TID 0000.0001) rSphere =    /* Radius ( ignored - cartesian, m - spherical ) */
(PID.TID 0000.0001)                 6.370000000000000E+06
(PID.TID 0000.0001)     ;
(PID.TID 0000.0001) xcoord =   /* P-point X coord ( m - cartesian, degrees - spherical ) */
(PID.TID 0000.0001)                 2.000000000000000E+00,      /* I =  1 */
(PID.TID 0000.0001)                 6.000000000000000E+00,      /* I =  2 */
(PID.TID 0000.0001)                 1.000000000000000E+01,      /* I =  3 */
(PID.TID 0000.0001)                 1.400000000000000E+01,      /* I =  4 */
(PID.TID 0000.0001)                 1.800000000000000E+01,      /* I =  5 */
(PID.TID 0000.0001)                 2.200000000000000E+01,      /* I =  6 */
(PID.TID 0000.0001)                 2.600000000000000E+01,      /* I =  7 */
(PID.TID 0000.0001)                 3.000000000000000E+01,      /* I =  8 */
(PID.TID 0000.0001)                 3.400000000000000E+01,      /* I =  9 */
(PID.TID 0000.0001)                 3.800000000000000E+01,      /* I = 10 */
(PID.TID 0000.0001)                 4.200000000000000E+01,      /* I = 11 */
(PID.TID 0000.0001)                 4.600000000000000E+01,      /* I = 12 */
(PID.TID 0000.0001)                 5.000000000000000E+01,      /* I = 13 */
(PID.TID 0000.0001)                 5.400000000000000E+01,      /* I = 14 */
(PID.TID 0000.0001)                 5.800000000000000E+01,      /* I = 15 */
(PID.TID 0000.0001)                 6.200000000000000E+01,      /* I = 16 */
(PID.TID 0000.0001)                 6.600000000000000E+01,      /* I = 17 */
(PID.TID 0000.0001)                 7.000000000000000E+01,      /* I = 18 */
(PID.TID 0000.0001)                 7.400000000000000E+01,      /* I = 19 */
(PID.TID 0000.0001)                 7.800000000000000E+01,      /* I = 20 */
(PID.TID 0000.0001)                 8.200000000000000E+01,      /* I = 21 */
(PID.TID 0000.0001)                 8.600000000000000E+01,      /* I = 22 */
(PID.TID 0000.0001)                 9.000000000000000E+01,      /* I = 23 */
(PID.TID 0000.0001)                 9.400000000000000E+01,      /* I = 24 */
(PID.TID 0000.0001)                 9.800000000000000E+01,      /* I = 25 */
(PID.TID 0000.0001)                 1.020000000000000E+02,      /* I = 26 */
(PID.TID 0000.0001)                 1.060000000000000E+02,      /* I = 27 */
(PID.TID 0000.0001)                 1.100000000000000E+02,      /* I = 28 */
(PID.TID 0000.0001)                 1.140000000000000E+02,      /* I = 29 */
(PID.TID 0000.0001)                 1.180000000000000E+02,      /* I = 30 */
(PID.TID 0000.0001)                 1.220000000000000E+02,      /* I = 31 */
(PID.TID 0000.0001)                 1.260000000000000E+02,      /* I = 32 */
(PID.TID 0000.0001)                 1.300000000000000E+02,      /* I = 33 */
(PID.TID 0000.0001)                 1.340000000000000E+02,      /* I = 34 */
(PID.TID 0000.0001)                 1.380000000000000E+02,      /* I = 35 */
(PID.TID 0000.0001)                 1.420000000000000E+02,      /* I = 36 */
(PID.TID 0000.0001)                 1.460000000000000E+02,      /* I = 37 */
(PID.TID 0000.0001)                 1.500000000000000E+02,      /* I = 38 */
(PID.TID 0000.0001)                 1.540000000000000E+02,      /* I = 39 */
(PID.TID 0000.0001)                 1.580000000000000E+02,      /* I = 40 */
(PID.TID 0000.0001)                 1.620000000000000E+02,      /* I = 41 */
(PID.TID 0000.0001)                 1.660000000000000E+02,      /* I = 42 */
(PID.TID 0000.0001)                 1.700000000000000E+02,      /* I = 43 */
(PID.TID 0000.0001)                 1.740000000000000E+02,      /* I = 44 */
(PID.TID 0000.0001)                 1.780000000000000E+02,      /* I = 45 */
(PID.TID 0000.0001)                 1.820000000000000E+02,      /* I = 46 */
(PID.TID 0000.0001)                 1.860000000000000E+02,      /* I = 47 */
(PID.TID 0000.0001)                 1.900000000000000E+02,      /* I = 48 */
(PID.TID 0000.0001)                 1.940000000000000E+02,      /* I = 49 */
(PID.TID 0000.0001)                 1.980000000000000E+02,      /* I = 50 */
(PID.TID 0000.0001)                 2.020000000000000E+02,      /* I = 51 */
(PID.TID 0000.0001)                 2.060000000000000E+02,      /* I = 52 */
(PID.TID 0000.0001)                 2.100000000000000E+02,      /* I = 53 */
(PID.TID 0000.0001)                 2.140000000000000E+02,      /* I = 54 */
(PID.TID 0000.0001)                 2.180000000000000E+02,      /* I = 55 */
(PID.TID 0000.0001)                 2.220000000000000E+02,      /* I = 56 */
(PID.TID 0000.0001)                 2.260000000000000E+02,      /* I = 57 */
(PID.TID 0000.0001)                 2.300000000000000E+02,      /* I = 58 */
(PID.TID 0000.0001)                 2.340000000000000E+02,      /* I = 59 */
(PID.TID 0000.0001)                 2.380000000000000E+02,      /* I = 60 */
(PID.TID 0000.0001)                 2.420000000000000E+02,      /* I = 61 */
(PID.TID 0000.0001)                 2.460000000000000E+02,      /* I = 62 */
(PID.TID 0000.0001)                 2.500000000000000E+02,      /* I = 63 */
(PID.TID 0000.0001)                 2.540000000000000E+02,      /* I = 64 */
(PID.TID 0000.0001)                 2.580000000000000E+02,      /* I = 65 */
(PID.TID 0000.0001)                 2.620000000000000E+02,      /* I = 66 */
(PID.TID 0000.0001)                 2.660000000000000E+02,      /* I = 67 */
(PID.TID 0000.0001)                 2.700000000000000E+02,      /* I = 68 */
(PID.TID 0000.0001)                 2.740000000000000E+02,      /* I = 69 */
(PID.TID 0000.0001)                 2.780000000000000E+02,      /* I = 70 */
(PID.TID 0000.0001)                 2.820000000000000E+02,      /* I = 71 */
(PID.TID 0000.0001)                 2.860000000000000E+02,      /* I = 72 */
(PID.TID 0000.0001)                 2.900000000000000E+02,      /* I = 73 */
(PID.TID 0000.0001)                 2.940000000000000E+02,      /* I = 74 */
(PID.TID 0000.0001)                 2.980000000000000E+02,      /* I = 75 */
(PID.TID 0000.0001)                 3.020000000000000E+02,      /* I = 76 */
(PID.TID 0000.0001)                 3.060000000000000E+02,      /* I = 77 */
(PID.TID 0000.0001)                 3.100000000000000E+02,      /* I = 78 */
(PID.TID 0000.0001)                 3.140000000000000E+02,      /* I = 79 */
(PID.TID 0000.0001)                 3.180000000000000E+02,      /* I = 80 */
(PID.TID 0000.0001)                 3.220000000000000E+02,      /* I = 81 */
(PID.TID 0000.0001)                 3.260000000000000E+02,      /* I = 82 */
(PID.TID 0000.0001)                 3.300000000000000E+02,      /* I = 83 */
(PID.TID 0000.0001)                 3.340000000000000E+02,      /* I = 84 */
(PID.TID 0000.0001)                 3.380000000000000E+02,      /* I = 85 */
(PID.TID 0000.0001)                 3.420000000000000E+02,      /* I = 86 */
(PID.TID 0000.0001)                 3.460000000000000E+02,      /* I = 87 */
(PID.TID 0000.0001)                 3.500000000000000E+02,      /* I = 88 */
(PID.TID 0000.0001)                 3.540000000000000E+02,      /* I = 89 */
(PID.TID 0000.0001)                 3.580000000000000E+02       /* I = 90 */
(PID.TID 0000.0001)     ;
(PID.TID 0000.0001) ycoord =   /* P-point Y coord ( m - cartesian, degrees - spherical ) */
(PID.TID 0000.0001)                -7.800000000000000E+01,      /* J =  1 */
(PID.TID 0000.0001)                -7.400000000000000E+01,      /* J =  2 */
(PID.TID 0000.0001)                -7.000000000000000E+01,      /* J =  3 */
(PID.TID 0000.0001)                -6.600000000000000E+01,      /* J =  4 */
(PID.TID 0000.0001)                -6.200000000000000E+01,      /* J =  5 */
(PID.TID 0000.0001)                -5.800000000000000E+01,      /* J =  6 */
(PID.TID 0000.0001)                -5.400000000000000E+01,      /* J =  7 */
(PID.TID 0000.0001)                -5.000000000000000E+01,      /* J =  8 */
(PID.TID 0000.0001)                -4.600000000000000E+01,      /* J =  9 */
(PID.TID 0000.0001)                -4.200000000000000E+01,      /* J = 10 */
(PID.TID 0000.0001)                -3.800000000000000E+01,      /* J = 11 */
(PID.TID 0000.0001)                -3.400000000000000E+01,      /* J = 12 */
(PID.TID 0000.0001)                -3.000000000000000E+01,      /* J = 13 */
(PID.TID 0000.0001)                -2.600000000000000E+01,      /* J = 14 */
(PID.TID 0000.0001)                -2.200000000000000E+01,      /* J = 15 */
(PID.TID 0000.0001)                -1.800000000000000E+01,      /* J = 16 */
(PID.TID 0000.0001)                -1.400000000000000E+01,      /* J = 17 */
(PID.TID 0000.0001)                -1.000000000000000E+01,      /* J = 18 */
(PID.TID 0000.0001)                -6.000000000000000E+00,      /* J = 19 */
(PID.TID 0000.0001)                -2.000000000000000E+00,      /* J = 20 */
(PID.TID 0000.0001)                 2.000000000000000E+00,      /* J = 21 */
(PID.TID 0000.0001)                 6.000000000000000E+00,      /* J = 22 */
(PID.TID 0000.0001)                 1.000000000000000E+01,      /* J = 23 */
(PID.TID 0000.0001)                 1.400000000000000E+01,      /* J = 24 */
(PID.TID 0000.0001)                 1.800000000000000E+01,      /* J = 25 */
(PID.TID 0000.0001)                 2.200000000000000E+01,      /* J = 26 */
(PID.TID 0000.0001)                 2.600000000000000E+01,      /* J = 27 */
(PID.TID 0000.0001)                 3.000000000000000E+01,      /* J = 28 */
(PID.TID 0000.0001)                 3.400000000000000E+01,      /* J = 29 */
(PID.TID 0000.0001)                 3.800000000000000E+01,      /* J = 30 */
(PID.TID 0000.0001)                 4.200000000000000E+01,      /* J = 31 */
(PID.TID 0000.0001)                 4.600000000000000E+01,      /* J = 32 */
(PID.TID 0000.0001)                 5.000000000000000E+01,      /* J = 33 */
(PID.TID 0000.0001)                 5.400000000000000E+01,      /* J = 34 */
(PID.TID 0000.0001)                 5.800000000000000E+01,      /* J = 35 */
(PID.TID 0000.0001)                 6.200000000000000E+01,      /* J = 36 */
(PID.TID 0000.0001)                 6.600000000000000E+01,      /* J = 37 */
(PID.TID 0000.0001)                 7.000000000000000E+01,      /* J = 38 */
(PID.TID 0000.0001)                 7.400000000000000E+01,      /* J = 39 */
(PID.TID 0000.0001)                 7.800000000000000E+01       /* J = 40 */
(PID.TID 0000.0001)     ;
(PID.TID 0000.0001) rcoord =   /* P-point R coordinate (  units of r ) */
(PID.TID 0000.0001)                -2.500000000000000E+01,      /* K =  1 */
(PID.TID 0000.0001)                -8.500000000000000E+01,      /* K =  2 */
(PID.TID 0000.0001)                -1.700000000000000E+02,      /* K =  3 */
(PID.TID 0000.0001)                -2.900000000000000E+02,      /* K =  4 */
(PID.TID 0000.0001)                -4.550000000000000E+02,      /* K =  5 */
(PID.TID 0000.0001)                -6.700000000000000E+02,      /* K =  6 */
(PID.TID 0000.0001)                -9.350000000000000E+02,      /* K =  7 */
(PID.TID 0000.0001)                -1.250000000000000E+03,      /* K =  8 */
(PID.TID 0000.0001)                -1.615000000000000E+03,      /* K =  9 */
(PID.TID 0000.0001)                -2.030000000000000E+03,      /* K = 10 */
(PID.TID 0000.0001)                -2.495000000000000E+03,      /* K = 11 */
(PID.TID 0000.0001)                -3.010000000000000E+03,      /* K = 12 */
(PID.TID 0000.0001)                -3.575000000000000E+03,      /* K = 13 */
(PID.TID 0000.0001)                -4.190000000000000E+03,      /* K = 14 */
(PID.TID 0000.0001)                -4.855000000000000E+03       /* K = 15 */
(PID.TID 0000.0001)     ;
(PID.TID 0000.0001) rF =   /* W-Interf. R coordinate (  units of r ) */
(PID.TID 0000.0001)                 0.000000000000000E+00,      /* K =  1 */
(PID.TID 0000.0001)                -5.000000000000000E+01,      /* K =  2 */
(PID.TID 0000.0001)                -1.200000000000000E+02,      /* K =  3 */
(PID.TID 0000.0001)                -2.200000000000000E+02,      /* K =  4 */
(PID.TID 0000.0001)                -3.600000000000000E+02,      /* K =  5 */
(PID.TID 0000.0001)                -5.500000000000000E+02,      /* K =  6 */
(PID.TID 0000.0001)                -7.900000000000000E+02,      /* K =  7 */
(PID.TID 0000.0001)                -1.080000000000000E+03,      /* K =  8 */
(PID.TID 0000.0001)                -1.420000000000000E+03,      /* K =  9 */
(PID.TID 0000.0001)                -1.810000000000000E+03,      /* K = 10 */
(PID.TID 0000.0001)                -2.250000000000000E+03,      /* K = 11 */
(PID.TID 0000.0001)                -2.740000000000000E+03,      /* K = 12 */
(PID.TID 0000.0001)                -3.280000000000000E+03,      /* K = 13 */
(PID.TID 0000.0001)                -3.870000000000000E+03,      /* K = 14 */
(PID.TID 0000.0001)                -4.510000000000000E+03,      /* K = 15 */
(PID.TID 0000.0001)                -5.200000000000000E+03       /* K = 16 */
(PID.TID 0000.0001)     ;
(PID.TID 0000.0001) dxF =  /* dxF(:,1,:,1) ( m - cartesian, degrees - spherical ) */
(PID.TID 0000.0001)    90 @  9.246038586187513E+04              /* I =  1: 90 */
(PID.TID 0000.0001)     ;
(PID.TID 0000.0001) dxF =  /* dxF(1,:,1,:) ( m - cartesian, degrees - spherical ) */
(PID.TID 0000.0001)                 9.246038586187513E+04,      /* J =  1 */
(PID.TID 0000.0001)                 1.225786591246834E+05,      /* J =  2 */
(PID.TID 0000.0001)                 1.520997414818001E+05,      /* J =  3 */
(PID.TID 0000.0001)                 1.808798091874300E+05,      /* J =  4 */
(PID.TID 0000.0001)                 2.087786486446736E+05,      /* J =  5 */
(PID.TID 0000.0001)                 2.356603395120766E+05,      /* J =  6 */
(PID.TID 0000.0001)                 2.613939168938713E+05,      /* J =  7 */
(PID.TID 0000.0001)                 2.858540093877838E+05,      /* J =  8 */
(PID.TID 0000.0001)                 3.089214498819035E+05,      /* J =  9 */
(PID.TID 0000.0001)                 3.304838561248741E+05,      /* J = 10 */
(PID.TID 0000.0001)                 3.504361782409254E+05,      /* J = 11 */
(PID.TID 0000.0001)                 3.686812105223083E+05,      /* J = 12 */
(PID.TID 0000.0001)                 3.851300650057322E+05,      /* J = 13 */
(PID.TID 0000.0001)                 3.997026045255871E+05,      /* J = 14 */
(PID.TID 0000.0001)                 4.123278331341585E+05,      /* J = 15 */
(PID.TID 0000.0001)                 4.229442419867491E+05,      /* J = 16 */
(PID.TID 0000.0001)                 4.315001090065869E+05,      /* J = 17 */
(PID.TID 0000.0001)                 4.379537508695839E+05,      /* J = 18 */
(PID.TID 0000.0001)                 4.422737260813013E+05,      /* J = 19 */
(PID.TID 0000.0001)     2 @  4.444389881567501E+05,             /* J = 20: 21 */
(PID.TID 0000.0001)                 4.422737260813013E+05,      /* J = 22 */
(PID.TID 0000.0001)                 4.379537508695839E+05,      /* J = 23 */
(PID.TID 0000.0001)                 4.315001090065869E+05,      /* J = 24 */
(PID.TID 0000.0001)                 4.229442419867491E+05,      /* J = 25 */
(PID.TID 0000.0001)                 4.123278331341585E+05,      /* J = 26 */
(PID.TID 0000.0001)                 3.997026045255871E+05,      /* J = 27 */
(PID.TID 0000.0001)                 3.851300650057322E+05,      /* J = 28 */
(PID.TID 0000.0001)                 3.686812105223083E+05,      /* J = 29 */
(PID.TID 0000.0001)                 3.504361782409254E+05,      /* J = 30 */
(PID.TID 0000.0001)                 3.304838561248741E+05,      /* J = 31 */
(PID.TID 0000.0001)                 3.089214498819035E+05,      /* J = 32 */
(PID.TID 0000.0001)                 2.858540093877838E+05,      /* J = 33 */
(PID.TID 0000.0001)                 2.613939168938713E+05,      /* J = 34 */
(PID.TID 0000.0001)                 2.356603395120766E+05,      /* J = 35 */
(PID.TID 0000.0001)                 2.087786486446736E+05,      /* J = 36 */
(PID.TID 0000.0001)                 1.808798091874300E+05,      /* J = 37 */
(PID.TID 0000.0001)                 1.520997414818001E+05,      /* J = 38 */
(PID.TID 0000.0001)                 1.225786591246834E+05,      /* J = 39 */
(PID.TID 0000.0001)                 9.246038586187513E+04       /* J = 40 */
(PID.TID 0000.0001)     ;
(PID.TID 0000.0001) dyF =  /* dyF(:,1,:,1) ( m - cartesian, degrees - spherical ) */
(PID.TID 0000.0001)    90 @  4.447098934081552E+05              /* I =  1: 90 */
(PID.TID 0000.0001)     ;
(PID.TID 0000.0001) dyF =  /* dyF(1,:,1,:) ( m - cartesian, degrees - spherical ) */
(PID.TID 0000.0001)    40 @  4.447098934081552E+05              /* J =  1: 40 */
(PID.TID 0000.0001)     ;
(PID.TID 0000.0001) dxG =  /* dxG(:,1,:,1) ( m - cartesian, degrees - spherical ) */
(PID.TID 0000.0001)    90 @  7.722306258078101E+04              /* I =  1: 90 */
(PID.TID 0000.0001)     ;
(PID.TID 0000.0001) dxG =  /* dxG(1,:,1,:) ( m - cartesian, degrees - spherical ) */
(PID.TID 0000.0001)                 7.722306258078101E+04,      /* J =  1 */
(PID.TID 0000.0001)                 1.075850604052271E+05,      /* J =  2 */
(PID.TID 0000.0001)                 1.374229146297914E+05,      /* J =  3 */
(PID.TID 0000.0001)                 1.665912582279823E+05,      /* J =  4 */
(PID.TID 0000.0001)                 1.949479859617814E+05,      /* J =  5 */
(PID.TID 0000.0001)                 2.223549467040776E+05,      /* J =  6 */
(PID.TID 0000.0001)                 2.486786164970726E+05,      /* J =  7 */
(PID.TID 0000.0001)                 2.737907490675810E+05,      /* J =  8 */
(PID.TID 0000.0001)                 2.975690006299820E+05,      /* J =  9 */
(PID.TID 0000.0001)                 3.198975259328452E+05,      /* J = 10 */
(PID.TID 0000.0001)                 3.406675426453503E+05,      /* J = 11 */
(PID.TID 0000.0001)                 3.597778613338689E+05,      /* J = 12 */
(PID.TID 0000.0001)                 3.771353784467131E+05,      /* J = 13 */
(PID.TID 0000.0001)                 3.926555299052806E+05,      /* J = 14 */
(PID.TID 0000.0001)                 4.062627030917454E+05,      /* J = 15 */
(PID.TID 0000.0001)                 4.178906052261313E+05,      /* J = 16 */
(PID.TID 0000.0001)                 4.274825863380723E+05,      /* J = 17 */
(PID.TID 0000.0001)                 4.349919152597734E+05,      /* J = 18 */
(PID.TID 0000.0001)                 4.403820072955634E+05,      /* J = 19 */
(PID.TID 0000.0001)                 4.436266024588540E+05,      /* J = 20 */
(PID.TID 0000.0001)                 4.447098934081552E+05,      /* J = 21 */
(PID.TID 0000.0001)                 4.436266024588540E+05,      /* J = 22 */
(PID.TID 0000.0001)                 4.403820072955634E+05,      /* J = 23 */
(PID.TID 0000.0001)                 4.349919152597734E+05,      /* J = 24 */
(PID.TID 0000.0001)                 4.274825863380723E+05,      /* J = 25 */
(PID.TID 0000.0001)                 4.178906052261313E+05,      /* J = 26 */
(PID.TID 0000.0001)                 4.062627030917454E+05,      /* J = 27 */
(PID.TID 0000.0001)                 3.926555299052806E+05,      /* J = 28 */
(PID.TID 0000.0001)                 3.771353784467131E+05,      /* J = 29 */
(PID.TID 0000.0001)                 3.597778613338689E+05,      /* J = 30 */
(PID.TID 0000.0001)                 3.406675426453503E+05,      /* J = 31 */
(PID.TID 0000.0001)                 3.198975259328452E+05,      /* J = 32 */
(PID.TID 0000.0001)                 2.975690006299820E+05,      /* J = 33 */
(PID.TID 0000.0001)                 2.737907490675810E+05,      /* J = 34 */
(PID.TID 0000.0001)                 2.486786164970726E+05,      /* J = 35 */
(PID.TID 0000.0001)                 2.223549467040776E+05,      /* J = 36 */
(PID.TID 0000.0001)                 1.949479859617814E+05,      /* J = 37 */
(PID.TID 0000.0001)                 1.665912582279823E+05,      /* J = 38 */
(PID.TID 0000.0001)                 1.374229146297914E+05,      /* J = 39 */
(PID.TID 0000.0001)                 1.075850604052271E+05       /* J = 40 */
(PID.TID 0000.0001)     ;
(PID.TID 0000.0001) dyG =  /* dyG(:,1,:,1) ( m - cartesian, degrees - spherical ) */
(PID.TID 0000.0001)    90 @  4.447098934081552E+05              /* I =  1: 90 */
(PID.TID 0000.0001)     ;
(PID.TID 0000.0001) dyG =  /* dyG(1,:,1,:) ( m - cartesian, degrees - spherical ) */
(PID.TID 0000.0001)    40 @  4.447098934081552E+05              /* J =  1: 40 */
(PID.TID 0000.0001)     ;
(PID.TID 0000.0001) dxC =  /* dxC(:,1,:,1) ( m - cartesian, degrees - spherical ) */
(PID.TID 0000.0001)    90 @  9.246038586187513E+04              /* I =  1: 90 */
(PID.TID 0000.0001)     ;
(PID.TID 0000.0001) dxC =  /* dxC(1,:,1,:) ( m - cartesian, degrees - spherical ) */
(PID.TID 0000.0001)                 9.246038586187513E+04,      /* J =  1 */
(PID.TID 0000.0001)                 1.225786591246834E+05,      /* J =  2 */
(PID.TID 0000.0001)                 1.520997414818001E+05,      /* J =  3 */
(PID.TID 0000.0001)                 1.808798091874300E+05,      /* J =  4 */
(PID.TID 0000.0001)                 2.087786486446736E+05,      /* J =  5 */
(PID.TID 0000.0001)                 2.356603395120766E+05,      /* J =  6 */
(PID.TID 0000.0001)                 2.613939168938713E+05,      /* J =  7 */
(PID.TID 0000.0001)                 2.858540093877838E+05,      /* J =  8 */
(PID.TID 0000.0001)                 3.089214498819035E+05,      /* J =  9 */
(PID.TID 0000.0001)                 3.304838561248741E+05,      /* J = 10 */
(PID.TID 0000.0001)                 3.504361782409254E+05,      /* J = 11 */
(PID.TID 0000.0001)                 3.686812105223083E+05,      /* J = 12 */
(PID.TID 0000.0001)                 3.851300650057322E+05,      /* J = 13 */
(PID.TID 0000.0001)                 3.997026045255871E+05,      /* J = 14 */
(PID.TID 0000.0001)                 4.123278331341585E+05,      /* J = 15 */
(PID.TID 0000.0001)                 4.229442419867491E+05,      /* J = 16 */
(PID.TID 0000.0001)                 4.315001090065869E+05,      /* J = 17 */
(PID.TID 0000.0001)                 4.379537508695839E+05,      /* J = 18 */
(PID.TID 0000.0001)                 4.422737260813013E+05,      /* J = 19 */
(PID.TID 0000.0001)     2 @  4.444389881567501E+05,             /* J = 20: 21 */
(PID.TID 0000.0001)                 4.422737260813013E+05,      /* J = 22 */
(PID.TID 0000.0001)                 4.379537508695839E+05,      /* J = 23 */
(PID.TID 0000.0001)                 4.315001090065869E+05,      /* J = 24 */
(PID.TID 0000.0001)                 4.229442419867491E+05,      /* J = 25 */
(PID.TID 0000.0001)                 4.123278331341585E+05,      /* J = 26 */
(PID.TID 0000.0001)                 3.997026045255871E+05,      /* J = 27 */
(PID.TID 0000.0001)                 3.851300650057322E+05,      /* J = 28 */
(PID.TID 0000.0001)                 3.686812105223083E+05,      /* J = 29 */
(PID.TID 0000.0001)                 3.504361782409254E+05,      /* J = 30 */
(PID.TID 0000.0001)                 3.304838561248741E+05,      /* J = 31 */
(PID.TID 0000.0001)                 3.089214498819035E+05,      /* J = 32 */
(PID.TID 0000.0001)                 2.858540093877838E+05,      /* J = 33 */
(PID.TID 0000.0001)                 2.613939168938713E+05,      /* J = 34 */
(PID.TID 0000.0001)                 2.356603395120766E+05,      /* J = 35 */
(PID.TID 0000.0001)                 2.087786486446736E+05,      /* J = 36 */
(PID.TID 0000.0001)                 1.808798091874300E+05,      /* J = 37 */
(PID.TID 0000.0001)                 1.520997414818001E+05,      /* J = 38 */
(PID.TID 0000.0001)                 1.225786591246834E+05,      /* J = 39 */
(PID.TID 0000.0001)                 9.246038586187513E+04       /* J = 40 */
(PID.TID 0000.0001)     ;
(PID.TID 0000.0001) dyC =  /* dyC(:,1,:,1) ( m - cartesian, degrees - spherical ) */
(PID.TID 0000.0001)    90 @  4.447098934081552E+05              /* I =  1: 90 */
(PID.TID 0000.0001)     ;
(PID.TID 0000.0001) dyC =  /* dyC(1,:,1,:) ( m - cartesian, degrees - spherical ) */
(PID.TID 0000.0001)    40 @  4.447098934081552E+05              /* J =  1: 40 */
(PID.TID 0000.0001)     ;
(PID.TID 0000.0001) dxV =  /* dxV(:,1,:,1) ( m - cartesian, degrees - spherical ) */
(PID.TID 0000.0001)    90 @  7.722306258078101E+04              /* I =  1: 90 */
(PID.TID 0000.0001)     ;
(PID.TID 0000.0001) dxV =  /* dxV(1,:,1,:) ( m - cartesian, degrees - spherical ) */
(PID.TID 0000.0001)                 7.722306258078101E+04,      /* J =  1 */
(PID.TID 0000.0001)                 1.075850604052271E+05,      /* J =  2 */
(PID.TID 0000.0001)                 1.374229146297914E+05,      /* J =  3 */
(PID.TID 0000.0001)                 1.665912582279823E+05,      /* J =  4 */
(PID.TID 0000.0001)                 1.949479859617814E+05,      /* J =  5 */
(PID.TID 0000.0001)                 2.223549467040776E+05,      /* J =  6 */
(PID.TID 0000.0001)                 2.486786164970726E+05,      /* J =  7 */
(PID.TID 0000.0001)                 2.737907490675810E+05,      /* J =  8 */
(PID.TID 0000.0001)                 2.975690006299820E+05,      /* J =  9 */
(PID.TID 0000.0001)                 3.198975259328452E+05,      /* J = 10 */
(PID.TID 0000.0001)                 3.406675426453503E+05,      /* J = 11 */
(PID.TID 0000.0001)                 3.597778613338689E+05,      /* J = 12 */
(PID.TID 0000.0001)                 3.771353784467131E+05,      /* J = 13 */
(PID.TID 0000.0001)                 3.926555299052806E+05,      /* J = 14 */
(PID.TID 0000.0001)                 4.062627030917454E+05,      /* J = 15 */
(PID.TID 0000.0001)                 4.178906052261313E+05,      /* J = 16 */
(PID.TID 0000.0001)                 4.274825863380723E+05,      /* J = 17 */
(PID.TID 0000.0001)                 4.349919152597734E+05,      /* J = 18 */
(PID.TID 0000.0001)                 4.403820072955634E+05,      /* J = 19 */
(PID.TID 0000.0001)                 4.436266024588540E+05,      /* J = 20 */
(PID.TID 0000.0001)                 4.447098934081552E+05,      /* J = 21 */
(PID.TID 0000.0001)                 4.436266024588540E+05,      /* J = 22 */
(PID.TID 0000.0001)                 4.403820072955634E+05,      /* J = 23 */
(PID.TID 0000.0001)                 4.349919152597734E+05,      /* J = 24 */
(PID.TID 0000.0001)                 4.274825863380723E+05,      /* J = 25 */
(PID.TID 0000.0001)                 4.178906052261313E+05,      /* J = 26 */
(PID.TID 0000.0001)                 4.062627030917454E+05,      /* J = 27 */
(PID.TID 0000.0001)                 3.926555299052806E+05,      /* J = 28 */
(PID.TID 0000.0001)                 3.771353784467131E+05,      /* J = 29 */
(PID.TID 0000.0001)                 3.597778613338689E+05,      /* J = 30 */
(PID.TID 0000.0001)                 3.406675426453503E+05,      /* J = 31 */
(PID.TID 0000.0001)                 3.198975259328452E+05,      /* J = 32 */
(PID.TID 0000.0001)                 2.975690006299820E+05,      /* J = 33 */
(PID.TID 0000.0001)                 2.737907490675810E+05,      /* J = 34 */
(PID.TID 0000.0001)                 2.486786164970726E+05,      /* J = 35 */
(PID.TID 0000.0001)                 2.223549467040776E+05,      /* J = 36 */
(PID.TID 0000.0001)                 1.949479859617814E+05,      /* J = 37 */
(PID.TID 0000.0001)                 1.665912582279823E+05,      /* J = 38 */
(PID.TID 0000.0001)                 1.374229146297914E+05,      /* J = 39 */
(PID.TID 0000.0001)                 1.075850604052271E+05       /* J = 40 */
(PID.TID 0000.0001)     ;
(PID.TID 0000.0001) dyU =  /* dyU(:,1,:,1) ( m - cartesian, degrees - spherical ) */
(PID.TID 0000.0001)    90 @  4.447098934081552E+05              /* I =  1: 90 */
(PID.TID 0000.0001)     ;
(PID.TID 0000.0001) dyU =  /* dyU(1,:,1,:) ( m - cartesian, degrees - spherical ) */
(PID.TID 0000.0001)    40 @  4.447098934081552E+05              /* J =  1: 40 */
(PID.TID 0000.0001)     ;
(PID.TID 0000.0001) rA =  /* rA(:,1,:,1) ( m - cartesian, degrees - spherical ) */
(PID.TID 0000.0001)    90 @  4.110969866729054E+10              /* I =  1: 90 */
(PID.TID 0000.0001)     ;
(PID.TID 0000.0001) rA =  /* rA(1,:,1,:) ( m - cartesian, degrees - spherical ) */
(PID.TID 0000.0001)                 4.110969866729054E+10,      /* J =  1 */
(PID.TID 0000.0001)                 5.450087291636668E+10,      /* J =  2 */
(PID.TID 0000.0001)                 6.762652439100243E+10,      /* J =  3 */
(PID.TID 0000.0001)                 8.042270623659999E+10,      /* J =  4 */
(PID.TID 0000.0001)                 9.282707674147508E+10,      /* J =  5 */
(PID.TID 0000.0001)                 1.047792030594103E+11,      /* J =  6 */
(PID.TID 0000.0001)                 1.162208556324092E+11,      /* J =  7 */
(PID.TID 0000.0001)                 1.270962918792467E+11,      /* J =  8 */
(PID.TID 0000.0001)                 1.373525277677230E+11,      /* J =  9 */
(PID.TID 0000.0001)                 1.469395959475425E+11,      /* J = 10 */
(PID.TID 0000.0001)                 1.558107891862221E+11,      /* J = 11 */
(PID.TID 0000.0001)                 1.639228879220325E+11,      /* J = 12 */
(PID.TID 0000.0001)                 1.712363708253575E+11,      /* J = 13 */
(PID.TID 0000.0001)                 1.777156073426414E+11,      /* J = 14 */
(PID.TID 0000.0001)                 1.833290312848624E+11,      /* J = 15 */
(PID.TID 0000.0001)                 1.880492946148330E+11,      /* J = 16 */
(PID.TID 0000.0001)                 1.918534006840893E+11,      /* J = 17 */
(PID.TID 0000.0001)                 1.947228162702492E+11,      /* J = 18 */
(PID.TID 0000.0001)                 1.966435618690094E+11,      /* J = 19 */
(PID.TID 0000.0001)                 1.976062798008855E+11,      /* J = 20 */
(PID.TID 0000.0001)                 1.976062798008856E+11,      /* J = 21 */
(PID.TID 0000.0001)                 1.966435618690094E+11,      /* J = 22 */
(PID.TID 0000.0001)                 1.947228162702492E+11,      /* J = 23 */
(PID.TID 0000.0001)                 1.918534006840893E+11,      /* J = 24 */
(PID.TID 0000.0001)                 1.880492946148330E+11,      /* J = 25 */
(PID.TID 0000.0001)                 1.833290312848623E+11,      /* J = 26 */
(PID.TID 0000.0001)                 1.777156073426414E+11,      /* J = 27 */
(PID.TID 0000.0001)                 1.712363708253574E+11,      /* J = 28 */
(PID.TID 0000.0001)                 1.639228879220325E+11,      /* J = 29 */
(PID.TID 0000.0001)                 1.558107891862220E+11,      /* J = 30 */
(PID.TID 0000.0001)                 1.469395959475424E+11,      /* J = 31 */
(PID.TID 0000.0001)                 1.373525277677230E+11,      /* J = 32 */
(PID.TID 0000.0001)                 1.270962918792467E+11,      /* J = 33 */
(PID.TID 0000.0001)                 1.162208556324095E+11,      /* J = 34 */
(PID.TID 0000.0001)                 1.047792030594104E+11,      /* J = 35 */
(PID.TID 0000.0001)                 9.282707674147527E+10,      /* J = 36 */
(PID.TID 0000.0001)                 8.042270623660011E+10,      /* J = 37 */
(PID.TID 0000.0001)                 6.762652439100233E+10,      /* J = 38 */
(PID.TID 0000.0001)                 5.450087291636658E+10,      /* J = 39 */
(PID.TID 0000.0001)                 4.110969866729044E+10       /* J = 40 */
(PID.TID 0000.0001)     ;
(PID.TID 0000.0001) rAw =  /* rAw(:,1,:,1) ( m - cartesian, degrees - spherical ) */
(PID.TID 0000.0001)    90 @  4.110969866729054E+10              /* I =  1: 90 */
(PID.TID 0000.0001)     ;
(PID.TID 0000.0001) rAw =  /* rAw(1,:,1,:) ( m - cartesian, degrees - spherical ) */
(PID.TID 0000.0001)                 4.110969866729054E+10,      /* J =  1 */
(PID.TID 0000.0001)                 5.450087291636668E+10,      /* J =  2 */
(PID.TID 0000.0001)                 6.762652439100243E+10,      /* J =  3 */
(PID.TID 0000.0001)                 8.042270623659999E+10,      /* J =  4 */
(PID.TID 0000.0001)                 9.282707674147508E+10,      /* J =  5 */
(PID.TID 0000.0001)                 1.047792030594103E+11,      /* J =  6 */
(PID.TID 0000.0001)                 1.162208556324092E+11,      /* J =  7 */
(PID.TID 0000.0001)                 1.270962918792467E+11,      /* J =  8 */
(PID.TID 0000.0001)                 1.373525277677230E+11,      /* J =  9 */
(PID.TID 0000.0001)                 1.469395959475425E+11,      /* J = 10 */
(PID.TID 0000.0001)                 1.558107891862221E+11,      /* J = 11 */
(PID.TID 0000.0001)                 1.639228879220325E+11,      /* J = 12 */
(PID.TID 0000.0001)                 1.712363708253575E+11,      /* J = 13 */
(PID.TID 0000.0001)                 1.777156073426414E+11,      /* J = 14 */
(PID.TID 0000.0001)                 1.833290312848624E+11,      /* J = 15 */
(PID.TID 0000.0001)                 1.880492946148330E+11,      /* J = 16 */
(PID.TID 0000.0001)                 1.918534006840893E+11,      /* J = 17 */
(PID.TID 0000.0001)                 1.947228162702492E+11,      /* J = 18 */
(PID.TID 0000.0001)                 1.966435618690094E+11,      /* J = 19 */
(PID.TID 0000.0001)                 1.976062798008855E+11,      /* J = 20 */
(PID.TID 0000.0001)                 1.976062798008856E+11,      /* J = 21 */
(PID.TID 0000.0001)                 1.966435618690094E+11,      /* J = 22 */
(PID.TID 0000.0001)                 1.947228162702492E+11,      /* J = 23 */
(PID.TID 0000.0001)                 1.918534006840893E+11,      /* J = 24 */
(PID.TID 0000.0001)                 1.880492946148330E+11,      /* J = 25 */
(PID.TID 0000.0001)                 1.833290312848623E+11,      /* J = 26 */
(PID.TID 0000.0001)                 1.777156073426414E+11,      /* J = 27 */
(PID.TID 0000.0001)                 1.712363708253574E+11,      /* J = 28 */
(PID.TID 0000.0001)                 1.639228879220325E+11,      /* J = 29 */
(PID.TID 0000.0001)                 1.558107891862220E+11,      /* J = 30 */
(PID.TID 0000.0001)                 1.469395959475424E+11,      /* J = 31 */
(PID.TID 0000.0001)                 1.373525277677230E+11,      /* J = 32 */
(PID.TID 0000.0001)                 1.270962918792467E+11,      /* J = 33 */
(PID.TID 0000.0001)                 1.162208556324095E+11,      /* J = 34 */
(PID.TID 0000.0001)                 1.047792030594104E+11,      /* J = 35 */
(PID.TID 0000.0001)                 9.282707674147527E+10,      /* J = 36 */
(PID.TID 0000.0001)                 8.042270623660011E+10,      /* J = 37 */
(PID.TID 0000.0001)                 6.762652439100233E+10,      /* J = 38 */
(PID.TID 0000.0001)                 5.450087291636658E+10,      /* J = 39 */
(PID.TID 0000.0001)                 4.110969866729044E+10       /* J = 40 */
(PID.TID 0000.0001)     ;
(PID.TID 0000.0001) rAs =  /* rAs(:,1,:,1) ( m - cartesian, degrees - spherical ) */
(PID.TID 0000.0001)    90 @  3.433488626798236E+10              /* I =  1: 90 */
(PID.TID 0000.0001)     ;
(PID.TID 0000.0001) rAs =  /* rAs(1,:,1,:) ( m - cartesian, degrees - spherical ) */
(PID.TID 0000.0001)                 3.433488626798236E+10,      /* J =  1 */
(PID.TID 0000.0001)                 4.783442523123635E+10,      /* J =  2 */
(PID.TID 0000.0001)                 6.110091968306405E+10,      /* J =  3 */
(PID.TID 0000.0001)                 7.406973659603827E+10,      /* J =  4 */
(PID.TID 0000.0001)                 8.667769319778091E+10,      /* J =  5 */
(PID.TID 0000.0001)                 9.886336479107472E+10,      /* J =  6 */
(PID.TID 0000.0001)                 1.105673840088174E+11,      /* J =  7 */
(PID.TID 0000.0001)                 1.217327300458637E+11,      /* J =  8 */
(PID.TID 0000.0001)                 1.323050064586579E+11,      /* J =  9 */
(PID.TID 0000.0001)                 1.422327061792379E+11,      /* J = 10 */
(PID.TID 0000.0001)                 1.514674624524945E+11,      /* J = 11 */
(PID.TID 0000.0001)                 1.599642844741385E+11,      /* J = 12 */
(PID.TID 0000.0001)                 1.676817765813787E+11,      /* J = 13 */
(PID.TID 0000.0001)                 1.745823399284268E+11,      /* J = 14 */
(PID.TID 0000.0001)                 1.806323556642997E+11,      /* J = 15 */
(PID.TID 0000.0001)                 1.858023487204767E+11,      /* J = 16 */
(PID.TID 0000.0001)                 1.900671314104744E+11,      /* J = 17 */
(PID.TID 0000.0001)                 1.934059261417216E+11,      /* J = 18 */
(PID.TID 0000.0001)                 1.958024666419019E+11,      /* J = 19 */
(PID.TID 0000.0001)                 1.972450772065981E+11,      /* J = 20 */
(PID.TID 0000.0001)                 1.977267295821495E+11,      /* J = 21 */
(PID.TID 0000.0001)                 1.972450772065981E+11,      /* J = 22 */
(PID.TID 0000.0001)                 1.958024666419019E+11,      /* J = 23 */
(PID.TID 0000.0001)                 1.934059261417216E+11,      /* J = 24 */
(PID.TID 0000.0001)                 1.900671314104744E+11,      /* J = 25 */
(PID.TID 0000.0001)                 1.858023487204767E+11,      /* J = 26 */
(PID.TID 0000.0001)                 1.806323556642997E+11,      /* J = 27 */
(PID.TID 0000.0001)                 1.745823399284267E+11,      /* J = 28 */
(PID.TID 0000.0001)                 1.676817765813788E+11,      /* J = 29 */
(PID.TID 0000.0001)                 1.599642844741386E+11,      /* J = 30 */
(PID.TID 0000.0001)                 1.514674624524945E+11,      /* J = 31 */
(PID.TID 0000.0001)                 1.422327061792377E+11,      /* J = 32 */
(PID.TID 0000.0001)                 1.323050064586577E+11,      /* J = 33 */
(PID.TID 0000.0001)                 1.217327300458638E+11,      /* J = 34 */
(PID.TID 0000.0001)                 1.105673840088174E+11,      /* J = 35 */
(PID.TID 0000.0001)                 9.886336479107451E+10,      /* J = 36 */
(PID.TID 0000.0001)                 8.667769319778070E+10,      /* J = 37 */
(PID.TID 0000.0001)                 7.406973659603806E+10,      /* J = 38 */
(PID.TID 0000.0001)                 6.110091968306404E+10,      /* J = 39 */
(PID.TID 0000.0001)                 4.783442523123634E+10       /* J = 40 */
(PID.TID 0000.0001)     ;
(PID.TID 0000.0001) 
(PID.TID 0000.0001)  MDSREADFIELD: opening global file: lev_t.bin
(PID.TID 0000.0001) // =======================================================
(PID.TID 0000.0001) // Field Initial Temperature at iteration          1
(PID.TID 0000.0001) // CMIN =         -2.422867774963379E+00
(PID.TID 0000.0001) // CMAX =          2.973338890075684E+01
(PID.TID 0000.0001) // CINT =          1.190972469471119E+00
(PID.TID 0000.0001) // SYMBOLS (CMIN->CMAX): -abcdefghijklmnopqrstuvwxyz+
(PID.TID 0000.0001) //                  0.0: .
(PID.TID 0000.0001) // RANGE I (Lo:Hi:Step):(   1:  90:   1)
(PID.TID 0000.0001) // RANGE J (Lo:Hi:Step):(  40:   1:  -1)
(PID.TID 0000.0001) // RANGE K (Lo:Hi:Step):(   1:   1:   1)
(PID.TID 0000.0001) // =======================================================
(PID.TID 0000.0001) K =   1
(PID.TID 0000.0001)                I=10      I=20      I=30      I=40      I=50      I=60      I=70      I=80      I=90
(PID.TID 0000.0001) |--J--|123456789|123456789|123456789|123456789|123456789|123456789|123456789|123456789|123456789|
(PID.TID 0000.0001)     40 cccde.bbaaaaaacdeee..................................................................bbbbc
(PID.TID 0000.0001)     39 cddeedddccbbba...ee.....................................................----........bbbbcc
(PID.TID 0000.0001)     38 fggggfeeeeddd...........................................................--aaa......dbbccde
(PID.TID 0000.0001)     37 hhi..................................................................cc...bbc...eeeee.defg
(PID.TID 0000.0001)     36 ih.........................................edcb....................dddccbccdde.effghiiiiii
(PID.TID 0000.0001)     35 hh.................................bbbb..ddeeeed...fgggh...........ccc....ddeeffgghijkkjii
(PID.TID 0000.0001)     34 ...................................bbbc.deeeeeef.fffgghhi..................cdefgghikkkkk..
(PID.TID 0000.0001)     33 ....................................bcdddeeffffffggggghhiij.................cdgikkllmllkl.
(PID.TID 0000.0001)     32 ....................................cdeeefggggghhiiiiiiijjj................dcdhlnnnnmmmll.
(PID.TID 0000.0001)     31 ....................................ghiiiijjjjjkkkkkklllllk..............ikkjjmoppoonnmn..
(PID.TID 0000.0001)     30 ...................................nmnnnnnmnnmmmmmmnnnnoonm............noqrrrrrrqqppppoo..
(PID.TID 0000.0001)     29 .................................qqqqqqppppppppppppppqppponn...........ssssssrrrrrrqqqpp..
(PID.TID 0000.0001)     28 ...............................psssssrrsssssrssrrrrrrsrrqqpoo.........utttsstsssssrrrrqq..
(PID.TID 0000.0001)     27 ..............vv..............stuttuuuuuuuuuuuuuuuuttttsssrqqr...stuv.vvvuuuvuuttttsss....
(PID.TID 0000.0001)     26 ..............vvv...........uuvvvvvwwwwwwwwvvvwvvvvvuuutttsssttv.uuvxxwwwwwwvvvvuuttsr....
(PID.TID 0000.0001)     25 ..............wwwx...xxx...vvvxxxxyyyxxxxxxxxxwwwwwvvvvvuuuuuvwwx...yxxxxxxwwwwwvvuutr....
(PID.TID 0000.0001)     24 ............wwwxxyy.xxyy...wxx.yyyyzyyyyyyxxxxxxxxwwwwwwwvvwwxxyywww.xxxxxxxxxxwwwvvur....
(PID.TID 0000.0001)     23 ............xxxyyyz.xyyy...xxy..yyyzzzyyyyyyyyyxxxxxxxxwwwwxxxxwwwwwx....wwxxxxxwwwwvu....
(PID.TID 0000.0001)     22 w...........xxyyyzyyyyyz...xx.yyzzzzzzzzzzzzzyyzyyyyyyxxwxxxyxwvvvwwxw......yyyyxxxxxxwxxx
(PID.TID 0000.0001)     21 xxx........xxxyyyzzzzzzz+.....zyzzzzzz+++zzzzyyyyyyyyxxwwvwwwwvvvvvvvu........yyyyyyyyyxxx
(PID.TID 0000.0001)     20 xww.......yyyyyxyyzzzzzz+......z.zzzzz+++zzzzzzyyyyyxxxxwwwxwvuuvuuuut.........yyyyxxxxwww
(PID.TID 0000.0001)     19 vvv.......yyyyxwwxyzyyzzzzz...zzz.....++++++z++z+zzzyyyyxxxxwwwvvvwvvu...........yyxxxwwww
(PID.TID 0000.0001)     18 uut.......zzyyywxxyzyyyyzzyzzz+zz...z+z++++zz+++++++zzzyyyyxxwwwvvvwvut..........yyxxwvvwv
(PID.TID 0000.0001)     17 uus.......z.zyyyyyxyzzyyyyyyyzz.....yzzzzzzzzzzzzzzzzzzyyyyxxwwvuuvvuut.........yyyyxwuuvu
(PID.TID 0000.0001)     16 uts......yy.zyyyyxxxxxxxwxxxxy.......yyyyyyyyyyyyyyyyyyyyyyyxxwwvvuuutts........xyyyxwvuuu
(PID.TID 0000.0001)     15 utrr....xxx.xxxxxwwwwvwwvvwww.........xxxxxxxxxxxxxxxxxxxyyyxwwwvvuttssss......wxxxxxwwvuu
(PID.TID 0000.0001)     14 ttsq....xyxwwxwvwwwvutuuuuuuu.........wwvwwwwvwvwwwwvwwvwwwwwwvvvuuuttsrr.....vwwwwwwwvvvu
(PID.TID 0000.0001)     13 tttr....wxwvvvttuuvuuuttssttt.........vvvuuuuuuuuttttuuuuvvwwwvuuttttssrr....vvvvvvvvvvvut
(PID.TID 0000.0001)     12 sssssstttutssssrrrrrstsqrrrssqqrrq....uuutsssssrrrrrrrrrrstttssssrssrrrp.....uuuttstttssss
(PID.TID 0000.0001)     11 ppprsssrqqqqqrqqppoopqpoppppppppppp..ttsrrr.rqqpqqqqqpqqpqrqpppqqqqrqqqp....prssrqqqqqpppq
(PID.TID 0000.0001)     10 lllnoooonmnnmnonnnmmmnmlmmlllnnnnooo.qqqqqp.pppppppoooooooonnnnooooooooo..nmopoonnnnnnnmmm
(PID.TID 0000.0001)      9 ihhiiiiihhiihiiiiiiiiiihiiiiijkklmnllnnnnn.mmmnnoonnnmnnnnmllllmlllllmmm.mmlmmmlkjjijjihhi
(PID.TID 0000.0001)      8 ffffeeffeefgggfffffghgfffgggghiiiijjjkllllkkkkllkklllkkkkjjjijjkkjjjjkkj.kkjjiihhhgfffeeee
(PID.TID 0000.0001)      7 cccdddeeeedeffeeeeeeddddeefffffgggggghhiijjiijjjihhhghhhhhhhhhhiihhiiiiiiiiihgffedddddddcc
(PID.TID 0000.0001)      6 bbbccdddddccdddddddddddeddddddeedeeeeeffgghggghigeeddddeefffeefgggggghhhhggffeddcccccbbbbb
(PID.TID 0000.0001)      5 bbcccccccccccdddddccccdcccccdddddddddddddeeeeeeedcbbbbcccdddddddeeeeeeeeeeddcccbbbbbbbbbbb
(PID.TID 0000.0001)      4 bbcccbbbbbbbbbccccccbbbbbbabcbccbbbbbbcccccbbbbbbbbbbbbbbbbbbbbcbccccccccc..aaaabbbbbbbbbb
(PID.TID 0000.0001)      3 bbbbbaaaaa............................cbbbbbaaaabbbbbbaaaaaaaabbaaaaaaaab..baaaaaabbbbbbab
(PID.TID 0000.0001)      2 ..........................................bbbbbaaaaaaaaaaaaaaaaa..aaaa.....aaaaaabbbbbb...
(PID.TID 0000.0001)      1 ..........................................................................................
(PID.TID 0000.0001) // =======================================================
(PID.TID 0000.0001) // END OF FIELD                                          =
(PID.TID 0000.0001) // =======================================================
(PID.TID 0000.0001) 
(PID.TID 0000.0001)  MDSREADFIELD: opening global file: lev_s.bin
(PID.TID 0000.0001) // =======================================================
(PID.TID 0000.0001) // Field Initial Salinity at iteration          1
(PID.TID 0000.0001) // CMIN =          2.975276947021484E+01
(PID.TID 0000.0001) // CMAX =          3.747562789916992E+01
(PID.TID 0000.0001) // CINT =          2.860317936650029E-01
(PID.TID 0000.0001) // SYMBOLS (CMIN->CMAX): -abcdefghijklmnopqrstuvwxyz+
(PID.TID 0000.0001) //                  0.0: .
(PID.TID 0000.0001) // RANGE I (Lo:Hi:Step):(   1:  90:   1)
(PID.TID 0000.0001) // RANGE J (Lo:Hi:Step):(  40:   1:  -1)
(PID.TID 0000.0001) // RANGE K (Lo:Hi:Step):(   1:   1:   1)
(PID.TID 0000.0001) // =======================================================
(PID.TID 0000.0001) K =   1
(PID.TID 0000.0001)                I=10      I=20      I=30      I=40      I=50      I=60      I=70      I=80      I=90
(PID.TID 0000.0001) |--J--|123456789|123456789|123456789|123456789|123456789|123456789|123456789|123456789|123456789|
(PID.TID 0000.0001)     40 qrrrr.oonnooopqtutt..................................................................mnnop
(PID.TID 0000.0001)     39 rssrrrrrrrqqpn...ut.....................................................mmmm........opqqqr
(PID.TID 0000.0001)     38 ssrrqqqqrrqpo...........................................................lkkll......onoqrrs
(PID.TID 0000.0001)     37 ssr..................................................................hg...lln...qppqr.rrrs
(PID.TID 0000.0001)     36 rr.........................................lkji....................feeegikmoop.pqrssssssss
(PID.TID 0000.0001)     35 rr.................................kkkk..lllllki...jijjj...........aa-....opqrrrrrrrssttss
(PID.TID 0000.0001)     34 ...................................jlll.kklllllk.ijkkkjih..................hlpqrqrrsstts..
(PID.TID 0000.0001)     33 ....................................iklkkkkkkkkkjkkjjjjjjii.................jmprrsstttttt.
(PID.TID 0000.0001)     32 ....................................iklllkllllllllkkkkkkkji................gilpstuuttuuut.
(PID.TID 0000.0001)     31 ....................................lmnonnnnoooonnmmmmllkjj..............loopqtvvvuuuuuu..
(PID.TID 0000.0001)     30 ...................................pppppppqqqqpppoooonnmlkk............ptvxwwvvwvvvvvvvu..
(PID.TID 0000.0001)     29 .................................pqqrqqqqqqrrrqqppqqqpponmll...........vxxxxxxwwwwwxwwxw..
(PID.TID 0000.0001)     28 ...............................prrrrrqqrrrrrsrrsrssssssrqonmm.........wxxxxxxxyyyyyyyyxx..
(PID.TID 0000.0001)     27 ..............xx..............prrrrrrrrrssssssstttssssssrqpoop...uwww.wwxxxyyy++zzzzyy....
(PID.TID 0000.0001)     26 ..............wxx...........ppqrrrrrrsssrrstsstttssrrrrrrrqppqqp.wwwvvwwwwwxyy+++zzyxw....
(PID.TID 0000.0001)     25 ..............wxxv...kkk...ooopqrrrrrssrrrrrrrssssqqpppppppppppoo...vvutuuvvwxyyyxxvvu....
(PID.TID 0000.0001)     24 ............uvvwwur.lmlk...nmm.pqqqqrrrrrqqqqrrqqrpppppooooonmmmnooo.uuuuuuttuvvvuvuut....
(PID.TID 0000.0001)     23 ............vvuvtqp.lmml...mln..ppppqpqppppppqpppppppppqppponnnnnoopm....xvuuuvvvvuuut....
(PID.TID 0000.0001)     22 r...........vuttsqqpnppn...mm.oppqqrrqqqqqqppppqqrrrqqqrrppppoopooomjj......uuvvvvvuttssrr
(PID.TID 0000.0001)     21 qmm........ttsssssssrsqon.....opqqqqqqqrrrrqqqssssssrrrrrrrrpqqqppomll........tvvvvuttssrr
(PID.TID 0000.0001)     20 sqq.......sttssrrsrrrrpol......p.qrqpqrrrrrrrstttttsssrrsssrqrrrrqqqpo.........wwwvvvuuutt
(PID.TID 0000.0001)     19 tsr.......ssssrrrrpppppnmmm...oqq.....qrqqsrrstttuuuttssttssrrssrrrrqq...........wwwvuvvvv
(PID.TID 0000.0001)     18 wut.......ssrrrrrqppppppppoooorrr...poqqqprrrttttuuutuuuuuutttttttutsss..........yyxwwxwxx
(PID.TID 0000.0001)     17 wwu.......s.rrrrrrqppppqqqqqqqr.....rrsrqrsssuusrtuuuvvvwwvvvuuuuutttss.........xyzyyyyxxx
(PID.TID 0000.0001)     16 vvt......ss.qrrssrqrqpqrrrrrrr.......ssrrstsstusrsuuuvwwwwxxwwvvvuttttsr........yz+zzzxwww
(PID.TID 0000.0001)     15 utss....stt.rrssstttsrrsrstsr.........ssstttssttsuuttuvvvvwxwwwwwuttsssrr......xyyyyxyyxwv
(PID.TID 0000.0001)     14 utts....sstrrssstuuuuuuuuuutt.........stttuutttttttuttttttuvvvvvvutsrqrrr.....vxxwwwwxwvwv
(PID.TID 0000.0001)     13 uuut....ttttttttuuuuuvtuuuuuu.........ttttuutttttttuutsssstttttstsqrqqppp....uwwwvuvvvutvv
(PID.TID 0000.0001)     12 ttttttttttttttttttttttssuuuuutuuut....tttttttttttsssssrrrrrrrqqqqqppppoo.....rvvuuttttttuu
(PID.TID 0000.0001)     11 rqsttttttttuuttttsssssrrstttttttsss..ttttts.tsssrrrrqqqqqppppoonnooooooo....oruttttsssrqrs
(PID.TID 0000.0001)     10 pppqrssrqqrqpqrssrrqqqqqqrrrrrrrrrrs.sssssr.rssrrqqpppppppooooonnnoooonn..moqrrrqqqqqqqqqq
(PID.TID 0000.0001)      9 oonooooooooonnnooooooooooppppppqqqqqrrrqrq.pppqqqqqppppppppppoooooooooll.lmoqqqqppooooopoo
(PID.TID 0000.0001)      8 nnnoonooooooonnnnnnnoooonoonoooppopqqqqqqqppopppqqqpppppppppppppppooopon.lnopppoooonnnnooo
(PID.TID 0000.0001)      7 ooooooooooopponnnooooooonnnnnonnooooooooopppppppoooooooooopppppppppoopqnnmnoooonnnonnnnnno
(PID.TID 0000.0001)      6 oooonnoonnnnooooooooooooonnnnnnnnnnnnnnnnoooopppooooooooooooooppppppppppoooooooonnnnnmnnnn
(PID.TID 0000.0001)      5 oooonnnnnnnnnnnnnnnnnoooooonnnnnnonnnnnnnnnoooooooooooonnnnnnooooooopoooonoooonnnnnnnooooo
(PID.TID 0000.0001)      4 oooonnnooonnnnnnnnnnnnnnoooooonnnooooonnnooooooooppponnnnmmmnnnnmnnoonnnnn..nnnooooooooooo
(PID.TID 0000.0001)      3 ooonnnnnnn............................nnoooooonnooooonnnnnnnoonnnnnnnnmmm..ooopooooooooooo
(PID.TID 0000.0001)      2 ..........................................pppooooonnnnnnoooppppo..nnnn.....qqqpppoooooo...
(PID.TID 0000.0001)      1 ..........................................................................................
(PID.TID 0000.0001) // =======================================================
(PID.TID 0000.0001) // END OF FIELD                                          =
(PID.TID 0000.0001) // =======================================================
(PID.TID 0000.0001) 
(PID.TID 0000.0001) Start initial hydrostatic pressure computation
(PID.TID 0000.0001) Pressure is predetermined for buoyancyRelation OCEANIC
(PID.TID 0000.0001) 
(PID.TID 0000.0001)  MDSREADFIELD: opening global file: lev_s.bin
(PID.TID 0000.0001)  MDSREADFIELD: opening global file: trenberth_taux.bin
(PID.TID 0000.0001)  MDSREADFIELD: opening global file: trenberth_tauy.bin
(PID.TID 0000.0001)  MDSREADFIELD: opening global file: ncep_qnet.bin
(PID.TID 0000.0001)  MDSREADFIELD: opening global file: lev_sst.bin
(PID.TID 0000.0001)  MDSREADFIELD: opening global file: lev_sss.bin
(PID.TID 0000.0001) // =======================================================
(PID.TID 0000.0001) // Model current state
(PID.TID 0000.0001) // =======================================================
(PID.TID 0000.0001) 
(PID.TID 0000.0001) // =======================================================
(PID.TID 0000.0001) // Begin MONITOR dynamic field statistics
(PID.TID 0000.0001) // =======================================================
(PID.TID 0000.0001) %MON time_tsnumber                =                     0
(PID.TID 0000.0001) %MON time_secondsf                =   0.0000000000000E+00
(PID.TID 0000.0001) %MON dynstat_eta_max              =   0.0000000000000E+00
(PID.TID 0000.0001) %MON dynstat_eta_min              =   0.0000000000000E+00
(PID.TID 0000.0001) %MON dynstat_eta_mean             =   0.0000000000000E+00
(PID.TID 0000.0001) %MON dynstat_eta_sd               =   0.0000000000000E+00
(PID.TID 0000.0001) %MON dynstat_eta_del2             =   0.0000000000000E+00
(PID.TID 0000.0001) %MON dynstat_uvel_max             =   0.0000000000000E+00
(PID.TID 0000.0001) %MON dynstat_uvel_min             =   0.0000000000000E+00
(PID.TID 0000.0001) %MON dynstat_uvel_mean            =   0.0000000000000E+00
(PID.TID 0000.0001) %MON dynstat_uvel_sd              =   0.0000000000000E+00
(PID.TID 0000.0001) %MON dynstat_uvel_del2            =   0.0000000000000E+00
(PID.TID 0000.0001) %MON dynstat_vvel_max             =   0.0000000000000E+00
(PID.TID 0000.0001) %MON dynstat_vvel_min             =   0.0000000000000E+00
(PID.TID 0000.0001) %MON dynstat_vvel_mean            =   0.0000000000000E+00
(PID.TID 0000.0001) %MON dynstat_vvel_sd              =   0.0000000000000E+00
(PID.TID 0000.0001) %MON dynstat_vvel_del2            =   0.0000000000000E+00
(PID.TID 0000.0001) %MON dynstat_wvel_max             =   0.0000000000000E+00
(PID.TID 0000.0001) %MON dynstat_wvel_min             =   0.0000000000000E+00
(PID.TID 0000.0001) %MON dynstat_wvel_mean            =   0.0000000000000E+00
(PID.TID 0000.0001) %MON dynstat_wvel_sd              =   0.0000000000000E+00
(PID.TID 0000.0001) %MON dynstat_wvel_del2            =   0.0000000000000E+00
(PID.TID 0000.0001) %MON dynstat_theta_max            =   2.9733388900757E+01
(PID.TID 0000.0001) %MON dynstat_theta_min            =  -2.6255600452423E+00
(PID.TID 0000.0001) %MON dynstat_theta_mean           =   3.6196930772982E+00
(PID.TID 0000.0001) %MON dynstat_theta_sd             =   4.4174800615522E+00
(PID.TID 0000.0001) %MON dynstat_theta_del2           =   1.5098782572970E-01
(PID.TID 0000.0001) %MON dynstat_salt_max             =   3.7475627899170E+01
(PID.TID 0000.0001) %MON dynstat_salt_min             =   2.9752769470215E+01
(PID.TID 0000.0001) %MON dynstat_salt_mean            =   3.4718006161477E+01
(PID.TID 0000.0001) %MON dynstat_salt_sd              =   2.9628819587991E-01
(PID.TID 0000.0001) %MON dynstat_salt_del2            =   2.6251884861846E-02
(PID.TID 0000.0001) %MON advcfl_uvel_max              =   0.0000000000000E+00
(PID.TID 0000.0001) %MON advcfl_vvel_max              =   0.0000000000000E+00
(PID.TID 0000.0001) %MON advcfl_wvel_max              =   0.0000000000000E+00
(PID.TID 0000.0001) %MON advcfl_W_hf_max              =   0.0000000000000E+00
(PID.TID 0000.0001) %MON pe_b_mean                    =   0.0000000000000E+00
(PID.TID 0000.0001) %MON ke_max                       =   0.0000000000000E+00
(PID.TID 0000.0001) %MON ke_mean                      =   0.0000000000000E+00
(PID.TID 0000.0001) %MON ke_vol                       =   1.3226782436723E+18
(PID.TID 0000.0001) %MON vort_r_min                   =   0.0000000000000E+00
(PID.TID 0000.0001) %MON vort_r_max                   =   0.0000000000000E+00
(PID.TID 0000.0001) %MON vort_a_mean                  =  -2.5205769728595E-05
(PID.TID 0000.0001) %MON vort_a_sd                    =   7.3403301351718E-05
(PID.TID 0000.0001) %MON vort_p_mean                  =  -3.1758669979759E-05
(PID.TID 0000.0001) %MON vort_p_sd                    =   1.3126616755304E-04
(PID.TID 0000.0001) %MON surfExpan_theta_mean         =   0.0000000000000E+00
(PID.TID 0000.0001) %MON surfExpan_salt_mean          =   0.0000000000000E+00
(PID.TID 0000.0001) // =======================================================
(PID.TID 0000.0001) // End MONITOR dynamic field statistics
(PID.TID 0000.0001) // =======================================================
(PID.TID 0000.0001) // =======================================================
(PID.TID 0000.0001) // Begin MONITOR ptracer field statistics
(PID.TID 0000.0001) // =======================================================
(PID.TID 0000.0001) %MON trcstat_ptracer01_max        =   3.7475627899170E+01
(PID.TID 0000.0001) %MON trcstat_ptracer01_min        =   2.9752769470215E+01
(PID.TID 0000.0001) %MON trcstat_ptracer01_mean       =   3.4718006161477E+01
(PID.TID 0000.0001) %MON trcstat_ptracer01_sd         =   2.9628819587991E-01
(PID.TID 0000.0001) %MON trcstat_ptracer01_del2       =   2.6251884861846E-02
(PID.TID 0000.0001) // =======================================================
(PID.TID 0000.0001) // End MONITOR ptracers field statistics
(PID.TID 0000.0001) // =======================================================
 S/R EXTERNAL_FIELDS_LOAD: Reading new data  0. 0
(PID.TID 0000.0001)  MDSREADFIELD: opening global file: trenberth_taux.bin
(PID.TID 0000.0001)  MDSREADFIELD: opening global file: trenberth_taux.bin
(PID.TID 0000.0001)  MDSREADFIELD: opening global file: trenberth_tauy.bin
(PID.TID 0000.0001)  MDSREADFIELD: opening global file: trenberth_tauy.bin
(PID.TID 0000.0001)  MDSREADFIELD: opening global file: ncep_qnet.bin
(PID.TID 0000.0001)  MDSREADFIELD: opening global file: ncep_qnet.bin
(PID.TID 0000.0001)  MDSREADFIELD: opening global file: lev_sst.bin
(PID.TID 0000.0001)  MDSREADFIELD: opening global file: lev_sst.bin
(PID.TID 0000.0001)  MDSREADFIELD: opening global file: lev_sss.bin
(PID.TID 0000.0001)  MDSREADFIELD: opening global file: lev_sss.bin
time,SST,SSS,fu,fv,Q,E-P,i0,i1,a,b =   0.0000E+00  5.3151E-02  3.4364E+01 -4.0500E-02 -6.3753E-02  2.6510E+02  0.0000E+00    12     1  5.0000E-01  5.0000E-01
time,fu0,fu1,fu =   0.0000E+00 -4.5368E-02 -3.5633E-02 -4.0500E-02  5.0000E-01  5.0000E-01
 cg2d: Sum(rhs),rhsMax =   5.32907051820075E-15  2.53364304519873E+00
(PID.TID 0000.0001)                    cg2d_init_res =    6.22530153603216E+00
(PID.TID 0000.0001)                       cg2d_iters =    26
(PID.TID 0000.0001)                         cg2d_res =    5.02378138787114E-14
(PID.TID 0000.0001) // =======================================================
(PID.TID 0000.0001) // Begin MONITOR dynamic field statistics
(PID.TID 0000.0001) // =======================================================
(PID.TID 0000.0001) %MON time_tsnumber                =                     1
(PID.TID 0000.0001) %MON time_secondsf                =   4.3200000000000E+04
(PID.TID 0000.0001) %MON dynstat_eta_max              =   1.7856750003849E-01
(PID.TID 0000.0001) %MON dynstat_eta_min              =  -1.1521465430466E-01
(PID.TID 0000.0001) %MON dynstat_eta_mean             =  -1.2171251038428E-17
(PID.TID 0000.0001) %MON dynstat_eta_sd               =   2.6330827324672E-02
(PID.TID 0000.0001) %MON dynstat_eta_del2             =   1.1667714592724E-02
(PID.TID 0000.0001) %MON dynstat_uvel_max             =   8.3278858967845E-03
(PID.TID 0000.0001) %MON dynstat_uvel_min             =  -8.9104646695036E-03
(PID.TID 0000.0001) %MON dynstat_uvel_mean            =  -3.6108428613025E-04
(PID.TID 0000.0001) %MON dynstat_uvel_sd              =   1.2326286939441E-03
(PID.TID 0000.0001) %MON dynstat_uvel_del2            =   4.2134084474197E-04
(PID.TID 0000.0001) %MON dynstat_vvel_max             =   1.8795311886399E-02
(PID.TID 0000.0001) %MON dynstat_vvel_min             =  -1.1292773495360E-02
(PID.TID 0000.0001) %MON dynstat_vvel_mean            =   9.2371224385487E-04
(PID.TID 0000.0001) %MON dynstat_vvel_sd              =   3.4433716205221E-03
(PID.TID 0000.0001) %MON dynstat_vvel_del2            =   5.2655697101026E-04
(PID.TID 0000.0001) %MON dynstat_wvel_max             =   1.5979209724476E-04
(PID.TID 0000.0001) %MON dynstat_wvel_min             =  -1.0322817826396E-04
(PID.TID 0000.0001) %MON dynstat_wvel_mean            =   2.8772076064777E-22
(PID.TID 0000.0001) %MON dynstat_wvel_sd              =   1.6851346197533E-05
(PID.TID 0000.0001) %MON dynstat_wvel_del2            =   8.8302310793006E-06
(PID.TID 0000.0001) %MON dynstat_theta_max            =   2.9730291022209E+01
(PID.TID 0000.0001) %MON dynstat_theta_min            =  -1.8999981777301E+00
(PID.TID 0000.0001) %MON dynstat_theta_mean           =   3.6197398609524E+00
(PID.TID 0000.0001) %MON dynstat_theta_sd             =   4.4171708897524E+00
(PID.TID 0000.0001) %MON dynstat_theta_del2           =   1.5233616873671E-01
(PID.TID 0000.0001) %MON dynstat_salt_max             =   3.7470516461991E+01
(PID.TID 0000.0001) %MON dynstat_salt_min             =   2.9754192314250E+01
(PID.TID 0000.0001) %MON dynstat_salt_mean            =   3.4718006046545E+01
(PID.TID 0000.0001) %MON dynstat_salt_sd              =   2.9615337045015E-01
(PID.TID 0000.0001) %MON dynstat_salt_del2            =   2.6473901920508E-02
(PID.TID 0000.0001) %MON advcfl_uvel_max              =   2.6512729685057E-03
(PID.TID 0000.0001) %MON advcfl_vvel_max              =   1.8258138294828E-03
(PID.TID 0000.0001) %MON advcfl_wvel_max              =   2.5713720005542E-01
(PID.TID 0000.0001) %MON advcfl_W_hf_max              =   2.6084575944275E-01
(PID.TID 0000.0001) %MON pe_b_mean                    =   8.8717686921074E-07
(PID.TID 0000.0001) %MON ke_max                       =   1.2389974472424E-04
(PID.TID 0000.0001) %MON ke_mean                      =   6.4556085917312E-06
(PID.TID 0000.0001) %MON ke_vol                       =   1.3226782436723E+18
(PID.TID 0000.0001) %MON vort_r_min                   =  -5.9901656663123E-08
(PID.TID 0000.0001) %MON vort_r_max                   =   6.7789451109947E-08
(PID.TID 0000.0001) %MON vort_a_mean                  =  -2.5205769395234E-05
(PID.TID 0000.0001) %MON vort_a_sd                    =   7.3403223080647E-05
(PID.TID 0000.0001) %MON vort_p_mean                  =  -3.1758669559732E-05
(PID.TID 0000.0001) %MON vort_p_sd                    =   1.3126608075589E-04
(PID.TID 0000.0001) %MON surfExpan_theta_mean         =   4.7007543630173E-05
(PID.TID 0000.0001) %MON surfExpan_salt_mean          =   3.5355415836382E-06
(PID.TID 0000.0001) // =======================================================
(PID.TID 0000.0001) // End MONITOR dynamic field statistics
(PID.TID 0000.0001) // =======================================================
(PID.TID 0000.0001) // =======================================================
(PID.TID 0000.0001) // Begin MONITOR ptracer field statistics
(PID.TID 0000.0001) // =======================================================
(PID.TID 0000.0001) %MON trcstat_ptracer01_max        =   3.7470516461991E+01
(PID.TID 0000.0001) %MON trcstat_ptracer01_min        =   2.9754192314250E+01
(PID.TID 0000.0001) %MON trcstat_ptracer01_mean       =   3.4718006046545E+01
(PID.TID 0000.0001) %MON trcstat_ptracer01_sd         =   2.9615337045015E-01
(PID.TID 0000.0001) %MON trcstat_ptracer01_del2       =   2.6473901920508E-02
(PID.TID 0000.0001) // =======================================================
(PID.TID 0000.0001) // End MONITOR ptracers field statistics
(PID.TID 0000.0001) // =======================================================
time,SST,SSS,fu,fv,Q,E-P,i0,i1,a,b =   4.3200E+04  8.3327E-02  3.4375E+01 -4.0338E-02 -6.3536E-02  2.6512E+02  0.0000E+00    12     1  5.1667E-01  4.8333E-01
time,fu0,fu1,fu =   4.3200E+04 -4.5368E-02 -3.5633E-02 -4.0338E-02  5.1667E-01  4.8333E-01
 cg2d: Sum(rhs),rhsMax =   4.21884749357559E-14  5.05254939001358E+00
(PID.TID 0000.0001)                    cg2d_init_res =    3.38979238675501E+00
(PID.TID 0000.0001)                       cg2d_iters =    26
(PID.TID 0000.0001)                         cg2d_res =    3.27111474885889E-14
(PID.TID 0000.0001) // =======================================================
(PID.TID 0000.0001) // Begin MONITOR dynamic field statistics
(PID.TID 0000.0001) // =======================================================
(PID.TID 0000.0001) %MON time_tsnumber                =                     2
(PID.TID 0000.0001) %MON time_secondsf                =   8.6400000000000E+04
(PID.TID 0000.0001) %MON dynstat_eta_max              =   3.7993122544707E-01
(PID.TID 0000.0001) %MON dynstat_eta_min              =  -2.5475970825221E-01
(PID.TID 0000.0001) %MON dynstat_eta_mean             =  -2.5732794667498E-17
(PID.TID 0000.0001) %MON dynstat_eta_sd               =   6.0825368335275E-02
(PID.TID 0000.0001) %MON dynstat_eta_del2             =   2.2746478664683E-02
(PID.TID 0000.0001) %MON dynstat_uvel_max             =   1.9171713576678E-02
(PID.TID 0000.0001) %MON dynstat_uvel_min             =  -1.7248662860504E-02
(PID.TID 0000.0001) %MON dynstat_uvel_mean            =  -8.9861560906222E-04
(PID.TID 0000.0001) %MON dynstat_uvel_sd              =   2.1515603156901E-03
(PID.TID 0000.0001) %MON dynstat_uvel_del2            =   7.8794044257242E-04
(PID.TID 0000.0001) %MON dynstat_vvel_max             =   3.4259522829486E-02
(PID.TID 0000.0001) %MON dynstat_vvel_min             =  -1.8171404450057E-02
(PID.TID 0000.0001) %MON dynstat_vvel_mean            =   1.7999776980745E-03
(PID.TID 0000.0001) %MON dynstat_vvel_sd              =   6.3042691926881E-03
(PID.TID 0000.0001) %MON dynstat_vvel_del2            =   9.5258735797013E-04
(PID.TID 0000.0001) %MON dynstat_wvel_max             =   2.1013444878354E-04
(PID.TID 0000.0001) %MON dynstat_wvel_min             =  -1.4862936648016E-04
(PID.TID 0000.0001) %MON dynstat_wvel_mean            =  -2.4955372097001E-23
(PID.TID 0000.0001) %MON dynstat_wvel_sd              =   2.4438518633542E-05
(PID.TID 0000.0001) %MON dynstat_wvel_del2            =   1.0162542512321E-05
(PID.TID 0000.0001) %MON dynstat_theta_max            =   2.9678785796854E+01
(PID.TID 0000.0001) %MON dynstat_theta_min            =  -1.8999522920359E+00
(PID.TID 0000.0001) %MON dynstat_theta_mean           =   3.6189251092979E+00
(PID.TID 0000.0001) %MON dynstat_theta_sd             =   4.4153545811219E+00
(PID.TID 0000.0001) %MON dynstat_theta_del2           =   1.5029440114068E-01
(PID.TID 0000.0001) %MON dynstat_salt_max             =   3.7465157731617E+01
(PID.TID 0000.0001) %MON dynstat_salt_min             =   2.9756614945369E+01
(PID.TID 0000.0001) %MON dynstat_salt_mean            =   3.4717942210365E+01
(PID.TID 0000.0001) %MON dynstat_salt_sd              =   2.9608879397116E-01
(PID.TID 0000.0001) %MON dynstat_salt_del2            =   2.6590331536992E-02
(PID.TID 0000.0001) %MON advcfl_uvel_max              =   4.7322616082681E-03
(PID.TID 0000.0001) %MON advcfl_vvel_max              =   3.3280379145410E-03
(PID.TID 0000.0001) %MON advcfl_wvel_max              =   2.8996376458836E-01
(PID.TID 0000.0001) %MON advcfl_W_hf_max              =   3.0075755593606E-01
(PID.TID 0000.0001) %MON pe_b_mean                    =   4.7342446300593E-06
(PID.TID 0000.0001) %MON ke_max                       =   4.1680627191484E-04
(PID.TID 0000.0001) %MON ke_mean                      =   2.1767265769030E-05
(PID.TID 0000.0001) %MON ke_vol                       =   1.3226782436723E+18
(PID.TID 0000.0001) %MON vort_r_min                   =  -1.0607038904231E-07
(PID.TID 0000.0001) %MON vort_r_max                   =   1.2898171907500E-07
(PID.TID 0000.0001) %MON vort_a_mean                  =  -2.5205769316184E-05
(PID.TID 0000.0001) %MON vort_a_sd                    =   7.3403112758596E-05
(PID.TID 0000.0001) %MON vort_p_mean                  =  -3.1758669460131E-05
(PID.TID 0000.0001) %MON vort_p_sd                    =   1.3126588790937E-04
(PID.TID 0000.0001) %MON surfExpan_theta_mean         =   8.4673737480863E-05
(PID.TID 0000.0001) %MON surfExpan_salt_mean          =   6.7424724779809E-06
(PID.TID 0000.0001) // =======================================================
(PID.TID 0000.0001) // End MONITOR dynamic field statistics
(PID.TID 0000.0001) // =======================================================
(PID.TID 0000.0001) // =======================================================
(PID.TID 0000.0001) // Begin MONITOR ptracer field statistics
(PID.TID 0000.0001) // =======================================================
(PID.TID 0000.0001) %MON trcstat_ptracer01_max        =   3.7465157731617E+01
(PID.TID 0000.0001) %MON trcstat_ptracer01_min        =   2.9756614945369E+01
(PID.TID 0000.0001) %MON trcstat_ptracer01_mean       =   3.4717942210365E+01
(PID.TID 0000.0001) %MON trcstat_ptracer01_sd         =   2.9608879397116E-01
(PID.TID 0000.0001) %MON trcstat_ptracer01_del2       =   2.6590331536992E-02
(PID.TID 0000.0001) // =======================================================
(PID.TID 0000.0001) // End MONITOR ptracers field statistics
(PID.TID 0000.0001) // =======================================================
time,SST,SSS,fu,fv,Q,E-P,i0,i1,a,b =   8.6400E+04  1.1350E-01  3.4387E+01 -4.0176E-02 -6.3320E-02  2.6514E+02  0.0000E+00    12     1  5.3333E-01  4.6667E-01
time,fu0,fu1,fu =   8.6400E+04 -4.5368E-02 -3.5633E-02 -4.0176E-02  5.3333E-01  4.6667E-01
 cg2d: Sum(rhs),rhsMax =   7.23657245238485E-14  6.32439557986743E+00
(PID.TID 0000.0001)                    cg2d_init_res =    2.20357760283736E+00
(PID.TID 0000.0001)                       cg2d_iters =    26
(PID.TID 0000.0001)                         cg2d_res =    2.89402491820551E-14
(PID.TID 0000.0001) // =======================================================
(PID.TID 0000.0001) // Begin MONITOR dynamic field statistics
(PID.TID 0000.0001) // =======================================================
(PID.TID 0000.0001) %MON time_tsnumber                =                     3
(PID.TID 0000.0001) %MON time_secondsf                =   1.2960000000000E+05
(PID.TID 0000.0001) %MON dynstat_eta_max              =   5.1559484132034E-01
(PID.TID 0000.0001) %MON dynstat_eta_min              =  -3.8632584926443E-01
(PID.TID 0000.0001) %MON dynstat_eta_mean             =  -4.3696931500266E-17
(PID.TID 0000.0001) %MON dynstat_eta_sd               =   9.3631580707316E-02
(PID.TID 0000.0001) %MON dynstat_eta_del2             =   2.8106400966629E-02
(PID.TID 0000.0001) %MON dynstat_uvel_max             =   3.1249294081821E-02
(PID.TID 0000.0001) %MON dynstat_uvel_min             =  -3.0297768486339E-02
(PID.TID 0000.0001) %MON dynstat_uvel_mean            =  -1.5822634279886E-03
(PID.TID 0000.0001) %MON dynstat_uvel_sd              =   3.0663843107511E-03
(PID.TID 0000.0001) %MON dynstat_uvel_del2            =   1.1499454802895E-03
(PID.TID 0000.0001) %MON dynstat_vvel_max             =   4.5742365500665E-02
(PID.TID 0000.0001) %MON dynstat_vvel_min             =  -2.4642469869587E-02
(PID.TID 0000.0001) %MON dynstat_vvel_mean            =   2.6059319920419E-03
(PID.TID 0000.0001) %MON dynstat_vvel_sd              =   8.6512045823533E-03
(PID.TID 0000.0001) %MON dynstat_vvel_del2            =   1.3516247603601E-03
(PID.TID 0000.0001) %MON dynstat_wvel_max             =   1.9796948806295E-04
(PID.TID 0000.0001) %MON dynstat_wvel_min             =  -1.6853471623357E-04
(PID.TID 0000.0001) %MON dynstat_wvel_mean            =   1.8863325379203E-22
(PID.TID 0000.0001) %MON dynstat_wvel_sd              =   2.7015155654463E-05
(PID.TID 0000.0001) %MON dynstat_wvel_del2            =   8.5205447617931E-06
(PID.TID 0000.0001) %MON dynstat_theta_max            =   2.9642012615675E+01
(PID.TID 0000.0001) %MON dynstat_theta_min            =  -1.8997347858869E+00
(PID.TID 0000.0001) %MON dynstat_theta_mean           =   3.6177489385826E+00
(PID.TID 0000.0001) %MON dynstat_theta_sd             =   4.4129125648134E+00
(PID.TID 0000.0001) %MON dynstat_theta_del2           =   1.4830259787402E-01
(PID.TID 0000.0001) %MON dynstat_salt_max             =   3.7460962048093E+01
(PID.TID 0000.0001) %MON dynstat_salt_min             =   2.9759494182332E+01
(PID.TID 0000.0001) %MON dynstat_salt_mean            =   3.4717844454657E+01
(PID.TID 0000.0001) %MON dynstat_salt_sd              =   2.9610456594081E-01
(PID.TID 0000.0001) %MON dynstat_salt_del2            =   2.6520482074329E-02
(PID.TID 0000.0001) %MON advcfl_uvel_max              =   5.9874091553719E-03
(PID.TID 0000.0001) %MON advcfl_vvel_max              =   4.4435039987183E-03
(PID.TID 0000.0001) %MON advcfl_wvel_max              =   2.1258274710784E-01
(PID.TID 0000.0001) %MON advcfl_W_hf_max              =   2.1720422350207E-01
(PID.TID 0000.0001) %MON pe_b_mean                    =   1.1218270578917E-05
(PID.TID 0000.0001) %MON ke_max                       =   8.0824105442854E-04
(PID.TID 0000.0001) %MON ke_mean                      =   4.2058380144808E-05
(PID.TID 0000.0001) %MON ke_vol                       =   1.3226782436723E+18
(PID.TID 0000.0001) %MON vort_r_min                   =  -1.5859198478211E-07
(PID.TID 0000.0001) %MON vort_r_max                   =   1.8492786625689E-07
(PID.TID 0000.0001) %MON vort_a_mean                  =  -2.5205769324250E-05
(PID.TID 0000.0001) %MON vort_a_sd                    =   7.3402977531602E-05
(PID.TID 0000.0001) %MON vort_p_mean                  =  -3.1758669470294E-05
(PID.TID 0000.0001) %MON vort_p_sd                    =   1.3126560819651E-04
(PID.TID 0000.0001) %MON surfExpan_theta_mean         =   1.1378158375699E-04
(PID.TID 0000.0001) %MON surfExpan_salt_mean          =   9.3770607930301E-06
(PID.TID 0000.0001) // =======================================================
(PID.TID 0000.0001) // End MONITOR dynamic field statistics
(PID.TID 0000.0001) // =======================================================
(PID.TID 0000.0001) // =======================================================
(PID.TID 0000.0001) // Begin MONITOR ptracer field statistics
(PID.TID 0000.0001) // =======================================================
(PID.TID 0000.0001) %MON trcstat_ptracer01_max        =   3.7460962048093E+01
(PID.TID 0000.0001) %MON trcstat_ptracer01_min        =   2.9759494182332E+01
(PID.TID 0000.0001) %MON trcstat_ptracer01_mean       =   3.4717844454657E+01
(PID.TID 0000.0001) %MON trcstat_ptracer01_sd         =   2.9610456594081E-01
(PID.TID 0000.0001) %MON trcstat_ptracer01_del2       =   2.6520482074329E-02
(PID.TID 0000.0001) // =======================================================
(PID.TID 0000.0001) // End MONITOR ptracers field statistics
(PID.TID 0000.0001) // =======================================================
time,SST,SSS,fu,fv,Q,E-P,i0,i1,a,b =   1.2960E+05  1.4368E-01  3.4399E+01 -4.0014E-02 -6.3103E-02  2.6516E+02  0.0000E+00    12     1  5.5000E-01  4.5000E-01
time,fu0,fu1,fu =   1.2960E+05 -4.5368E-02 -3.5633E-02 -4.0014E-02  5.5000E-01  4.5000E-01
 cg2d: Sum(rhs),rhsMax =   1.15463194561016E-13  6.76027411578253E+00
(PID.TID 0000.0001)                    cg2d_init_res =    1.89666863058404E+00
(PID.TID 0000.0001)                       cg2d_iters =    26
(PID.TID 0000.0001)                         cg2d_res =    2.60046853228598E-14
(PID.TID 0000.0001) // =======================================================
(PID.TID 0000.0001) // Begin MONITOR dynamic field statistics
(PID.TID 0000.0001) // =======================================================
(PID.TID 0000.0001) %MON time_tsnumber                =                     4
(PID.TID 0000.0001) %MON time_secondsf                =   1.7280000000000E+05
(PID.TID 0000.0001) %MON dynstat_eta_max              =   5.9317834660672E-01
(PID.TID 0000.0001) %MON dynstat_eta_min              =  -5.0419864184979E-01
(PID.TID 0000.0001) %MON dynstat_eta_mean             =  -3.2404784046505E-17
(PID.TID 0000.0001) %MON dynstat_eta_sd               =   1.2392516089229E-01
(PID.TID 0000.0001) %MON dynstat_eta_del2             =   2.9305771943395E-02
(PID.TID 0000.0001) %MON dynstat_uvel_max             =   4.3681297645092E-02
(PID.TID 0000.0001) %MON dynstat_uvel_min             =  -4.2643878067336E-02
(PID.TID 0000.0001) %MON dynstat_uvel_mean            =  -2.3837278444761E-03
(PID.TID 0000.0001) %MON dynstat_uvel_sd              =   4.1260256164077E-03
(PID.TID 0000.0001) %MON dynstat_uvel_del2            =   1.4972907001825E-03
(PID.TID 0000.0001) %MON dynstat_vvel_max             =   5.3470058678720E-02
(PID.TID 0000.0001) %MON dynstat_vvel_min             =  -3.6368600199309E-02
(PID.TID 0000.0001) %MON dynstat_vvel_mean            =   3.3227903865149E-03
(PID.TID 0000.0001) %MON dynstat_vvel_sd              =   1.0605609155475E-02
(PID.TID 0000.0001) %MON dynstat_vvel_del2            =   1.7514797300899E-03
(PID.TID 0000.0001) %MON dynstat_wvel_max             =   2.0350404104591E-04
(PID.TID 0000.0001) %MON dynstat_wvel_min             =  -2.0404789728980E-04
(PID.TID 0000.0001) %MON dynstat_wvel_mean            =   3.5231113548707E-22
(PID.TID 0000.0001) %MON dynstat_wvel_sd              =   2.8756173386240E-05
(PID.TID 0000.0001) %MON dynstat_wvel_del2            =   8.0962696401159E-06
(PID.TID 0000.0001) %MON dynstat_theta_max            =   2.9646227290836E+01
(PID.TID 0000.0001) %MON dynstat_theta_min            =  -1.8997366406208E+00
(PID.TID 0000.0001) %MON dynstat_theta_mean           =   3.6163028961353E+00
(PID.TID 0000.0001) %MON dynstat_theta_sd             =   4.4099470205443E+00
(PID.TID 0000.0001) %MON dynstat_theta_del2           =   1.4731908519443E-01
(PID.TID 0000.0001) %MON dynstat_salt_max             =   3.7457239404721E+01
(PID.TID 0000.0001) %MON dynstat_salt_min             =   2.9762708214151E+01
(PID.TID 0000.0001) %MON dynstat_salt_mean            =   3.4717720886374E+01
(PID.TID 0000.0001) %MON dynstat_salt_sd              =   2.9612196585602E-01
(PID.TID 0000.0001) %MON dynstat_salt_del2            =   2.6452566324889E-02
(PID.TID 0000.0001) %MON advcfl_uvel_max              =   9.2228366504845E-03
(PID.TID 0000.0001) %MON advcfl_vvel_max              =   5.1941874223173E-03
(PID.TID 0000.0001) %MON advcfl_wvel_max              =   2.3975902499727E-01
(PID.TID 0000.0001) %MON advcfl_W_hf_max              =   2.4014777159205E-01
(PID.TID 0000.0001) %MON pe_b_mean                    =   1.9651702596421E-05
(PID.TID 0000.0001) %MON ke_max                       =   1.2539660296135E-03
(PID.TID 0000.0001) %MON ke_mean                      =   6.5769281230208E-05
(PID.TID 0000.0001) %MON ke_vol                       =   1.3226782436723E+18
(PID.TID 0000.0001) %MON vort_r_min                   =  -2.0762016845894E-07
(PID.TID 0000.0001) %MON vort_r_max                   =   2.3455225698387E-07
(PID.TID 0000.0001) %MON vort_a_mean                  =  -2.5205769320761E-05
(PID.TID 0000.0001) %MON vort_a_sd                    =   7.3402823134271E-05
(PID.TID 0000.0001) %MON vort_p_mean                  =  -3.1758669465898E-05
(PID.TID 0000.0001) %MON vort_p_sd                    =   1.3126523987690E-04
(PID.TID 0000.0001) %MON surfExpan_theta_mean         =   1.3600798092177E-04
(PID.TID 0000.0001) %MON surfExpan_salt_mean          =   1.1329425793468E-05
(PID.TID 0000.0001) // =======================================================
(PID.TID 0000.0001) // End MONITOR dynamic field statistics
(PID.TID 0000.0001) // =======================================================
(PID.TID 0000.0001) // =======================================================
(PID.TID 0000.0001) // Begin MONITOR ptracer field statistics
(PID.TID 0000.0001) // =======================================================
(PID.TID 0000.0001) %MON trcstat_ptracer01_max        =   3.7457239404721E+01
(PID.TID 0000.0001) %MON trcstat_ptracer01_min        =   2.9762708214151E+01
(PID.TID 0000.0001) %MON trcstat_ptracer01_mean       =   3.4717720886374E+01
(PID.TID 0000.0001) %MON trcstat_ptracer01_sd         =   2.9612196585602E-01
(PID.TID 0000.0001) %MON trcstat_ptracer01_del2       =   2.6452566324889E-02
(PID.TID 0000.0001) // =======================================================
(PID.TID 0000.0001) // End MONITOR ptracers field statistics
(PID.TID 0000.0001) // =======================================================
time,SST,SSS,fu,fv,Q,E-P,i0,i1,a,b =   1.7280E+05  1.7385E-01  3.4410E+01 -3.9851E-02 -6.2886E-02  2.6519E+02  0.0000E+00    12     1  5.6667E-01  4.3333E-01
time,fu0,fu1,fu =   1.7280E+05 -4.5368E-02 -3.5633E-02 -3.9851E-02  5.6667E-01  4.3333E-01
 cg2d: Sum(rhs),rhsMax =   4.68514116391816E-14  6.90919497891061E+00
(PID.TID 0000.0001)                    cg2d_init_res =    1.79503843814048E+00
(PID.TID 0000.0001)                       cg2d_iters =    26
(PID.TID 0000.0001)                         cg2d_res =    2.69238694183301E-14
(PID.TID 0000.0001) // =======================================================
(PID.TID 0000.0001) // Begin MONITOR dynamic field statistics
(PID.TID 0000.0001) // =======================================================
(PID.TID 0000.0001) %MON time_tsnumber                =                     5
(PID.TID 0000.0001) %MON time_secondsf                =   2.1600000000000E+05
(PID.TID 0000.0001) %MON dynstat_eta_max              =   6.3886228565726E-01
(PID.TID 0000.0001) %MON dynstat_eta_min              =  -5.8466466017800E-01
(PID.TID 0000.0001) %MON dynstat_eta_mean             =  -1.1263846332322E-17
(PID.TID 0000.0001) %MON dynstat_eta_sd               =   1.5274828676514E-01
(PID.TID 0000.0001) %MON dynstat_eta_del2             =   2.8795504543786E-02
(PID.TID 0000.0001) %MON dynstat_uvel_max             =   5.5990857759584E-02
(PID.TID 0000.0001) %MON dynstat_uvel_min             =  -5.2967700881300E-02
(PID.TID 0000.0001) %MON dynstat_uvel_mean            =  -3.2727108905958E-03
(PID.TID 0000.0001) %MON dynstat_uvel_sd              =   5.3064396777398E-03
(PID.TID 0000.0001) %MON dynstat_uvel_del2            =   1.8086434441309E-03
(PID.TID 0000.0001) %MON dynstat_vvel_max             =   5.8230432361898E-02
(PID.TID 0000.0001) %MON dynstat_vvel_min             =  -4.7537496292976E-02
(PID.TID 0000.0001) %MON dynstat_vvel_mean            =   3.9344799158169E-03
(PID.TID 0000.0001) %MON dynstat_vvel_sd              =   1.2202142732309E-02
(PID.TID 0000.0001) %MON dynstat_vvel_del2            =   2.1139918858207E-03
(PID.TID 0000.0001) %MON dynstat_wvel_max             =   2.3123943146036E-04
(PID.TID 0000.0001) %MON dynstat_wvel_min             =  -2.3633141127848E-04
(PID.TID 0000.0001) %MON dynstat_wvel_mean            =   2.2313038580848E-22
(PID.TID 0000.0001) %MON dynstat_wvel_sd              =   3.0510337531335E-05
(PID.TID 0000.0001) %MON dynstat_wvel_del2            =   8.8366966811985E-06
(PID.TID 0000.0001) %MON dynstat_theta_max            =   2.9675799229607E+01
(PID.TID 0000.0001) %MON dynstat_theta_min            =  -1.8997385310799E+00
(PID.TID 0000.0001) %MON dynstat_theta_mean           =   3.6146533927051E+00
(PID.TID 0000.0001) %MON dynstat_theta_sd             =   4.4065585800262E+00
(PID.TID 0000.0001) %MON dynstat_theta_del2           =   1.4681222650427E-01
(PID.TID 0000.0001) %MON dynstat_salt_max             =   3.7453465994894E+01
(PID.TID 0000.0001) %MON dynstat_salt_min             =   2.9766119704077E+01
(PID.TID 0000.0001) %MON dynstat_salt_mean            =   3.4717579937461E+01
(PID.TID 0000.0001) %MON dynstat_salt_sd              =   2.9614616110641E-01
(PID.TID 0000.0001) %MON dynstat_salt_del2            =   2.6392051003023E-02
(PID.TID 0000.0001) %MON advcfl_uvel_max              =   1.1917365018996E-02
(PID.TID 0000.0001) %MON advcfl_vvel_max              =   5.6566195520305E-03
(PID.TID 0000.0001) %MON advcfl_wvel_max              =   2.4864380735168E-01
(PID.TID 0000.0001) %MON advcfl_W_hf_max              =   2.5255208653401E-01
(PID.TID 0000.0001) %MON pe_b_mean                    =   2.9856156317564E-05
(PID.TID 0000.0001) %MON ke_max                       =   1.7533346461416E-03
(PID.TID 0000.0001) %MON ke_mean                      =   9.1452732480741E-05
(PID.TID 0000.0001) %MON ke_vol                       =   1.3226782436723E+18
(PID.TID 0000.0001) %MON vort_r_min                   =  -2.5047380830835E-07
(PID.TID 0000.0001) %MON vort_r_max                   =   2.7638932669967E-07
(PID.TID 0000.0001) %MON vort_a_mean                  =  -2.5205769312955E-05
(PID.TID 0000.0001) %MON vort_a_sd                    =   7.3402654503903E-05
(PID.TID 0000.0001) %MON vort_p_mean                  =  -3.1758669456063E-05
(PID.TID 0000.0001) %MON vort_p_sd                    =   1.3126478915178E-04
(PID.TID 0000.0001) %MON surfExpan_theta_mean         =   1.5218319497735E-04
(PID.TID 0000.0001) %MON surfExpan_salt_mean          =   1.2646354093938E-05
(PID.TID 0000.0001) // =======================================================
(PID.TID 0000.0001) // End MONITOR dynamic field statistics
(PID.TID 0000.0001) // =======================================================
(PID.TID 0000.0001) // =======================================================
(PID.TID 0000.0001) // Begin MONITOR ptracer field statistics
(PID.TID 0000.0001) // =======================================================
(PID.TID 0000.0001) %MON trcstat_ptracer01_max        =   3.7453465994894E+01
(PID.TID 0000.0001) %MON trcstat_ptracer01_min        =   2.9766119704077E+01
(PID.TID 0000.0001) %MON trcstat_ptracer01_mean       =   3.4717579937461E+01
(PID.TID 0000.0001) %MON trcstat_ptracer01_sd         =   2.9614616110641E-01
(PID.TID 0000.0001) %MON trcstat_ptracer01_del2       =   2.6392051003023E-02
(PID.TID 0000.0001) // =======================================================
(PID.TID 0000.0001) // End MONITOR ptracers field statistics
(PID.TID 0000.0001) // =======================================================
 EH3:  myIter =  5
time,SST,SSS,fu,fv,Q,E-P,i0,i1,a,b =   2.1600E+05  2.0403E-01  3.4422E+01 -3.9689E-02 -6.2670E-02  2.6521E+02  0.0000E+00    12     1  5.8333E-01  4.1667E-01
time,fu0,fu1,fu =   2.1600E+05 -4.5368E-02 -3.5633E-02 -3.9689E-02  5.8333E-01  4.1667E-01
 cg2d: Sum(rhs),rhsMax =   3.90798504668055E-14  6.95796553498679E+00
(PID.TID 0000.0001)                    cg2d_init_res =    1.72339254293962E+00
(PID.TID 0000.0001)                       cg2d_iters =    26
(PID.TID 0000.0001)                         cg2d_res =    2.75811967075757E-14
(PID.TID 0000.0001) // =======================================================
(PID.TID 0000.0001) // Begin MONITOR dynamic field statistics
(PID.TID 0000.0001) // =======================================================
(PID.TID 0000.0001) %MON time_tsnumber                =                     6
(PID.TID 0000.0001) %MON time_secondsf                =   2.5920000000000E+05
(PID.TID 0000.0001) %MON dynstat_eta_max              =   7.2954570231063E-01
(PID.TID 0000.0001) %MON dynstat_eta_min              =  -6.4960888753356E-01
(PID.TID 0000.0001) %MON dynstat_eta_mean             =  -2.3263521822033E-17
(PID.TID 0000.0001) %MON dynstat_eta_sd               =   1.8063866076483E-01
(PID.TID 0000.0001) %MON dynstat_eta_del2             =   2.7892757208186E-02
(PID.TID 0000.0001) %MON dynstat_uvel_max             =   6.7870940819280E-02
(PID.TID 0000.0001) %MON dynstat_uvel_min             =  -6.1343275470372E-02
(PID.TID 0000.0001) %MON dynstat_uvel_mean            =  -4.2172784460430E-03
(PID.TID 0000.0001) %MON dynstat_uvel_sd              =   6.5684286214350E-03
(PID.TID 0000.0001) %MON dynstat_uvel_del2            =   2.0889633603370E-03
(PID.TID 0000.0001) %MON dynstat_vvel_max             =   6.7658698063768E-02
(PID.TID 0000.0001) %MON dynstat_vvel_min             =  -5.8014994994559E-02
(PID.TID 0000.0001) %MON dynstat_vvel_mean            =   4.4283009459343E-03
(PID.TID 0000.0001) %MON dynstat_vvel_sd              =   1.3457353800017E-02
(PID.TID 0000.0001) %MON dynstat_vvel_del2            =   2.4292808151832E-03
(PID.TID 0000.0001) %MON dynstat_wvel_max             =   2.5357764349369E-04
(PID.TID 0000.0001) %MON dynstat_wvel_min             =  -2.6311890151293E-04
(PID.TID 0000.0001) %MON dynstat_wvel_mean            =  -9.8059932710567E-22
(PID.TID 0000.0001) %MON dynstat_wvel_sd              =   3.2285503132907E-05
(PID.TID 0000.0001) %MON dynstat_wvel_del2            =   9.9863505508194E-06
(PID.TID 0000.0001) %MON dynstat_theta_max            =   2.9704203918039E+01
(PID.TID 0000.0001) %MON dynstat_theta_min            =  -1.8997403115448E+00
(PID.TID 0000.0001) %MON dynstat_theta_mean           =   3.6128631707506E+00
(PID.TID 0000.0001) %MON dynstat_theta_sd             =   4.4028255908065E+00
(PID.TID 0000.0001) %MON dynstat_theta_del2           =   1.4634602167058E-01
(PID.TID 0000.0001) %MON dynstat_salt_max             =   3.7449687470407E+01
(PID.TID 0000.0001) %MON dynstat_salt_min             =   2.9769589955140E+01
(PID.TID 0000.0001) %MON dynstat_salt_mean            =   3.4717428460378E+01
(PID.TID 0000.0001) %MON dynstat_salt_sd              =   2.9616595332830E-01
(PID.TID 0000.0001) %MON dynstat_salt_del2            =   2.6336937344717E-02
(PID.TID 0000.0001) %MON advcfl_uvel_max              =   1.4693921940471E-02
(PID.TID 0000.0001) %MON advcfl_vvel_max              =   6.5724999593660E-03
(PID.TID 0000.0001) %MON advcfl_wvel_max              =   2.1403747074473E-01
(PID.TID 0000.0001) %MON advcfl_W_hf_max              =   2.2284135873205E-01
(PID.TID 0000.0001) %MON pe_b_mean                    =   4.1754434839182E-05
(PID.TID 0000.0001) %MON ke_max                       =   2.3320386050274E-03
(PID.TID 0000.0001) %MON ke_mean                      =   1.1778889860340E-04
(PID.TID 0000.0001) %MON ke_vol                       =   1.3226782436723E+18
(PID.TID 0000.0001) %MON vort_r_min                   =  -2.8519267107602E-07
(PID.TID 0000.0001) %MON vort_r_max                   =   3.1015946486601E-07
(PID.TID 0000.0001) %MON vort_a_mean                  =  -2.5205769324002E-05
(PID.TID 0000.0001) %MON vort_a_sd                    =   7.3402476673693E-05
(PID.TID 0000.0001) %MON vort_p_mean                  =  -3.1758669469982E-05
(PID.TID 0000.0001) %MON vort_p_sd                    =   1.3126427065076E-04
(PID.TID 0000.0001) %MON surfExpan_theta_mean         =   1.6288525023466E-04
(PID.TID 0000.0001) %MON surfExpan_salt_mean          =   1.3420977347567E-05
(PID.TID 0000.0001) // =======================================================
(PID.TID 0000.0001) // End MONITOR dynamic field statistics
(PID.TID 0000.0001) // =======================================================
(PID.TID 0000.0001) // =======================================================
(PID.TID 0000.0001) // Begin MONITOR ptracer field statistics
(PID.TID 0000.0001) // =======================================================
(PID.TID 0000.0001) %MON trcstat_ptracer01_max        =   3.7449687470407E+01
(PID.TID 0000.0001) %MON trcstat_ptracer01_min        =   2.9769589955140E+01
(PID.TID 0000.0001) %MON trcstat_ptracer01_mean       =   3.4717428460378E+01
(PID.TID 0000.0001) %MON trcstat_ptracer01_sd         =   2.9616595332830E-01
(PID.TID 0000.0001) %MON trcstat_ptracer01_del2       =   2.6336937344717E-02
(PID.TID 0000.0001) // =======================================================
(PID.TID 0000.0001) // End MONITOR ptracers field statistics
(PID.TID 0000.0001) // =======================================================
time,SST,SSS,fu,fv,Q,E-P,i0,i1,a,b =   2.5920E+05  2.3421E-01  3.4434E+01 -3.9527E-02 -6.2453E-02  2.6523E+02  0.0000E+00    12     1  6.0000E-01  4.0000E-01
time,fu0,fu1,fu =   2.5920E+05 -4.5368E-02 -3.5633E-02 -3.9527E-02  6.0000E-01  4.0000E-01
 cg2d: Sum(rhs),rhsMax =   2.24265050974282E-14  7.26143063308968E+00
(PID.TID 0000.0001)                    cg2d_init_res =    1.59127882643210E+00
(PID.TID 0000.0001)                       cg2d_iters =    26
(PID.TID 0000.0001)                         cg2d_res =    2.59542923667065E-14
(PID.TID 0000.0001) // =======================================================
(PID.TID 0000.0001) // Begin MONITOR dynamic field statistics
(PID.TID 0000.0001) // =======================================================
(PID.TID 0000.0001) %MON time_tsnumber                =                     7
(PID.TID 0000.0001) %MON time_secondsf                =   3.0240000000000E+05
(PID.TID 0000.0001) %MON dynstat_eta_max              =   8.3343545557021E-01
(PID.TID 0000.0001) %MON dynstat_eta_min              =  -7.0392009274716E-01
(PID.TID 0000.0001) %MON dynstat_eta_mean             =   1.3584538290238E-18
(PID.TID 0000.0001) %MON dynstat_eta_sd               =   2.0762385643906E-01
(PID.TID 0000.0001) %MON dynstat_eta_del2             =   2.6994175278325E-02
(PID.TID 0000.0001) %MON dynstat_uvel_max             =   7.9138196828021E-02
(PID.TID 0000.0001) %MON dynstat_uvel_min             =  -7.4905612369459E-02
(PID.TID 0000.0001) %MON dynstat_uvel_mean            =  -5.1848358091098E-03
(PID.TID 0000.0001) %MON dynstat_uvel_sd              =   7.8759294297438E-03
(PID.TID 0000.0001) %MON dynstat_uvel_del2            =   2.3427760346301E-03
(PID.TID 0000.0001) %MON dynstat_vvel_max             =   7.6939505489756E-02
(PID.TID 0000.0001) %MON dynstat_vvel_min             =  -6.8510193722152E-02
(PID.TID 0000.0001) %MON dynstat_vvel_mean            =   4.7959654508861E-03
(PID.TID 0000.0001) %MON dynstat_vvel_sd              =   1.4389381375758E-02
(PID.TID 0000.0001) %MON dynstat_vvel_del2            =   2.6988096374873E-03
(PID.TID 0000.0001) %MON dynstat_wvel_max             =   2.7051521890139E-04
(PID.TID 0000.0001) %MON dynstat_wvel_min             =  -2.8373966669298E-04
(PID.TID 0000.0001) %MON dynstat_wvel_mean            =  -9.5124006581508E-22
(PID.TID 0000.0001) %MON dynstat_wvel_sd              =   3.3910573396939E-05
(PID.TID 0000.0001) %MON dynstat_wvel_del2            =   1.0985773156379E-05
(PID.TID 0000.0001) %MON dynstat_theta_max            =   2.9714219474283E+01
(PID.TID 0000.0001) %MON dynstat_theta_min            =  -1.8997418693170E+00
(PID.TID 0000.0001) %MON dynstat_theta_mean           =   3.6109900075237E+00
(PID.TID 0000.0001) %MON dynstat_theta_sd             =   4.3988318503231E+00
(PID.TID 0000.0001) %MON dynstat_theta_del2           =   1.4577460040822E-01
(PID.TID 0000.0001) %MON dynstat_salt_max             =   3.7446164458085E+01
(PID.TID 0000.0001) %MON dynstat_salt_min             =   2.9772986371633E+01
(PID.TID 0000.0001) %MON dynstat_salt_mean            =   3.4717271937239E+01
(PID.TID 0000.0001) %MON dynstat_salt_sd              =   2.9617837574708E-01
(PID.TID 0000.0001) %MON dynstat_salt_del2            =   2.6284796106063E-02
(PID.TID 0000.0001) %MON advcfl_uvel_max              =   1.7010537107442E-02
(PID.TID 0000.0001) %MON advcfl_vvel_max              =   7.4740559776728E-03
(PID.TID 0000.0001) %MON advcfl_wvel_max              =   1.8659852504071E-01
(PID.TID 0000.0001) %MON advcfl_W_hf_max              =   1.8451643838765E-01
(PID.TID 0000.0001) %MON pe_b_mean                    =   5.5161454232269E-05
(PID.TID 0000.0001) %MON ke_max                       =   3.1796295901257E-03
(PID.TID 0000.0001) %MON ke_mean                      =   1.4367646079806E-04
(PID.TID 0000.0001) %MON ke_vol                       =   1.3226782436723E+18
(PID.TID 0000.0001) %MON vort_r_min                   =  -3.1104959453603E-07
(PID.TID 0000.0001) %MON vort_r_max                   =   3.3687083079744E-07
(PID.TID 0000.0001) %MON vort_a_mean                  =  -2.5205769365695E-05
(PID.TID 0000.0001) %MON vort_a_sd                    =   7.3402294896859E-05
(PID.TID 0000.0001) %MON vort_p_mean                  =  -3.1758669522514E-05
(PID.TID 0000.0001) %MON vort_p_sd                    =   1.3126370175102E-04
(PID.TID 0000.0001) %MON surfExpan_theta_mean         =   1.6859460965420E-04
(PID.TID 0000.0001) %MON surfExpan_salt_mean          =   1.3730456505602E-05
(PID.TID 0000.0001) // =======================================================
(PID.TID 0000.0001) // End MONITOR dynamic field statistics
(PID.TID 0000.0001) // =======================================================
(PID.TID 0000.0001) // =======================================================
(PID.TID 0000.0001) // Begin MONITOR ptracer field statistics
(PID.TID 0000.0001) // =======================================================
(PID.TID 0000.0001) %MON trcstat_ptracer01_max        =   3.7446164458085E+01
(PID.TID 0000.0001) %MON trcstat_ptracer01_min        =   2.9772986371633E+01
(PID.TID 0000.0001) %MON trcstat_ptracer01_mean       =   3.4717271937239E+01
(PID.TID 0000.0001) %MON trcstat_ptracer01_sd         =   2.9617837574708E-01
(PID.TID 0000.0001) %MON trcstat_ptracer01_del2       =   2.6284796106063E-02
(PID.TID 0000.0001) // =======================================================
(PID.TID 0000.0001) // End MONITOR ptracers field statistics
(PID.TID 0000.0001) // =======================================================
time,SST,SSS,fu,fv,Q,E-P,i0,i1,a,b =   3.0240E+05  2.6438E-01  3.4446E+01 -3.9365E-02 -6.2237E-02  2.6525E+02  0.0000E+00    12     1  6.1667E-01  3.8333E-01
time,fu0,fu1,fu =   3.0240E+05 -4.5368E-02 -3.5633E-02 -3.9365E-02  6.1667E-01  3.8333E-01
 cg2d: Sum(rhs),rhsMax =  -8.45989944764369E-14  7.87405638632221E+00
(PID.TID 0000.0001)                    cg2d_init_res =    1.41263655875388E+00
(PID.TID 0000.0001)                       cg2d_iters =    26
(PID.TID 0000.0001)                         cg2d_res =    2.31727002580447E-14
(PID.TID 0000.0001) // =======================================================
(PID.TID 0000.0001) // Begin MONITOR dynamic field statistics
(PID.TID 0000.0001) // =======================================================
(PID.TID 0000.0001) %MON time_tsnumber                =                     8
(PID.TID 0000.0001) %MON time_secondsf                =   3.4560000000000E+05
(PID.TID 0000.0001) %MON dynstat_eta_max              =   9.0728649523845E-01
(PID.TID 0000.0001) %MON dynstat_eta_min              =  -7.4824643863869E-01
(PID.TID 0000.0001) %MON dynstat_eta_mean             =   4.6413839158313E-17
(PID.TID 0000.0001) %MON dynstat_eta_sd               =   2.3348856050319E-01
(PID.TID 0000.0001) %MON dynstat_eta_del2             =   2.6378764589771E-02
(PID.TID 0000.0001) %MON dynstat_uvel_max             =   8.9733390736795E-02
(PID.TID 0000.0001) %MON dynstat_uvel_min             =  -9.3793593370610E-02
(PID.TID 0000.0001) %MON dynstat_uvel_mean            =  -6.1431826651533E-03
(PID.TID 0000.0001) %MON dynstat_uvel_sd              =   9.1947416456555E-03
(PID.TID 0000.0001) %MON dynstat_uvel_del2            =   2.5725294635094E-03
(PID.TID 0000.0001) %MON dynstat_vvel_max             =   8.3079913014409E-02
(PID.TID 0000.0001) %MON dynstat_vvel_min             =  -7.8020169154701E-02
(PID.TID 0000.0001) %MON dynstat_vvel_mean            =   5.0340947345536E-03
(PID.TID 0000.0001) %MON dynstat_vvel_sd              =   1.5022023796484E-02
(PID.TID 0000.0001) %MON dynstat_vvel_del2            =   2.9229405196292E-03
(PID.TID 0000.0001) %MON dynstat_wvel_max             =   2.8154748622098E-04
(PID.TID 0000.0001) %MON dynstat_wvel_min             =  -2.9808882879584E-04
(PID.TID 0000.0001) %MON dynstat_wvel_mean            =   1.0804208154937E-21
(PID.TID 0000.0001) %MON dynstat_wvel_sd              =   3.5222577069657E-05
(PID.TID 0000.0001) %MON dynstat_wvel_del2            =   1.1728835242073E-05
(PID.TID 0000.0001) %MON dynstat_theta_max            =   2.9700840240504E+01
(PID.TID 0000.0001) %MON dynstat_theta_min            =  -1.8999347405311E+00
(PID.TID 0000.0001) %MON dynstat_theta_mean           =   3.6090869742005E+00
(PID.TID 0000.0001) %MON dynstat_theta_sd             =   4.3946612098336E+00
(PID.TID 0000.0001) %MON dynstat_theta_del2           =   1.4511947231456E-01
(PID.TID 0000.0001) %MON dynstat_salt_max             =   3.7443020990754E+01
(PID.TID 0000.0001) %MON dynstat_salt_min             =   2.9776189128052E+01
(PID.TID 0000.0001) %MON dynstat_salt_mean            =   3.4717115088764E+01
(PID.TID 0000.0001) %MON dynstat_salt_sd              =   2.9618231013078E-01
(PID.TID 0000.0001) %MON dynstat_salt_del2            =   2.6236290030881E-02
(PID.TID 0000.0001) %MON advcfl_uvel_max              =   1.8100136417427E-02
(PID.TID 0000.0001) %MON advcfl_vvel_max              =   8.0705473285445E-03
(PID.TID 0000.0001) %MON advcfl_wvel_max              =   2.0070541926594E-01
(PID.TID 0000.0001) %MON advcfl_W_hf_max              =   2.0101864657390E-01
(PID.TID 0000.0001) %MON pe_b_mean                    =   6.9760954717185E-05
(PID.TID 0000.0001) %MON ke_max                       =   4.1087824130462E-03
(PID.TID 0000.0001) %MON ke_mean                      =   1.6824093776873E-04
(PID.TID 0000.0001) %MON ke_vol                       =   1.3226782436723E+18
(PID.TID 0000.0001) %MON vort_r_min                   =  -3.2852606430611E-07
(PID.TID 0000.0001) %MON vort_r_max                   =   3.9676410670726E-07
(PID.TID 0000.0001) %MON vort_a_mean                  =  -2.5205769434788E-05
(PID.TID 0000.0001) %MON vort_a_sd                    =   7.3402114519448E-05
(PID.TID 0000.0001) %MON vort_p_mean                  =  -3.1758669609570E-05
(PID.TID 0000.0001) %MON vort_p_sd                    =   1.3126310084635E-04
(PID.TID 0000.0001) %MON surfExpan_theta_mean         =   1.6981767886566E-04
(PID.TID 0000.0001) %MON surfExpan_salt_mean          =   1.3628199575488E-05
(PID.TID 0000.0001) // =======================================================
(PID.TID 0000.0001) // End MONITOR dynamic field statistics
(PID.TID 0000.0001) // =======================================================
(PID.TID 0000.0001) // =======================================================
(PID.TID 0000.0001) // Begin MONITOR ptracer field statistics
(PID.TID 0000.0001) // =======================================================
(PID.TID 0000.0001) %MON trcstat_ptracer01_max        =   3.7443020990754E+01
(PID.TID 0000.0001) %MON trcstat_ptracer01_min        =   2.9776189128052E+01
(PID.TID 0000.0001) %MON trcstat_ptracer01_mean       =   3.4717115088764E+01
(PID.TID 0000.0001) %MON trcstat_ptracer01_sd         =   2.9618231013078E-01
(PID.TID 0000.0001) %MON trcstat_ptracer01_del2       =   2.6236290030881E-02
(PID.TID 0000.0001) // =======================================================
(PID.TID 0000.0001) // End MONITOR ptracers field statistics
(PID.TID 0000.0001) // =======================================================
time,SST,SSS,fu,fv,Q,E-P,i0,i1,a,b =   3.4560E+05  2.9456E-01  3.4457E+01 -3.9202E-02 -6.2020E-02  2.6528E+02  0.0000E+00    12     1  6.3333E-01  3.6667E-01
time,fu0,fu1,fu =   3.4560E+05 -4.5368E-02 -3.5633E-02 -3.9202E-02  6.3333E-01  3.6667E-01
 cg2d: Sum(rhs),rhsMax =  -1.16795462190566E-13  8.21105139125684E+00
(PID.TID 0000.0001)                    cg2d_init_res =    1.30396652269626E+00
(PID.TID 0000.0001)                       cg2d_iters =    25
(PID.TID 0000.0001)                         cg2d_res =    9.53437063513084E-14
(PID.TID 0000.0001) // =======================================================
(PID.TID 0000.0001) // Begin MONITOR dynamic field statistics
(PID.TID 0000.0001) // =======================================================
(PID.TID 0000.0001) %MON time_tsnumber                =                     9
(PID.TID 0000.0001) %MON time_secondsf                =   3.8880000000000E+05
(PID.TID 0000.0001) %MON dynstat_eta_max              =   9.5043478038847E-01
(PID.TID 0000.0001) %MON dynstat_eta_min              =  -8.3276483930078E-01
(PID.TID 0000.0001) %MON dynstat_eta_mean             =   1.8135358617468E-16
(PID.TID 0000.0001) %MON dynstat_eta_sd               =   2.5793129145410E-01
(PID.TID 0000.0001) %MON dynstat_eta_del2             =   2.5809195171726E-02
(PID.TID 0000.0001) %MON dynstat_uvel_max             =   9.9673104935913E-02
(PID.TID 0000.0001) %MON dynstat_uvel_min             =  -1.1010187920147E-01
(PID.TID 0000.0001) %MON dynstat_uvel_mean            =  -7.0614339831448E-03
(PID.TID 0000.0001) %MON dynstat_uvel_sd              =   1.0492455499217E-02
(PID.TID 0000.0001) %MON dynstat_uvel_del2            =   2.7764465071936E-03
(PID.TID 0000.0001) %MON dynstat_vvel_max             =   8.6406245228370E-02
(PID.TID 0000.0001) %MON dynstat_vvel_min             =  -8.6428930005030E-02
(PID.TID 0000.0001) %MON dynstat_vvel_mean            =   5.1443537502489E-03
(PID.TID 0000.0001) %MON dynstat_vvel_sd              =   1.5386412984447E-02
(PID.TID 0000.0001) %MON dynstat_vvel_del2            =   3.1031070815669E-03
(PID.TID 0000.0001) %MON dynstat_wvel_max             =   2.8585834192044E-04
(PID.TID 0000.0001) %MON dynstat_wvel_min             =  -3.0678222925155E-04
(PID.TID 0000.0001) %MON dynstat_wvel_mean            =   0.0000000000000E+00
(PID.TID 0000.0001) %MON dynstat_wvel_sd              =   3.6120548972241E-05
(PID.TID 0000.0001) %MON dynstat_wvel_del2            =   1.2239312495156E-05
(PID.TID 0000.0001) %MON dynstat_theta_max            =   2.9668327200642E+01
(PID.TID 0000.0001) %MON dynstat_theta_min            =  -1.8999353019293E+00
(PID.TID 0000.0001) %MON dynstat_theta_mean           =   3.6072013638525E+00
(PID.TID 0000.0001) %MON dynstat_theta_sd             =   4.3903922402805E+00
(PID.TID 0000.0001) %MON dynstat_theta_del2           =   1.4442637303703E-01
(PID.TID 0000.0001) %MON dynstat_salt_max             =   3.7440248228971E+01
(PID.TID 0000.0001) %MON dynstat_salt_min             =   2.9779096767871E+01
(PID.TID 0000.0001) %MON dynstat_salt_mean            =   3.4716962192959E+01
(PID.TID 0000.0001) %MON dynstat_salt_sd              =   2.9617797471119E-01
(PID.TID 0000.0001) %MON dynstat_salt_del2            =   2.6191297760551E-02
(PID.TID 0000.0001) %MON advcfl_uvel_max              =   1.7828999195798E-02
(PID.TID 0000.0001) %MON advcfl_vvel_max              =   8.3958774732958E-03
(PID.TID 0000.0001) %MON advcfl_wvel_max              =   2.0595916998934E-01
(PID.TID 0000.0001) %MON advcfl_W_hf_max              =   2.1215252391429E-01
(PID.TID 0000.0001) %MON pe_b_mean                    =   8.5131300021349E-05
(PID.TID 0000.0001) %MON ke_max                       =   5.0958276618584E-03
(PID.TID 0000.0001) %MON ke_mean                      =   1.9083494021787E-04
(PID.TID 0000.0001) %MON ke_vol                       =   1.3226782436723E+18
(PID.TID 0000.0001) %MON vort_r_min                   =  -3.3885534585807E-07
(PID.TID 0000.0001) %MON vort_r_max                   =   4.6633051577407E-07
(PID.TID 0000.0001) %MON vort_a_mean                  =  -2.5205769519706E-05
(PID.TID 0000.0001) %MON vort_a_sd                    =   7.3401940788077E-05
(PID.TID 0000.0001) %MON vort_p_mean                  =  -3.1758669716564E-05
(PID.TID 0000.0001) %MON vort_p_sd                    =   1.3126248774772E-04
(PID.TID 0000.0001) %MON surfExpan_theta_mean         =   1.6712285741213E-04
(PID.TID 0000.0001) %MON surfExpan_salt_mean          =   1.3161012554648E-05
(PID.TID 0000.0001) // =======================================================
(PID.TID 0000.0001) // End MONITOR dynamic field statistics
(PID.TID 0000.0001) // =======================================================
(PID.TID 0000.0001) // =======================================================
(PID.TID 0000.0001) // Begin MONITOR ptracer field statistics
(PID.TID 0000.0001) // =======================================================
(PID.TID 0000.0001) %MON trcstat_ptracer01_max        =   3.7440248228971E+01
(PID.TID 0000.0001) %MON trcstat_ptracer01_min        =   2.9779096767871E+01
(PID.TID 0000.0001) %MON trcstat_ptracer01_mean       =   3.4716962192959E+01
(PID.TID 0000.0001) %MON trcstat_ptracer01_sd         =   2.9617797471119E-01
(PID.TID 0000.0001) %MON trcstat_ptracer01_del2       =   2.6191297760551E-02
(PID.TID 0000.0001) // =======================================================
(PID.TID 0000.0001) // End MONITOR ptracers field statistics
(PID.TID 0000.0001) // =======================================================
time,SST,SSS,fu,fv,Q,E-P,i0,i1,a,b =   3.8880E+05  3.2473E-01  3.4469E+01 -3.9040E-02 -6.1804E-02  2.6530E+02  0.0000E+00    12     1  6.5000E-01  3.5000E-01
time,fu0,fu1,fu =   3.8880E+05 -4.5368E-02 -3.5633E-02 -3.9040E-02  6.5000E-01  3.5000E-01
 cg2d: Sum(rhs),rhsMax =  -2.89546164822241E-13  8.31388271561790E+00
(PID.TID 0000.0001)                    cg2d_init_res =    1.23995879974835E+00
(PID.TID 0000.0001)                       cg2d_iters =    25
(PID.TID 0000.0001)                         cg2d_res =    8.87178790698058E-14
(PID.TID 0000.0001) // =======================================================
(PID.TID 0000.0001) // Begin MONITOR dynamic field statistics
(PID.TID 0000.0001) // =======================================================
(PID.TID 0000.0001) %MON time_tsnumber                =                    10
(PID.TID 0000.0001) %MON time_secondsf                =   4.3200000000000E+05
(PID.TID 0000.0001) %MON dynstat_eta_max              =   9.6742252165036E-01
(PID.TID 0000.0001) %MON dynstat_eta_min              =  -8.8669450159978E-01
(PID.TID 0000.0001) %MON dynstat_eta_mean             =   2.2414488178893E-16
(PID.TID 0000.0001) %MON dynstat_eta_sd               =   2.8063664676712E-01
(PID.TID 0000.0001) %MON dynstat_eta_del2             =   2.5141331665506E-02
(PID.TID 0000.0001) %MON dynstat_uvel_max             =   1.0898318020521E-01
(PID.TID 0000.0001) %MON dynstat_uvel_min             =  -1.2267223012772E-01
(PID.TID 0000.0001) %MON dynstat_uvel_mean            =  -7.9108364450910E-03
(PID.TID 0000.0001) %MON dynstat_uvel_sd              =   1.1739632435529E-02
(PID.TID 0000.0001) %MON dynstat_uvel_del2            =   2.9549313583806E-03
(PID.TID 0000.0001) %MON dynstat_vvel_max             =   9.6264480037928E-02
(PID.TID 0000.0001) %MON dynstat_vvel_min             =  -9.3555860826721E-02
(PID.TID 0000.0001) %MON dynstat_vvel_mean            =   5.1334604670611E-03
(PID.TID 0000.0001) %MON dynstat_vvel_sd              =   1.5521258947122E-02
(PID.TID 0000.0001) %MON dynstat_vvel_del2            =   3.2442127321846E-03
(PID.TID 0000.0001) %MON dynstat_wvel_max             =   2.8278297449497E-04
(PID.TID 0000.0001) %MON dynstat_wvel_min             =  -3.1985077094570E-04
(PID.TID 0000.0001) %MON dynstat_wvel_mean            =  -1.8789927225977E-22
(PID.TID 0000.0001) %MON dynstat_wvel_sd              =   3.6565072279964E-05
(PID.TID 0000.0001) %MON dynstat_wvel_del2            =   1.2516304186843E-05
(PID.TID 0000.0001) %MON dynstat_theta_max            =   2.9626177804594E+01
(PID.TID 0000.0001) %MON dynstat_theta_min            =  -1.8999356659866E+00
(PID.TID 0000.0001) %MON dynstat_theta_mean           =   3.6053732646740E+00
(PID.TID 0000.0001) %MON dynstat_theta_sd             =   4.3860956070688E+00
(PID.TID 0000.0001) %MON dynstat_theta_del2           =   1.4375175878139E-01
(PID.TID 0000.0001) %MON dynstat_salt_max             =   3.7437795847370E+01
(PID.TID 0000.0001) %MON dynstat_salt_min             =   2.9781630503064E+01
(PID.TID 0000.0001) %MON dynstat_salt_mean            =   3.4716817043946E+01
(PID.TID 0000.0001) %MON dynstat_salt_sd              =   2.9616620273996E-01
(PID.TID 0000.0001) %MON dynstat_salt_del2            =   2.6150511060361E-02
(PID.TID 0000.0001) %MON advcfl_uvel_max              =   1.6320319175454E-02
(PID.TID 0000.0001) %MON advcfl_vvel_max              =   9.3513222873630E-03
(PID.TID 0000.0001) %MON advcfl_wvel_max              =   2.0144691913367E-01
(PID.TID 0000.0001) %MON advcfl_W_hf_max              =   2.0369177003947E-01
(PID.TID 0000.0001) %MON pe_b_mean                    =   1.0077898154280E-04
(PID.TID 0000.0001) %MON ke_max                       =   6.1325669285844E-03
(PID.TID 0000.0001) %MON ke_mean                      =   2.1103047222949E-04
(PID.TID 0000.0001) %MON ke_vol                       =   1.3226782436723E+18
(PID.TID 0000.0001) %MON vort_r_min                   =  -3.4557873524240E-07
(PID.TID 0000.0001) %MON vort_r_max                   =   5.2615331200596E-07
(PID.TID 0000.0001) %MON vort_a_mean                  =  -2.5205769606775E-05
(PID.TID 0000.0001) %MON vort_a_sd                    =   7.3401778690049E-05
(PID.TID 0000.0001) %MON vort_p_mean                  =  -3.1758669826269E-05
(PID.TID 0000.0001) %MON vort_p_sd                    =   1.3126188448891E-04
(PID.TID 0000.0001) %MON surfExpan_theta_mean         =   1.6111655056042E-04
(PID.TID 0000.0001) %MON surfExpan_salt_mean          =   1.2382336180813E-05
(PID.TID 0000.0001) // =======================================================
(PID.TID 0000.0001) // End MONITOR dynamic field statistics
(PID.TID 0000.0001) // =======================================================
(PID.TID 0000.0001) // =======================================================
(PID.TID 0000.0001) // Begin MONITOR ptracer field statistics
(PID.TID 0000.0001) // =======================================================
(PID.TID 0000.0001) %MON trcstat_ptracer01_max        =   3.7437795847370E+01
(PID.TID 0000.0001) %MON trcstat_ptracer01_min        =   2.9781630503064E+01
(PID.TID 0000.0001) %MON trcstat_ptracer01_mean       =   3.4716817043946E+01
(PID.TID 0000.0001) %MON trcstat_ptracer01_sd         =   2.9616620273996E-01
(PID.TID 0000.0001) %MON trcstat_ptracer01_del2       =   2.6150511060361E-02
(PID.TID 0000.0001) // =======================================================
(PID.TID 0000.0001) // End MONITOR ptracers field statistics
(PID.TID 0000.0001) // =======================================================
 EH3:  myIter =  10
time,SST,SSS,fu,fv,Q,E-P,i0,i1,a,b =   4.3200E+05  3.5491E-01  3.4481E+01 -3.8878E-02 -6.1587E-02  2.6532E+02  0.0000E+00    12     1  6.6667E-01  3.3333E-01
time,fu0,fu1,fu =   4.3200E+05 -4.5368E-02 -3.5633E-02 -3.8878E-02  6.6667E-01  3.3333E-01
 cg2d: Sum(rhs),rhsMax =  -4.81392703477468E-13  8.25118452322663E+00
(PID.TID 0000.0001)                    cg2d_init_res =    1.20298550518386E+00
(PID.TID 0000.0001)                       cg2d_iters =    25
(PID.TID 0000.0001)                         cg2d_res =    8.44470515709798E-14
(PID.TID 0000.0001) // =======================================================
(PID.TID 0000.0001) // Begin MONITOR dynamic field statistics
(PID.TID 0000.0001) // =======================================================
(PID.TID 0000.0001) %MON time_tsnumber                =                    11
(PID.TID 0000.0001) %MON time_secondsf                =   4.7520000000000E+05
(PID.TID 0000.0001) %MON dynstat_eta_max              =   9.6531541519773E-01
(PID.TID 0000.0001) %MON dynstat_eta_min              =  -9.1701585971082E-01
(PID.TID 0000.0001) %MON dynstat_eta_mean             =   3.3870782136993E-16
(PID.TID 0000.0001) %MON dynstat_eta_sd               =   3.0131360925275E-01
(PID.TID 0000.0001) %MON dynstat_eta_del2             =   2.4437882841987E-02
(PID.TID 0000.0001) %MON dynstat_uvel_max             =   1.1766177075536E-01
(PID.TID 0000.0001) %MON dynstat_uvel_min             =  -1.3089553687268E-01
(PID.TID 0000.0001) %MON dynstat_uvel_mean            =  -8.6656667692532E-03
(PID.TID 0000.0001) %MON dynstat_uvel_sd              =   1.2911311302097E-02
(PID.TID 0000.0001) %MON dynstat_uvel_del2            =   3.1096324792696E-03
(PID.TID 0000.0001) %MON dynstat_vvel_max             =   1.0386909722612E-01
(PID.TID 0000.0001) %MON dynstat_vvel_min             =  -9.9179509353288E-02
(PID.TID 0000.0001) %MON dynstat_vvel_mean            =   5.0130473211883E-03
(PID.TID 0000.0001) %MON dynstat_vvel_sd              =   1.5471770758777E-02
(PID.TID 0000.0001) %MON dynstat_vvel_del2            =   3.3506236016047E-03
(PID.TID 0000.0001) %MON dynstat_wvel_max             =   2.7555420419416E-04
(PID.TID 0000.0001) %MON dynstat_wvel_min             =  -3.4119137203526E-04
(PID.TID 0000.0001) %MON dynstat_wvel_mean            =  -2.8184890838965E-22
(PID.TID 0000.0001) %MON dynstat_wvel_sd              =   3.6569582344890E-05
(PID.TID 0000.0001) %MON dynstat_wvel_del2            =   1.2585551082084E-05
(PID.TID 0000.0001) %MON dynstat_theta_max            =   2.9583729328444E+01
(PID.TID 0000.0001) %MON dynstat_theta_min            =  -1.8999357823643E+00
(PID.TID 0000.0001) %MON dynstat_theta_mean           =   3.6036357528583E+00
(PID.TID 0000.0001) %MON dynstat_theta_sd             =   4.3818334043760E+00
(PID.TID 0000.0001) %MON dynstat_theta_del2           =   1.4313197204338E-01
(PID.TID 0000.0001) %MON dynstat_salt_max             =   3.7435608636096E+01
(PID.TID 0000.0001) %MON dynstat_salt_min             =   2.9783737071664E+01
(PID.TID 0000.0001) %MON dynstat_salt_mean            =   3.4716682788462E+01
(PID.TID 0000.0001) %MON dynstat_salt_sd              =   2.9614800125297E-01
(PID.TID 0000.0001) %MON dynstat_salt_del2            =   2.6115373217633E-02
(PID.TID 0000.0001) %MON advcfl_uvel_max              =   1.7540042921300E-02
(PID.TID 0000.0001) %MON advcfl_vvel_max              =   1.0090049865497E-02
(PID.TID 0000.0001) %MON advcfl_wvel_max              =   1.9684554333137E-01
(PID.TID 0000.0001) %MON advcfl_W_hf_max              =   1.8965209028369E-01
(PID.TID 0000.0001) %MON pe_b_mean                    =   1.1617660885180E-04
(PID.TID 0000.0001) %MON ke_max                       =   7.2063863573768E-03
(PID.TID 0000.0001) %MON ke_mean                      =   2.2859995316537E-04
(PID.TID 0000.0001) %MON ke_vol                       =   1.3226782436723E+18
(PID.TID 0000.0001) %MON vort_r_min                   =  -3.4934137990366E-07
(PID.TID 0000.0001) %MON vort_r_max                   =   5.7308915916839E-07
(PID.TID 0000.0001) %MON vort_a_mean                  =  -2.5205769683543E-05
(PID.TID 0000.0001) %MON vort_a_sd                    =   7.3401632798047E-05
(PID.TID 0000.0001) %MON vort_p_mean                  =  -3.1758669922995E-05
(PID.TID 0000.0001) %MON vort_p_sd                    =   1.3126131522500E-04
(PID.TID 0000.0001) %MON surfExpan_theta_mean         =   1.5240628594518E-04
(PID.TID 0000.0001) %MON surfExpan_salt_mean          =   1.1353963954694E-05
(PID.TID 0000.0001) // =======================================================
(PID.TID 0000.0001) // End MONITOR dynamic field statistics
(PID.TID 0000.0001) // =======================================================
(PID.TID 0000.0001) // =======================================================
(PID.TID 0000.0001) // Begin MONITOR ptracer field statistics
(PID.TID 0000.0001) // =======================================================
(PID.TID 0000.0001) %MON trcstat_ptracer01_max        =   3.7435608636096E+01
(PID.TID 0000.0001) %MON trcstat_ptracer01_min        =   2.9783737071664E+01
(PID.TID 0000.0001) %MON trcstat_ptracer01_mean       =   3.4716682788462E+01
(PID.TID 0000.0001) %MON trcstat_ptracer01_sd         =   2.9614800125297E-01
(PID.TID 0000.0001) %MON trcstat_ptracer01_del2       =   2.6115373217633E-02
(PID.TID 0000.0001) // =======================================================
(PID.TID 0000.0001) // End MONITOR ptracers field statistics
(PID.TID 0000.0001) // =======================================================
time,SST,SSS,fu,fv,Q,E-P,i0,i1,a,b =   4.7520E+05  3.8508E-01  3.4492E+01 -3.8716E-02 -6.1371E-02  2.6534E+02  0.0000E+00    12     1  6.8333E-01  3.1667E-01
time,fu0,fu1,fu =   4.7520E+05 -4.5368E-02 -3.5633E-02 -3.8716E-02  6.8333E-01  3.1667E-01
 cg2d: Sum(rhs),rhsMax =  -7.77156117237610E-13  8.09140699012004E+00
(PID.TID 0000.0001)                    cg2d_init_res =    1.18153818294113E+00
(PID.TID 0000.0001)                       cg2d_iters =    25
(PID.TID 0000.0001)                         cg2d_res =    8.15257743187811E-14
(PID.TID 0000.0001) // =======================================================
(PID.TID 0000.0001) // Begin MONITOR dynamic field statistics
(PID.TID 0000.0001) // =======================================================
(PID.TID 0000.0001) %MON time_tsnumber                =                    12
(PID.TID 0000.0001) %MON time_secondsf                =   5.1840000000000E+05
(PID.TID 0000.0001) %MON dynstat_eta_max              =   9.9562314729421E-01
(PID.TID 0000.0001) %MON dynstat_eta_min              =  -1.0103517577212E+00
(PID.TID 0000.0001) %MON dynstat_eta_mean             =   4.7002502484223E-16
(PID.TID 0000.0001) %MON dynstat_eta_sd               =   3.1972273632837E-01
(PID.TID 0000.0001) %MON dynstat_eta_del2             =   2.3687189868498E-02
(PID.TID 0000.0001) %MON dynstat_uvel_max             =   1.2568017219161E-01
(PID.TID 0000.0001) %MON dynstat_uvel_min             =  -1.3461694622584E-01
(PID.TID 0000.0001) %MON dynstat_uvel_mean            =  -9.3042553295981E-03
(PID.TID 0000.0001) %MON dynstat_uvel_sd              =   1.3988061265344E-02
(PID.TID 0000.0001) %MON dynstat_uvel_del2            =   3.2396187998855E-03
(PID.TID 0000.0001) %MON dynstat_vvel_max             =   1.0890925970831E-01
(PID.TID 0000.0001) %MON dynstat_vvel_min             =  -1.0307817453425E-01
(PID.TID 0000.0001) %MON dynstat_vvel_mean            =   4.7991986634359E-03
(PID.TID 0000.0001) %MON dynstat_vvel_sd              =   1.5287324290737E-02
(PID.TID 0000.0001) %MON dynstat_vvel_del2            =   3.4229845573224E-03
(PID.TID 0000.0001) %MON dynstat_wvel_max             =   2.6645837832298E-04
(PID.TID 0000.0001) %MON dynstat_wvel_min             =  -3.5712293587431E-04
(PID.TID 0000.0001) %MON dynstat_wvel_mean            =  -7.5159708903907E-22
(PID.TID 0000.0001) %MON dynstat_wvel_sd              =   3.6185642239154E-05
(PID.TID 0000.0001) %MON dynstat_wvel_del2            =   1.2474949761765E-05
(PID.TID 0000.0001) %MON dynstat_theta_max            =   2.9547398911881E+01
(PID.TID 0000.0001) %MON dynstat_theta_min            =  -1.8999356366707E+00
(PID.TID 0000.0001) %MON dynstat_theta_mean           =   3.6020150008160E+00
(PID.TID 0000.0001) %MON dynstat_theta_sd             =   4.3776605661661E+00
(PID.TID 0000.0001) %MON dynstat_theta_del2           =   1.4256492412572E-01
(PID.TID 0000.0001) %MON dynstat_salt_max             =   3.7433628624237E+01
(PID.TID 0000.0001) %MON dynstat_salt_min             =   2.9785390096695E+01
(PID.TID 0000.0001) %MON dynstat_salt_mean            =   3.4716561818208E+01
(PID.TID 0000.0001) %MON dynstat_salt_sd              =   2.9612429200938E-01
(PID.TID 0000.0001) %MON dynstat_salt_del2            =   2.6086600287092E-02
(PID.TID 0000.0001) %MON advcfl_uvel_max              =   2.1077670035147E-02
(PID.TID 0000.0001) %MON advcfl_vvel_max              =   1.0579661233398E-02
(PID.TID 0000.0001) %MON advcfl_wvel_max              =   2.0124163784881E-01
(PID.TID 0000.0001) %MON advcfl_W_hf_max              =   1.7560483845443E-01
(PID.TID 0000.0001) %MON pe_b_mean                    =   1.3080617386907E-04
(PID.TID 0000.0001) %MON ke_max                       =   8.2973725765001E-03
(PID.TID 0000.0001) %MON ke_mean                      =   2.4348305653751E-04
(PID.TID 0000.0001) %MON ke_vol                       =   1.3226782436723E+18
(PID.TID 0000.0001) %MON vort_r_min                   =  -3.3976158643705E-07
(PID.TID 0000.0001) %MON vort_r_max                   =   6.0486779614218E-07
(PID.TID 0000.0001) %MON vort_a_mean                  =  -2.5205769740601E-05
(PID.TID 0000.0001) %MON vort_a_sd                    =   7.3401507084372E-05
(PID.TID 0000.0001) %MON vort_p_mean                  =  -3.1758669994887E-05
(PID.TID 0000.0001) %MON vort_p_sd                    =   1.3126080471455E-04
(PID.TID 0000.0001) %MON surfExpan_theta_mean         =   1.4156757870360E-04
(PID.TID 0000.0001) %MON surfExpan_salt_mean          =   1.0141570260872E-05
(PID.TID 0000.0001) // =======================================================
(PID.TID 0000.0001) // End MONITOR dynamic field statistics
(PID.TID 0000.0001) // =======================================================
(PID.TID 0000.0001) // =======================================================
(PID.TID 0000.0001) // Begin MONITOR ptracer field statistics
(PID.TID 0000.0001) // =======================================================
(PID.TID 0000.0001) %MON trcstat_ptracer01_max        =   3.7433628624237E+01
(PID.TID 0000.0001) %MON trcstat_ptracer01_min        =   2.9785390096695E+01
(PID.TID 0000.0001) %MON trcstat_ptracer01_mean       =   3.4716561818208E+01
(PID.TID 0000.0001) %MON trcstat_ptracer01_sd         =   2.9612429200938E-01
(PID.TID 0000.0001) %MON trcstat_ptracer01_del2       =   2.6086600287092E-02
(PID.TID 0000.0001) // =======================================================
(PID.TID 0000.0001) // End MONITOR ptracers field statistics
(PID.TID 0000.0001) // =======================================================
time,SST,SSS,fu,fv,Q,E-P,i0,i1,a,b =   5.1840E+05  4.1526E-01  3.4504E+01 -3.8553E-02 -6.1154E-02  2.6537E+02  0.0000E+00    12     1  7.0000E-01  3.0000E-01
time,fu0,fu1,fu =   5.1840E+05 -4.5368E-02 -3.5633E-02 -3.8553E-02  7.0000E-01  3.0000E-01
 cg2d: Sum(rhs),rhsMax =  -7.65609797781508E-13  8.55664182816253E+00
(PID.TID 0000.0001)                    cg2d_init_res =    1.07784424706538E+00
(PID.TID 0000.0001)                       cg2d_iters =    25
(PID.TID 0000.0001)                         cg2d_res =    7.21582905590099E-14
(PID.TID 0000.0001) // =======================================================
(PID.TID 0000.0001) // Begin MONITOR dynamic field statistics
(PID.TID 0000.0001) // =======================================================
(PID.TID 0000.0001) %MON time_tsnumber                =                    13
(PID.TID 0000.0001) %MON time_secondsf                =   5.6160000000000E+05
(PID.TID 0000.0001) %MON dynstat_eta_max              =   1.0471435520013E+00
(PID.TID 0000.0001) %MON dynstat_eta_min              =  -1.0887571581746E+00
(PID.TID 0000.0001) %MON dynstat_eta_mean             =   3.6497126206439E-16
(PID.TID 0000.0001) %MON dynstat_eta_sd               =   3.3569736758361E-01
(PID.TID 0000.0001) %MON dynstat_eta_del2             =   2.2892607483209E-02
(PID.TID 0000.0001) %MON dynstat_uvel_max             =   1.3300120217770E-01
(PID.TID 0000.0001) %MON dynstat_uvel_min             =  -1.3403471306080E-01
(PID.TID 0000.0001) %MON dynstat_uvel_mean            =  -9.8099733563447E-03
(PID.TID 0000.0001) %MON dynstat_uvel_sd              =   1.4956286399745E-02
(PID.TID 0000.0001) %MON dynstat_uvel_del2            =   3.3479225143887E-03
(PID.TID 0000.0001) %MON dynstat_vvel_max             =   1.1119271573480E-01
(PID.TID 0000.0001) %MON dynstat_vvel_min             =  -1.0506137340991E-01
(PID.TID 0000.0001) %MON dynstat_vvel_mean            =   4.5115941651147E-03
(PID.TID 0000.0001) %MON dynstat_vvel_sd              =   1.5018224808781E-02
(PID.TID 0000.0001) %MON dynstat_vvel_del2            =   3.4671349173360E-03
(PID.TID 0000.0001) %MON dynstat_wvel_max             =   2.5866907531010E-04
(PID.TID 0000.0001) %MON dynstat_wvel_min             =  -3.6634545110996E-04
(PID.TID 0000.0001) %MON dynstat_wvel_mean            =  -9.3949636129884E-23
(PID.TID 0000.0001) %MON dynstat_wvel_sd              =   3.5485033887888E-05
(PID.TID 0000.0001) %MON dynstat_wvel_del2            =   1.2211970524398E-05
(PID.TID 0000.0001) %MON dynstat_theta_max            =   2.9557007837105E+01
(PID.TID 0000.0001) %MON dynstat_theta_min            =  -1.8999352483204E+00
(PID.TID 0000.0001) %MON dynstat_theta_mean           =   3.6005310885940E+00
(PID.TID 0000.0001) %MON dynstat_theta_sd             =   4.3736256853614E+00
(PID.TID 0000.0001) %MON dynstat_theta_del2           =   1.4204577319029E-01
(PID.TID 0000.0001) %MON dynstat_salt_max             =   3.7431795105228E+01
(PID.TID 0000.0001) %MON dynstat_salt_min             =   2.9786589972990E+01
(PID.TID 0000.0001) %MON dynstat_salt_mean            =   3.4716455758902E+01
(PID.TID 0000.0001) %MON dynstat_salt_sd              =   2.9609565905425E-01
(PID.TID 0000.0001) %MON dynstat_salt_del2            =   2.6063777224142E-02
(PID.TID 0000.0001) %MON advcfl_uvel_max              =   2.4449386821960E-02
(PID.TID 0000.0001) %MON advcfl_vvel_max              =   1.0801480675256E-02
(PID.TID 0000.0001) %MON advcfl_wvel_max              =   2.0208472636474E-01
(PID.TID 0000.0001) %MON advcfl_W_hf_max              =   1.7748386151185E-01
(PID.TID 0000.0001) %MON pe_b_mean                    =   1.4420392174285E-04
(PID.TID 0000.0001) %MON ke_max                       =   9.3799878892460E-03
(PID.TID 0000.0001) %MON ke_mean                      =   2.5574324943548E-04
(PID.TID 0000.0001) %MON ke_vol                       =   1.3226782436723E+18
(PID.TID 0000.0001) %MON vort_r_min                   =  -3.3396138508163E-07
(PID.TID 0000.0001) %MON vort_r_max                   =   6.2009674126967E-07
(PID.TID 0000.0001) %MON vort_a_mean                  =  -2.5205769772108E-05
(PID.TID 0000.0001) %MON vort_a_sd                    =   7.3401404731743E-05
(PID.TID 0000.0001) %MON vort_p_mean                  =  -3.1758670034585E-05
(PID.TID 0000.0001) %MON vort_p_sd                    =   1.3126037570226E-04
(PID.TID 0000.0001) %MON surfExpan_theta_mean         =   1.2914019562874E-04
(PID.TID 0000.0001) %MON surfExpan_salt_mean          =   8.8100310120201E-06
(PID.TID 0000.0001) // =======================================================
(PID.TID 0000.0001) // End MONITOR dynamic field statistics
(PID.TID 0000.0001) // =======================================================
(PID.TID 0000.0001) // =======================================================
(PID.TID 0000.0001) // Begin MONITOR ptracer field statistics
(PID.TID 0000.0001) // =======================================================
(PID.TID 0000.0001) %MON trcstat_ptracer01_max        =   3.7431795105228E+01
(PID.TID 0000.0001) %MON trcstat_ptracer01_min        =   2.9786589972990E+01
(PID.TID 0000.0001) %MON trcstat_ptracer01_mean       =   3.4716455758902E+01
(PID.TID 0000.0001) %MON trcstat_ptracer01_sd         =   2.9609565905425E-01
(PID.TID 0000.0001) %MON trcstat_ptracer01_del2       =   2.6063777224142E-02
(PID.TID 0000.0001) // =======================================================
(PID.TID 0000.0001) // End MONITOR ptracers field statistics
(PID.TID 0000.0001) // =======================================================
time,SST,SSS,fu,fv,Q,E-P,i0,i1,a,b =   5.6160E+05  4.4544E-01  3.4516E+01 -3.8391E-02 -6.0938E-02  2.6539E+02  0.0000E+00    12     1  7.1667E-01  2.8333E-01
time,fu0,fu1,fu =   5.6160E+05 -4.5368E-02 -3.5633E-02 -3.8391E-02  7.1667E-01  2.8333E-01
 cg2d: Sum(rhs),rhsMax =  -8.73967564984923E-13  9.25242894282468E+00
(PID.TID 0000.0001)                    cg2d_init_res =    9.64914566395342E-01
(PID.TID 0000.0001)                       cg2d_iters =    25
(PID.TID 0000.0001)                         cg2d_res =    6.15062388454933E-14
(PID.TID 0000.0001) // =======================================================
(PID.TID 0000.0001) // Begin MONITOR dynamic field statistics
(PID.TID 0000.0001) // =======================================================
(PID.TID 0000.0001) %MON time_tsnumber                =                    14
(PID.TID 0000.0001) %MON time_secondsf                =   6.0480000000000E+05
(PID.TID 0000.0001) %MON dynstat_eta_max              =   1.1180788465605E+00
(PID.TID 0000.0001) %MON dynstat_eta_min              =  -1.1574861542396E+00
(PID.TID 0000.0001) %MON dynstat_eta_mean             =   4.4013904060371E-16
(PID.TID 0000.0001) %MON dynstat_eta_sd               =   3.4915697650564E-01
(PID.TID 0000.0001) %MON dynstat_eta_del2             =   2.2212333088537E-02
(PID.TID 0000.0001) %MON dynstat_uvel_max             =   1.4012216609940E-01
(PID.TID 0000.0001) %MON dynstat_uvel_min             =  -1.2966468411938E-01
(PID.TID 0000.0001) %MON dynstat_uvel_mean            =  -1.0171948878884E-02
(PID.TID 0000.0001) %MON dynstat_uvel_sd              =   1.5807944859175E-02
(PID.TID 0000.0001) %MON dynstat_uvel_del2            =   3.4392833880760E-03
(PID.TID 0000.0001) %MON dynstat_vvel_max             =   1.2328977446561E-01
(PID.TID 0000.0001) %MON dynstat_vvel_min             =  -1.0498882581635E-01
(PID.TID 0000.0001) %MON dynstat_vvel_mean            =   4.1723206987448E-03
(PID.TID 0000.0001) %MON dynstat_vvel_sd              =   1.4712002750659E-02
(PID.TID 0000.0001) %MON dynstat_vvel_del2            =   3.4855195635336E-03
(PID.TID 0000.0001) %MON dynstat_wvel_max             =   2.5647649517971E-04
(PID.TID 0000.0001) %MON dynstat_wvel_min             =  -3.6854233240509E-04
(PID.TID 0000.0001) %MON dynstat_wvel_mean            =   8.4554672516896E-22
(PID.TID 0000.0001) %MON dynstat_wvel_sd              =   3.4545935090405E-05
(PID.TID 0000.0001) %MON dynstat_wvel_del2            =   1.1825817015482E-05
(PID.TID 0000.0001) %MON dynstat_theta_max            =   2.9557845524882E+01
(PID.TID 0000.0001) %MON dynstat_theta_min            =  -1.8999346630301E+00
(PID.TID 0000.0001) %MON dynstat_theta_mean           =   3.5991982638329E+00
(PID.TID 0000.0001) %MON dynstat_theta_sd             =   4.3697733491630E+00
(PID.TID 0000.0001) %MON dynstat_theta_del2           =   1.4159695979787E-01
(PID.TID 0000.0001) %MON dynstat_salt_max             =   3.7430055194303E+01
(PID.TID 0000.0001) %MON dynstat_salt_min             =   2.9787362383862E+01
(PID.TID 0000.0001) %MON dynstat_salt_mean            =   3.4716365508734E+01
(PID.TID 0000.0001) %MON dynstat_salt_sd              =   2.9606307785155E-01
(PID.TID 0000.0001) %MON dynstat_salt_del2            =   2.6046702219794E-02
(PID.TID 0000.0001) %MON advcfl_uvel_max              =   2.6817582804493E-02
(PID.TID 0000.0001) %MON advcfl_vvel_max              =   1.1976612924206E-02
(PID.TID 0000.0001) %MON advcfl_wvel_max              =   1.8737032486462E-01
(PID.TID 0000.0001) %MON advcfl_W_hf_max              =   1.6543589963409E-01
(PID.TID 0000.0001) %MON pe_b_mean                    =   1.5599929956239E-04
(PID.TID 0000.0001) %MON ke_max                       =   1.0427219858815E-02
(PID.TID 0000.0001) %MON ke_mean                      =   2.6552273675910E-04
(PID.TID 0000.0001) %MON ke_vol                       =   1.3226782436723E+18
(PID.TID 0000.0001) %MON vort_r_min                   =  -3.4630548586599E-07
(PID.TID 0000.0001) %MON vort_r_max                   =   6.1824625276370E-07
(PID.TID 0000.0001) %MON vort_a_mean                  =  -2.5205769776134E-05
(PID.TID 0000.0001) %MON vort_a_sd                    =   7.3401327977634E-05
(PID.TID 0000.0001) %MON vort_p_mean                  =  -3.1758670039657E-05
(PID.TID 0000.0001) %MON vort_p_sd                    =   1.3126004616976E-04
(PID.TID 0000.0001) %MON surfExpan_theta_mean         =   1.1560064273227E-04
(PID.TID 0000.0001) %MON surfExpan_salt_mean          =   7.4140542588760E-06
(PID.TID 0000.0001) // =======================================================
(PID.TID 0000.0001) // End MONITOR dynamic field statistics
(PID.TID 0000.0001) // =======================================================
(PID.TID 0000.0001) // =======================================================
(PID.TID 0000.0001) // Begin MONITOR ptracer field statistics
(PID.TID 0000.0001) // =======================================================
(PID.TID 0000.0001) %MON trcstat_ptracer01_max        =   3.7430055194303E+01
(PID.TID 0000.0001) %MON trcstat_ptracer01_min        =   2.9787362383862E+01
(PID.TID 0000.0001) %MON trcstat_ptracer01_mean       =   3.4716365508734E+01
(PID.TID 0000.0001) %MON trcstat_ptracer01_sd         =   2.9606307785155E-01
(PID.TID 0000.0001) %MON trcstat_ptracer01_del2       =   2.6046702219794E-02
(PID.TID 0000.0001) // =======================================================
(PID.TID 0000.0001) // End MONITOR ptracers field statistics
(PID.TID 0000.0001) // =======================================================
time,SST,SSS,fu,fv,Q,E-P,i0,i1,a,b =   6.0480E+05  4.7561E-01  3.4527E+01 -3.8229E-02 -6.0721E-02  2.6541E+02  0.0000E+00    12     1  7.3333E-01  2.6667E-01
time,fu0,fu1,fu =   6.0480E+05 -4.5368E-02 -3.5633E-02 -3.8229E-02  7.3333E-01  2.6667E-01
 cg2d: Sum(rhs),rhsMax =  -9.48574552239734E-13  9.75443545754701E+00
(PID.TID 0000.0001)                    cg2d_init_res =    8.90307658468228E-01
(PID.TID 0000.0001)                       cg2d_iters =    25
(PID.TID 0000.0001)                         cg2d_res =    5.29375603963200E-14
(PID.TID 0000.0001) // =======================================================
(PID.TID 0000.0001) // Begin MONITOR dynamic field statistics
(PID.TID 0000.0001) // =======================================================
(PID.TID 0000.0001) %MON time_tsnumber                =                    15
(PID.TID 0000.0001) %MON time_secondsf                =   6.4800000000000E+05
(PID.TID 0000.0001) %MON dynstat_eta_max              =   1.1768567907792E+00
(PID.TID 0000.0001) %MON dynstat_eta_min              =  -1.1927252044502E+00
(PID.TID 0000.0001) %MON dynstat_eta_mean             =   4.7817574781638E-16
(PID.TID 0000.0001) %MON dynstat_eta_sd               =   3.6011066532096E-01
(PID.TID 0000.0001) %MON dynstat_eta_del2             =   2.1638053418220E-02
(PID.TID 0000.0001) %MON dynstat_uvel_max             =   1.4990675145110E-01
(PID.TID 0000.0001) %MON dynstat_uvel_min             =  -1.3081806396300E-01
(PID.TID 0000.0001) %MON dynstat_uvel_mean            =  -1.0385366889564E-02
(PID.TID 0000.0001) %MON dynstat_uvel_sd              =   1.6540004407171E-02
(PID.TID 0000.0001) %MON dynstat_uvel_del2            =   3.5126310105313E-03
(PID.TID 0000.0001) %MON dynstat_vvel_max             =   1.3650262361990E-01
(PID.TID 0000.0001) %MON dynstat_vvel_min             =  -1.0648131918342E-01
(PID.TID 0000.0001) %MON dynstat_vvel_mean            =   3.8044923264300E-03
(PID.TID 0000.0001) %MON dynstat_vvel_sd              =   1.4409662354203E-02
(PID.TID 0000.0001) %MON dynstat_vvel_del2            =   3.4858126944144E-03
(PID.TID 0000.0001) %MON dynstat_wvel_max             =   2.5395692167800E-04
(PID.TID 0000.0001) %MON dynstat_wvel_min             =  -3.6421480751284E-04
(PID.TID 0000.0001) %MON dynstat_wvel_mean            =  -4.6974818064942E-23
(PID.TID 0000.0001) %MON dynstat_wvel_sd              =   3.3445631022955E-05
(PID.TID 0000.0001) %MON dynstat_wvel_del2            =   1.1345397441828E-05
(PID.TID 0000.0001) %MON dynstat_theta_max            =   2.9547494857542E+01
(PID.TID 0000.0001) %MON dynstat_theta_min            =  -1.8999339416116E+00
(PID.TID 0000.0001) %MON dynstat_theta_mean           =   3.5980259368026E+00
(PID.TID 0000.0001) %MON dynstat_theta_sd             =   4.3661452666597E+00
(PID.TID 0000.0001) %MON dynstat_theta_del2           =   1.4119966971067E-01
(PID.TID 0000.0001) %MON dynstat_salt_max             =   3.7428378067860E+01
(PID.TID 0000.0001) %MON dynstat_salt_min             =   2.9787755613658E+01
(PID.TID 0000.0001) %MON dynstat_salt_mean            =   3.4716291420354E+01
(PID.TID 0000.0001) %MON dynstat_salt_sd              =   2.9602758142019E-01
(PID.TID 0000.0001) %MON dynstat_salt_del2            =   2.6036557356309E-02
(PID.TID 0000.0001) %MON advcfl_uvel_max              =   2.7840683499872E-02
(PID.TID 0000.0001) %MON advcfl_vvel_max              =   1.3260135265233E-02
(PID.TID 0000.0001) %MON advcfl_wvel_max              =   1.5766817320649E-01
(PID.TID 0000.0001) %MON advcfl_W_hf_max              =   1.3993513243896E-01
(PID.TID 0000.0001) %MON pe_b_mean                    =   1.6594079565037E-04
(PID.TID 0000.0001) %MON ke_max                       =   1.1414831498855E-02
(PID.TID 0000.0001) %MON ke_mean                      =   2.7300437920654E-04
(PID.TID 0000.0001) %MON ke_vol                       =   1.3226782436723E+18
(PID.TID 0000.0001) %MON vort_r_min                   =  -3.7032579520335E-07
(PID.TID 0000.0001) %MON vort_r_max                   =   5.9960188485756E-07
(PID.TID 0000.0001) %MON vort_a_mean                  =  -2.5205769754508E-05
(PID.TID 0000.0001) %MON vort_a_sd                    =   7.3401278029223E-05
(PID.TID 0000.0001) %MON vort_p_mean                  =  -3.1758670012409E-05
(PID.TID 0000.0001) %MON vort_p_sd                    =   1.3125982732331E-04
(PID.TID 0000.0001) %MON surfExpan_theta_mean         =   1.0138486356420E-04
(PID.TID 0000.0001) %MON surfExpan_salt_mean          =   6.0011301221621E-06
(PID.TID 0000.0001) // =======================================================
(PID.TID 0000.0001) // End MONITOR dynamic field statistics
(PID.TID 0000.0001) // =======================================================
(PID.TID 0000.0001) // =======================================================
(PID.TID 0000.0001) // Begin MONITOR ptracer field statistics
(PID.TID 0000.0001) // =======================================================
(PID.TID 0000.0001) %MON trcstat_ptracer01_max        =   3.7428378067860E+01
(PID.TID 0000.0001) %MON trcstat_ptracer01_min        =   2.9787755613658E+01
(PID.TID 0000.0001) %MON trcstat_ptracer01_mean       =   3.4716291420354E+01
(PID.TID 0000.0001) %MON trcstat_ptracer01_sd         =   2.9602758142019E-01
(PID.TID 0000.0001) %MON trcstat_ptracer01_del2       =   2.6036557356309E-02
(PID.TID 0000.0001) // =======================================================
(PID.TID 0000.0001) // End MONITOR ptracers field statistics
(PID.TID 0000.0001) // =======================================================
 EH3:  myIter =  15
time,SST,SSS,fu,fv,Q,E-P,i0,i1,a,b =   6.4800E+05  5.0579E-01  3.4539E+01 -3.8067E-02 -6.0505E-02  2.6543E+02  0.0000E+00    12     1  7.5000E-01  2.5000E-01
time,fu0,fu1,fu =   6.4800E+05 -4.5368E-02 -3.5633E-02 -3.8067E-02  7.5000E-01  2.5000E-01
 cg2d: Sum(rhs),rhsMax =  -7.63833440942108E-13  1.00476150742978E+01
(PID.TID 0000.0001)                    cg2d_init_res =    8.45059255103379E-01
(PID.TID 0000.0001)                       cg2d_iters =    25
(PID.TID 0000.0001)                         cg2d_res =    4.55971926360280E-14
(PID.TID 0000.0001) // =======================================================
(PID.TID 0000.0001) // Begin MONITOR dynamic field statistics
(PID.TID 0000.0001) // =======================================================
(PID.TID 0000.0001) %MON time_tsnumber                =                    16
(PID.TID 0000.0001) %MON time_secondsf                =   6.9120000000000E+05
(PID.TID 0000.0001) %MON dynstat_eta_max              =   1.2111723818321E+00
(PID.TID 0000.0001) %MON dynstat_eta_min              =  -1.1859734837334E+00
(PID.TID 0000.0001) %MON dynstat_eta_mean             =   5.1349554737100E-16
(PID.TID 0000.0001) %MON dynstat_eta_sd               =   3.6865114161165E-01
(PID.TID 0000.0001) %MON dynstat_eta_del2             =   2.1157891040781E-02
(PID.TID 0000.0001) %MON dynstat_uvel_max             =   1.5880806611892E-01
(PID.TID 0000.0001) %MON dynstat_uvel_min             =  -1.3182532606237E-01
(PID.TID 0000.0001) %MON dynstat_uvel_mean            =  -1.0451305856530E-02
(PID.TID 0000.0001) %MON dynstat_uvel_sd              =   1.7153793623550E-02
(PID.TID 0000.0001) %MON dynstat_uvel_del2            =   3.5710127715518E-03
(PID.TID 0000.0001) %MON dynstat_vvel_max             =   1.4663806889621E-01
(PID.TID 0000.0001) %MON dynstat_vvel_min             =  -1.0858656297839E-01
(PID.TID 0000.0001) %MON dynstat_vvel_mean            =   3.4308296497817E-03
(PID.TID 0000.0001) %MON dynstat_vvel_sd              =   1.4142447753943E-02
(PID.TID 0000.0001) %MON dynstat_vvel_del2            =   3.4717936075400E-03
(PID.TID 0000.0001) %MON dynstat_wvel_max             =   2.6154501321939E-04
(PID.TID 0000.0001) %MON dynstat_wvel_min             =  -3.5648385128332E-04
(PID.TID 0000.0001) %MON dynstat_wvel_mean            =   2.0199171767925E-21
(PID.TID 0000.0001) %MON dynstat_wvel_sd              =   3.2257578584150E-05
(PID.TID 0000.0001) %MON dynstat_wvel_del2            =   1.0809351260955E-05
(PID.TID 0000.0001) %MON dynstat_theta_max            =   2.9524566628120E+01
(PID.TID 0000.0001) %MON dynstat_theta_min            =  -1.8999331529967E+00
(PID.TID 0000.0001) %MON dynstat_theta_mean           =   3.5970186877041E+00
(PID.TID 0000.0001) %MON dynstat_theta_sd             =   4.3627800460912E+00
(PID.TID 0000.0001) %MON dynstat_theta_del2           =   1.4084566428811E-01
(PID.TID 0000.0001) %MON dynstat_salt_max             =   3.7426758091886E+01
(PID.TID 0000.0001) %MON dynstat_salt_min             =   2.9787836872461E+01
(PID.TID 0000.0001) %MON dynstat_salt_mean            =   3.4716233355827E+01
(PID.TID 0000.0001) %MON dynstat_salt_sd              =   2.9599056476106E-01
(PID.TID 0000.0001) %MON dynstat_salt_del2            =   2.6030771602285E-02
(PID.TID 0000.0001) %MON advcfl_uvel_max              =   2.7280343454555E-02
(PID.TID 0000.0001) %MON advcfl_vvel_max              =   1.4244712497327E-02
(PID.TID 0000.0001) %MON advcfl_wvel_max              =   1.6533571605097E-01
(PID.TID 0000.0001) %MON advcfl_W_hf_max              =   1.3743689814315E-01
(PID.TID 0000.0001) %MON pe_b_mean                    =   1.7390511921208E-04
(PID.TID 0000.0001) %MON ke_max                       =   1.2324298106797E-02
(PID.TID 0000.0001) %MON ke_mean                      =   2.7838523977066E-04
(PID.TID 0000.0001) %MON ke_vol                       =   1.3226782436723E+18
(PID.TID 0000.0001) %MON vort_r_min                   =  -3.9090702685037E-07
(PID.TID 0000.0001) %MON vort_r_max                   =   5.6518289621237E-07
(PID.TID 0000.0001) %MON vort_a_mean                  =  -2.5205769712112E-05
(PID.TID 0000.0001) %MON vort_a_sd                    =   7.3401255064263E-05
(PID.TID 0000.0001) %MON vort_p_mean                  =  -3.1758669958990E-05
(PID.TID 0000.0001) %MON vort_p_sd                    =   1.3125972271041E-04
(PID.TID 0000.0001) %MON surfExpan_theta_mean         =   8.6880083647739E-05
(PID.TID 0000.0001) %MON surfExpan_salt_mean          =   4.6080646680891E-06
(PID.TID 0000.0001) // =======================================================
(PID.TID 0000.0001) // End MONITOR dynamic field statistics
(PID.TID 0000.0001) // =======================================================
(PID.TID 0000.0001) // =======================================================
(PID.TID 0000.0001) // Begin MONITOR ptracer field statistics
(PID.TID 0000.0001) // =======================================================
(PID.TID 0000.0001) %MON trcstat_ptracer01_max        =   3.7426758091886E+01
(PID.TID 0000.0001) %MON trcstat_ptracer01_min        =   2.9787836872461E+01
(PID.TID 0000.0001) %MON trcstat_ptracer01_mean       =   3.4716233355827E+01
(PID.TID 0000.0001) %MON trcstat_ptracer01_sd         =   2.9599056476106E-01
(PID.TID 0000.0001) %MON trcstat_ptracer01_del2       =   2.6030771602285E-02
(PID.TID 0000.0001) // =======================================================
(PID.TID 0000.0001) // End MONITOR ptracers field statistics
(PID.TID 0000.0001) // =======================================================
time,SST,SSS,fu,fv,Q,E-P,i0,i1,a,b =   6.9120E+05  5.3596E-01  3.4551E+01 -3.7904E-02 -6.0288E-02  2.6546E+02  0.0000E+00    12     1  7.6667E-01  2.3333E-01
time,fu0,fu1,fu =   6.9120E+05 -4.5368E-02 -3.5633E-02 -3.7904E-02  7.6667E-01  2.3333E-01
 cg2d: Sum(rhs),rhsMax =  -9.57456336436735E-13  1.01286648738937E+01
(PID.TID 0000.0001)                    cg2d_init_res =    8.22916928314720E-01
(PID.TID 0000.0001)                       cg2d_iters =    24
(PID.TID 0000.0001)                         cg2d_res =    6.86192107638738E-14
(PID.TID 0000.0001) // =======================================================
(PID.TID 0000.0001) // Begin MONITOR dynamic field statistics
(PID.TID 0000.0001) // =======================================================
(PID.TID 0000.0001) %MON time_tsnumber                =                    17
(PID.TID 0000.0001) %MON time_secondsf                =   7.3440000000000E+05
(PID.TID 0000.0001) %MON dynstat_eta_max              =   1.2207667842221E+00
(PID.TID 0000.0001) %MON dynstat_eta_min              =  -1.1613574079065E+00
(PID.TID 0000.0001) %MON dynstat_eta_mean             =   4.1930941522535E-16
(PID.TID 0000.0001) %MON dynstat_eta_sd               =   3.7494162455276E-01
(PID.TID 0000.0001) %MON dynstat_eta_del2             =   2.0713136397918E-02
(PID.TID 0000.0001) %MON dynstat_uvel_max             =   1.6666193320047E-01
(PID.TID 0000.0001) %MON dynstat_uvel_min             =  -1.2973968637033E-01
(PID.TID 0000.0001) %MON dynstat_uvel_mean            =  -1.0376163336405E-02
(PID.TID 0000.0001) %MON dynstat_uvel_sd              =   1.7654210233762E-02
(PID.TID 0000.0001) %MON dynstat_uvel_del2            =   3.6171350870602E-03
(PID.TID 0000.0001) %MON dynstat_vvel_max             =   1.5289778616277E-01
(PID.TID 0000.0001) %MON dynstat_vvel_min             =  -1.0897837851715E-01
(PID.TID 0000.0001) %MON dynstat_vvel_mean            =   3.0723489599008E-03
(PID.TID 0000.0001) %MON dynstat_vvel_sd              =   1.3929874181143E-02
(PID.TID 0000.0001) %MON dynstat_vvel_del2            =   3.4510578524777E-03
(PID.TID 0000.0001) %MON dynstat_wvel_max             =   2.6686239685971E-04
(PID.TID 0000.0001) %MON dynstat_wvel_min             =  -3.4578407607230E-04
(PID.TID 0000.0001) %MON dynstat_wvel_mean            =  -8.4554672516896E-22
(PID.TID 0000.0001) %MON dynstat_wvel_sd              =   3.1050444306130E-05
(PID.TID 0000.0001) %MON dynstat_wvel_del2            =   1.0258437191759E-05
(PID.TID 0000.0001) %MON dynstat_theta_max            =   2.9488906821596E+01
(PID.TID 0000.0001) %MON dynstat_theta_min            =  -1.8999323612509E+00
(PID.TID 0000.0001) %MON dynstat_theta_mean           =   3.5961771133603E+00
(PID.TID 0000.0001) %MON dynstat_theta_sd             =   4.3597130076072E+00
(PID.TID 0000.0001) %MON dynstat_theta_del2           =   1.4054614342868E-01
(PID.TID 0000.0001) %MON dynstat_salt_max             =   3.7425203102310E+01
(PID.TID 0000.0001) %MON dynstat_salt_min             =   2.9787687884472E+01
(PID.TID 0000.0001) %MON dynstat_salt_mean            =   3.4716190835822E+01
(PID.TID 0000.0001) %MON dynstat_salt_sd              =   2.9595392223581E-01
(PID.TID 0000.0001) %MON dynstat_salt_del2            =   2.6029900123336E-02
(PID.TID 0000.0001) %MON advcfl_uvel_max              =   2.5035989967351E-02
(PID.TID 0000.0001) %MON advcfl_vvel_max              =   1.4852793832876E-02
(PID.TID 0000.0001) %MON advcfl_wvel_max              =   1.7353377181854E-01
(PID.TID 0000.0001) %MON advcfl_W_hf_max              =   1.4545134131359E-01
(PID.TID 0000.0001) %MON pe_b_mean                    =   1.7989061797422E-04
(PID.TID 0000.0001) %MON ke_max                       =   1.3144055227248E-02
(PID.TID 0000.0001) %MON ke_mean                      =   2.8186206400257E-04
(PID.TID 0000.0001) %MON ke_vol                       =   1.3226782436723E+18
(PID.TID 0000.0001) %MON vort_r_min                   =  -4.1887343414490E-07
(PID.TID 0000.0001) %MON vort_r_max                   =   5.1664026861629E-07
(PID.TID 0000.0001) %MON vort_a_mean                  =  -2.5205769655806E-05
(PID.TID 0000.0001) %MON vort_a_sd                    =   7.3401258310882E-05
(PID.TID 0000.0001) %MON vort_p_mean                  =  -3.1758669888047E-05
(PID.TID 0000.0001) %MON vort_p_sd                    =   1.3125972849789E-04
(PID.TID 0000.0001) %MON surfExpan_theta_mean         =   7.2432662181569E-05
(PID.TID 0000.0001) %MON surfExpan_salt_mean          =   3.2619484181670E-06
(PID.TID 0000.0001) // =======================================================
(PID.TID 0000.0001) // End MONITOR dynamic field statistics
(PID.TID 0000.0001) // =======================================================
(PID.TID 0000.0001) // =======================================================
(PID.TID 0000.0001) // Begin MONITOR ptracer field statistics
(PID.TID 0000.0001) // =======================================================
(PID.TID 0000.0001) %MON trcstat_ptracer01_max        =   3.7425203102310E+01
(PID.TID 0000.0001) %MON trcstat_ptracer01_min        =   2.9787687884472E+01
(PID.TID 0000.0001) %MON trcstat_ptracer01_mean       =   3.4716190835822E+01
(PID.TID 0000.0001) %MON trcstat_ptracer01_sd         =   2.9595392223581E-01
(PID.TID 0000.0001) %MON trcstat_ptracer01_del2       =   2.6029900123336E-02
(PID.TID 0000.0001) // =======================================================
(PID.TID 0000.0001) // End MONITOR ptracers field statistics
(PID.TID 0000.0001) // =======================================================
time,SST,SSS,fu,fv,Q,E-P,i0,i1,a,b =   7.3440E+05  5.6614E-01  3.4563E+01 -3.7742E-02 -6.0072E-02  2.6548E+02  0.0000E+00    12     1  7.8333E-01  2.1667E-01
time,fu0,fu1,fu =   7.3440E+05 -4.5368E-02 -3.5633E-02 -3.7742E-02  7.8333E-01  2.1667E-01
 cg2d: Sum(rhs),rhsMax =  -6.59028387417493E-13  1.00070274428438E+01
(PID.TID 0000.0001)                    cg2d_init_res =    8.19460777951013E-01
(PID.TID 0000.0001)                       cg2d_iters =    25
(PID.TID 0000.0001)                         cg2d_res =    3.14831155954277E-14
(PID.TID 0000.0001) // =======================================================
(PID.TID 0000.0001) // Begin MONITOR dynamic field statistics
(PID.TID 0000.0001) // =======================================================
(PID.TID 0000.0001) %MON time_tsnumber                =                    18
(PID.TID 0000.0001) %MON time_secondsf                =   7.7760000000000E+05
(PID.TID 0000.0001) %MON dynstat_eta_max              =   1.2068572329880E+00
(PID.TID 0000.0001) %MON dynstat_eta_min              =  -1.1697090347118E+00
(PID.TID 0000.0001) %MON dynstat_eta_mean             =   4.9266592199263E-16
(PID.TID 0000.0001) %MON dynstat_eta_sd               =   3.7919902949459E-01
(PID.TID 0000.0001) %MON dynstat_eta_del2             =   2.0337213113447E-02
(PID.TID 0000.0001) %MON dynstat_uvel_max             =   1.7332385155671E-01
(PID.TID 0000.0001) %MON dynstat_uvel_min             =  -1.3304687327859E-01
(PID.TID 0000.0001) %MON dynstat_uvel_mean            =  -1.0170789289054E-02
(PID.TID 0000.0001) %MON dynstat_uvel_sd              =   1.8048708546780E-02
(PID.TID 0000.0001) %MON dynstat_uvel_del2            =   3.6519438269657E-03
(PID.TID 0000.0001) %MON dynstat_vvel_max             =   1.5465695952233E-01
(PID.TID 0000.0001) %MON dynstat_vvel_min             =  -1.1944724960778E-01
(PID.TID 0000.0001) %MON dynstat_vvel_mean            =   2.7472949595171E-03
(PID.TID 0000.0001) %MON dynstat_vvel_sd              =   1.3779678035017E-02
(PID.TID 0000.0001) %MON dynstat_vvel_del2            =   3.4294065171120E-03
(PID.TID 0000.0001) %MON dynstat_wvel_max             =   2.6990943942830E-04
(PID.TID 0000.0001) %MON dynstat_wvel_min             =  -3.3147364373008E-04
(PID.TID 0000.0001) %MON dynstat_wvel_mean            =   7.5159708903907E-22
(PID.TID 0000.0001) %MON dynstat_wvel_sd              =   2.9887402022537E-05
(PID.TID 0000.0001) %MON dynstat_wvel_del2            =   9.7182805174756E-06
(PID.TID 0000.0001) %MON dynstat_theta_max            =   2.9451293361462E+01
(PID.TID 0000.0001) %MON dynstat_theta_min            =  -1.8999316288535E+00
(PID.TID 0000.0001) %MON dynstat_theta_mean           =   3.5954982341370E+00
(PID.TID 0000.0001) %MON dynstat_theta_sd             =   4.3569746256915E+00
(PID.TID 0000.0001) %MON dynstat_theta_del2           =   1.4029708494804E-01
(PID.TID 0000.0001) %MON dynstat_salt_max             =   3.7423719023788E+01
(PID.TID 0000.0001) %MON dynstat_salt_min             =   2.9787400011506E+01
(PID.TID 0000.0001) %MON dynstat_salt_mean            =   3.4716163147726E+01
(PID.TID 0000.0001) %MON dynstat_salt_sd              =   2.9591878487226E-01
(PID.TID 0000.0001) %MON dynstat_salt_del2            =   2.6034509788258E-02
(PID.TID 0000.0001) %MON advcfl_uvel_max              =   2.4237845543299E-02
(PID.TID 0000.0001) %MON advcfl_vvel_max              =   1.5023683417883E-02
(PID.TID 0000.0001) %MON advcfl_wvel_max              =   1.7648284312034E-01
(PID.TID 0000.0001) %MON advcfl_W_hf_max              =   1.4756535315890E-01
(PID.TID 0000.0001) %MON pe_b_mean                    =   1.8399907277439E-04
(PID.TID 0000.0001) %MON ke_max                       =   1.3869360911008E-02
(PID.TID 0000.0001) %MON ke_mean                      =   2.8362613975641E-04
(PID.TID 0000.0001) %MON ke_vol                       =   1.3226782436723E+18
(PID.TID 0000.0001) %MON vort_r_min                   =  -4.5079751248430E-07
(PID.TID 0000.0001) %MON vort_r_max                   =   4.5615607548660E-07
(PID.TID 0000.0001) %MON vort_a_mean                  =  -2.5205769593228E-05
(PID.TID 0000.0001) %MON vort_a_sd                    =   7.3401286184753E-05
(PID.TID 0000.0001) %MON vort_p_mean                  =  -3.1758669809200E-05
(PID.TID 0000.0001) %MON vort_p_sd                    =   1.3125983471113E-04
(PID.TID 0000.0001) %MON surfExpan_theta_mean         =   5.8374995519005E-05
(PID.TID 0000.0001) %MON surfExpan_salt_mean          =   1.9888761469319E-06
(PID.TID 0000.0001) // =======================================================
(PID.TID 0000.0001) // End MONITOR dynamic field statistics
(PID.TID 0000.0001) // =======================================================
(PID.TID 0000.0001) // =======================================================
(PID.TID 0000.0001) // Begin MONITOR ptracer field statistics
(PID.TID 0000.0001) // =======================================================
(PID.TID 0000.0001) %MON trcstat_ptracer01_max        =   3.7423719023788E+01
(PID.TID 0000.0001) %MON trcstat_ptracer01_min        =   2.9787400011506E+01
(PID.TID 0000.0001) %MON trcstat_ptracer01_mean       =   3.4716163147726E+01
(PID.TID 0000.0001) %MON trcstat_ptracer01_sd         =   2.9591878487226E-01
(PID.TID 0000.0001) %MON trcstat_ptracer01_del2       =   2.6034509788258E-02
(PID.TID 0000.0001) // =======================================================
(PID.TID 0000.0001) // End MONITOR ptracers field statistics
(PID.TID 0000.0001) // =======================================================
time,SST,SSS,fu,fv,Q,E-P,i0,i1,a,b =   7.7760E+05  5.9632E-01  3.4574E+01 -3.7580E-02 -5.9855E-02  2.6550E+02  0.0000E+00    12     1  8.0000E-01  2.0000E-01
time,fu0,fu1,fu =   7.7760E+05 -4.5368E-02 -3.5633E-02 -3.7580E-02  8.0000E-01  2.0000E-01
 cg2d: Sum(rhs),rhsMax =  -8.45545855554519E-13  9.70453620375642E+00
(PID.TID 0000.0001)                    cg2d_init_res =    8.31619542930724E-01
(PID.TID 0000.0001)                       cg2d_iters =    25
(PID.TID 0000.0001)                         cg2d_res =    3.02222528364303E-14
(PID.TID 0000.0001) // =======================================================
(PID.TID 0000.0001) // Begin MONITOR dynamic field statistics
(PID.TID 0000.0001) // =======================================================
(PID.TID 0000.0001) %MON time_tsnumber                =                    19
(PID.TID 0000.0001) %MON time_secondsf                =   8.2080000000000E+05
(PID.TID 0000.0001) %MON dynstat_eta_max              =   1.1720381947387E+00
(PID.TID 0000.0001) %MON dynstat_eta_min              =  -1.1424939597998E+00
(PID.TID 0000.0001) %MON dynstat_eta_mean             =   5.3070262920530E-16
(PID.TID 0000.0001) %MON dynstat_eta_sd               =   3.8167609152040E-01
(PID.TID 0000.0001) %MON dynstat_eta_del2             =   2.0066467349042E-02
(PID.TID 0000.0001) %MON dynstat_uvel_max             =   1.7867381295906E-01
(PID.TID 0000.0001) %MON dynstat_uvel_min             =  -1.3883446445382E-01
(PID.TID 0000.0001) %MON dynstat_uvel_mean            =  -9.8494693053575E-03
(PID.TID 0000.0001) %MON dynstat_uvel_sd              =   1.8346111414405E-02
(PID.TID 0000.0001) %MON dynstat_uvel_del2            =   3.6770883929674E-03
(PID.TID 0000.0001) %MON dynstat_vvel_max             =   1.5151211820596E-01
(PID.TID 0000.0001) %MON dynstat_vvel_min             =  -1.3310072177890E-01
(PID.TID 0000.0001) %MON dynstat_vvel_mean            =   2.4703925660936E-03
(PID.TID 0000.0001) %MON dynstat_vvel_sd              =   1.3689805339102E-02
(PID.TID 0000.0001) %MON dynstat_vvel_del2            =   3.4086002004592E-03
(PID.TID 0000.0001) %MON dynstat_wvel_max             =   2.7083182382827E-04
(PID.TID 0000.0001) %MON dynstat_wvel_min             =  -3.1415667905852E-04
(PID.TID 0000.0001) %MON dynstat_wvel_mean            =   1.8789927225977E-22
(PID.TID 0000.0001) %MON dynstat_wvel_sd              =   2.8823952631713E-05
(PID.TID 0000.0001) %MON dynstat_wvel_del2            =   9.2658493513452E-06
(PID.TID 0000.0001) %MON dynstat_theta_max            =   2.9442189970864E+01
(PID.TID 0000.0001) %MON dynstat_theta_min            =  -1.8999310042346E+00
(PID.TID 0000.0001) %MON dynstat_theta_mean           =   3.5949754080516E+00
(PID.TID 0000.0001) %MON dynstat_theta_sd             =   4.3545887277296E+00
(PID.TID 0000.0001) %MON dynstat_theta_del2           =   1.4007722568389E-01
(PID.TID 0000.0001) %MON dynstat_salt_max             =   3.7422302785038E+01
(PID.TID 0000.0001) %MON dynstat_salt_min             =   2.9787069188126E+01
(PID.TID 0000.0001) %MON dynstat_salt_mean            =   3.4716149288502E+01
(PID.TID 0000.0001) %MON dynstat_salt_sd              =   2.9588614580263E-01
(PID.TID 0000.0001) %MON dynstat_salt_del2            =   2.6042547594874E-02
(PID.TID 0000.0001) %MON advcfl_uvel_max              =   2.4985991496486E-02
(PID.TID 0000.0001) %MON advcfl_vvel_max              =   1.4718187302594E-02
(PID.TID 0000.0001) %MON advcfl_wvel_max              =   1.7355404554132E-01
(PID.TID 0000.0001) %MON advcfl_W_hf_max              =   1.5173770158732E-01
(PID.TID 0000.0001) %MON pe_b_mean                    =   1.8641081821126E-04
(PID.TID 0000.0001) %MON ke_max                       =   1.4505217786257E-02
(PID.TID 0000.0001) %MON ke_mean                      =   2.8386408146965E-04
(PID.TID 0000.0001) %MON ke_vol                       =   1.3226782436723E+18
(PID.TID 0000.0001) %MON vort_r_min                   =  -4.7102461183117E-07
(PID.TID 0000.0001) %MON vort_r_max                   =   4.0336891307984E-07
(PID.TID 0000.0001) %MON vort_a_mean                  =  -2.5205769531694E-05
(PID.TID 0000.0001) %MON vort_a_sd                    =   7.3401336457545E-05
(PID.TID 0000.0001) %MON vort_p_mean                  =  -3.1758669731668E-05
(PID.TID 0000.0001) %MON vort_p_sd                    =   1.3126002695607E-04
(PID.TID 0000.0001) %MON surfExpan_theta_mean         =   4.5011316321160E-05
(PID.TID 0000.0001) %MON surfExpan_salt_mean          =   8.1093791289897E-07
(PID.TID 0000.0001) // =======================================================
(PID.TID 0000.0001) // End MONITOR dynamic field statistics
(PID.TID 0000.0001) // =======================================================
(PID.TID 0000.0001) // =======================================================
(PID.TID 0000.0001) // Begin MONITOR ptracer field statistics
(PID.TID 0000.0001) // =======================================================
(PID.TID 0000.0001) %MON trcstat_ptracer01_max        =   3.7422302785038E+01
(PID.TID 0000.0001) %MON trcstat_ptracer01_min        =   2.9787069188126E+01
(PID.TID 0000.0001) %MON trcstat_ptracer01_mean       =   3.4716149288502E+01
(PID.TID 0000.0001) %MON trcstat_ptracer01_sd         =   2.9588614580263E-01
(PID.TID 0000.0001) %MON trcstat_ptracer01_del2       =   2.6042547594874E-02
(PID.TID 0000.0001) // =======================================================
(PID.TID 0000.0001) // End MONITOR ptracers field statistics
(PID.TID 0000.0001) // =======================================================
time,SST,SSS,fu,fv,Q,E-P,i0,i1,a,b =   8.2080E+05  6.2649E-01  3.4586E+01 -3.7418E-02 -5.9638E-02  2.6552E+02  0.0000E+00    12     1  8.1667E-01  1.8333E-01
time,fu0,fu1,fu =   8.2080E+05 -4.5368E-02 -3.5633E-02 -3.7418E-02  8.1667E-01  1.8333E-01
 cg2d: Sum(rhs),rhsMax =  -7.78044295657310E-13  9.47668505019229E+00
(PID.TID 0000.0001)                    cg2d_init_res =    8.36969270445090E-01
(PID.TID 0000.0001)                       cg2d_iters =    25
(PID.TID 0000.0001)                         cg2d_res =    3.44314368165774E-14
(PID.TID 0000.0001) // =======================================================
(PID.TID 0000.0001) // Begin MONITOR dynamic field statistics
(PID.TID 0000.0001) // =======================================================
(PID.TID 0000.0001) %MON time_tsnumber                =                    20
(PID.TID 0000.0001) %MON time_secondsf                =   8.6400000000000E+05
(PID.TID 0000.0001) %MON dynstat_eta_max              =   1.1373026525084E+00
(PID.TID 0000.0001) %MON dynstat_eta_min              =  -1.0844856642432E+00
(PID.TID 0000.0001) %MON dynstat_eta_mean             =   3.8761215921479E-16
(PID.TID 0000.0001) %MON dynstat_eta_sd               =   3.8264364909700E-01
(PID.TID 0000.0001) %MON dynstat_eta_del2             =   1.9985026928165E-02
(PID.TID 0000.0001) %MON dynstat_uvel_max             =   1.8261917183407E-01
(PID.TID 0000.0001) %MON dynstat_uvel_min             =  -1.4414704110456E-01
(PID.TID 0000.0001) %MON dynstat_uvel_mean            =  -9.4288897525505E-03
(PID.TID 0000.0001) %MON dynstat_uvel_sd              =   1.8555436065665E-02
(PID.TID 0000.0001) %MON dynstat_uvel_del2            =   3.6925805824284E-03
(PID.TID 0000.0001) %MON dynstat_vvel_max             =   1.4331403833356E-01
(PID.TID 0000.0001) %MON dynstat_vvel_min             =  -1.4410939814284E-01
(PID.TID 0000.0001) %MON dynstat_vvel_mean            =   2.2524495793684E-03
(PID.TID 0000.0001) %MON dynstat_vvel_sd              =   1.3651853470895E-02
(PID.TID 0000.0001) %MON dynstat_vvel_del2            =   3.3928270893127E-03
(PID.TID 0000.0001) %MON dynstat_wvel_max             =   2.6988303286312E-04
(PID.TID 0000.0001) %MON dynstat_wvel_min             =  -2.9427264292897E-04
(PID.TID 0000.0001) %MON dynstat_wvel_mean            =   2.5366401755069E-21
(PID.TID 0000.0001) %MON dynstat_wvel_sd              =   2.7903707717458E-05
(PID.TID 0000.0001) %MON dynstat_wvel_del2            =   8.9355307120539E-06
(PID.TID 0000.0001) %MON dynstat_theta_max            =   2.9430073689724E+01
(PID.TID 0000.0001) %MON dynstat_theta_min            =  -1.8999519191215E+00
(PID.TID 0000.0001) %MON dynstat_theta_mean           =   3.5945987176781E+00
(PID.TID 0000.0001) %MON dynstat_theta_sd             =   4.3525715291210E+00
(PID.TID 0000.0001) %MON dynstat_theta_del2           =   1.3988661238345E-01
(PID.TID 0000.0001) %MON dynstat_salt_max             =   3.7420944186327E+01
(PID.TID 0000.0001) %MON dynstat_salt_min             =   2.9786790936305E+01
(PID.TID 0000.0001) %MON dynstat_salt_mean            =   3.4716148034546E+01
(PID.TID 0000.0001) %MON dynstat_salt_sd              =   2.9585660847740E-01
(PID.TID 0000.0001) %MON dynstat_salt_del2            =   2.6052500782895E-02
(PID.TID 0000.0001) %MON advcfl_uvel_max              =   2.5537715902369E-02
(PID.TID 0000.0001) %MON advcfl_vvel_max              =   1.3999072411139E-02
(PID.TID 0000.0001) %MON advcfl_wvel_max              =   1.6440737622676E-01
(PID.TID 0000.0001) %MON advcfl_W_hf_max              =   1.4609531052615E-01
(PID.TID 0000.0001) %MON pe_b_mean                    =   1.8735712748208E-04
(PID.TID 0000.0001) %MON ke_max                       =   1.5268288808499E-02
(PID.TID 0000.0001) %MON ke_mean                      =   2.8276181305127E-04
(PID.TID 0000.0001) %MON ke_vol                       =   1.3226782436723E+18
(PID.TID 0000.0001) %MON vort_r_min                   =  -4.7830215342973E-07
(PID.TID 0000.0001) %MON vort_r_max                   =   4.1110896968113E-07
(PID.TID 0000.0001) %MON vort_a_mean                  =  -2.5205769477365E-05
(PID.TID 0000.0001) %MON vort_a_sd                    =   7.3401406431241E-05
(PID.TID 0000.0001) %MON vort_p_mean                  =  -3.1758669663216E-05
(PID.TID 0000.0001) %MON vort_p_sd                    =   1.3126028828154E-04
(PID.TID 0000.0001) %MON surfExpan_theta_mean         =   3.2615748252922E-05
(PID.TID 0000.0001) %MON surfExpan_salt_mean          =  -2.5195287350539E-07
(PID.TID 0000.0001) // =======================================================
(PID.TID 0000.0001) // End MONITOR dynamic field statistics
(PID.TID 0000.0001) // =======================================================
(PID.TID 0000.0001) // =======================================================
(PID.TID 0000.0001) // Begin MONITOR ptracer field statistics
(PID.TID 0000.0001) // =======================================================
(PID.TID 0000.0001) %MON trcstat_ptracer01_max        =   3.7420944186327E+01
(PID.TID 0000.0001) %MON trcstat_ptracer01_min        =   2.9786790936305E+01
(PID.TID 0000.0001) %MON trcstat_ptracer01_mean       =   3.4716148034546E+01
(PID.TID 0000.0001) %MON trcstat_ptracer01_sd         =   2.9585660847740E-01
(PID.TID 0000.0001) %MON trcstat_ptracer01_del2       =   2.6052500782895E-02
(PID.TID 0000.0001) // =======================================================
(PID.TID 0000.0001) // End MONITOR ptracers field statistics
(PID.TID 0000.0001) // =======================================================
 EH3:  myIter =  20
(PID.TID 0000.0001) %CHECKPOINT        20 ckptA
(PID.TID 0000.0001)   Seconds in section "ALL                    [THE_MODEL_MAIN]":
(PID.TID 0000.0001)           User time:  25.2700005
(PID.TID 0000.0001)         System time:  0.620000005
(PID.TID 0000.0001)     Wall clock time:  26.133651
(PID.TID 0000.0001)          No. starts: 1
(PID.TID 0000.0001)           No. stops: 1
(PID.TID 0000.0001)   Seconds in section "INITIALISE_FIXED       [THE_MODEL_MAIN]":
(PID.TID 0000.0001)           User time:  1.01999998
(PID.TID 0000.0001)         System time:  0.140000001
(PID.TID 0000.0001)     Wall clock time:  1.17309093
(PID.TID 0000.0001)          No. starts: 1
(PID.TID 0000.0001)           No. stops: 1
(PID.TID 0000.0001)   Seconds in section "THE_MAIN_LOOP          [THE_MODEL_MAIN]":
(PID.TID 0000.0001)           User time:  24.23
(PID.TID 0000.0001)         System time:  0.460000023
(PID.TID 0000.0001)     Wall clock time:  24.9272621
(PID.TID 0000.0001)          No. starts: 1
(PID.TID 0000.0001)           No. stops: 1
(PID.TID 0000.0001)   Seconds in section "INITIALISE_VARIA    [THE_MAIN_LOOP]":
(PID.TID 0000.0001)           User time:  0.24000001
(PID.TID 0000.0001)         System time:  0.0100000054
(PID.TID 0000.0001)     Wall clock time:  0.321898937
(PID.TID 0000.0001)          No. starts: 1
(PID.TID 0000.0001)           No. stops: 1
(PID.TID 0000.0001)   Seconds in section "MONITOR             [THE_MAIN_LOOP]":
(PID.TID 0000.0001)           User time:  0.129999995
(PID.TID 0000.0001)         System time:  0.
(PID.TID 0000.0001)     Wall clock time:  0.131803989
(PID.TID 0000.0001)          No. starts: 1
(PID.TID 0000.0001)           No. stops: 1
(PID.TID 0000.0001)   Seconds in section "DO_THE_MODEL_IO     [THE_MAIN_LOOP]":
(PID.TID 0000.0001)           User time:  0.129999995
(PID.TID 0000.0001)         System time:  0.00999999046
(PID.TID 0000.0001)     Wall clock time:  0.137050152
(PID.TID 0000.0001)          No. starts: 1
(PID.TID 0000.0001)           No. stops: 1
(PID.TID 0000.0001)   Seconds in section "MAIN LOOP           [THE_MAIN_LOOP]":
(PID.TID 0000.0001)           User time:  23.73
(PID.TID 0000.0001)         System time:  0.440000027
(PID.TID 0000.0001)     Wall clock time:  24.33635
(PID.TID 0000.0001)          No. starts: 1
(PID.TID 0000.0001)           No. stops: 1
(PID.TID 0000.0001)   Seconds in section "FORWARD_STEP        [THE_MAIN_LOOP]":
(PID.TID 0000.0001)           User time:  23.73
(PID.TID 0000.0001)         System time:  0.440000027
(PID.TID 0000.0001)     Wall clock time:  24.3357403
(PID.TID 0000.0001)          No. starts: 20
(PID.TID 0000.0001)           No. stops: 20
(PID.TID 0000.0001)   Seconds in section "EXTERNAL_FIELDS_LOAD[FORWARD_STEP]":
(PID.TID 0000.0001)           User time:  0.0500001907
(PID.TID 0000.0001)         System time:  0.
(PID.TID 0000.0001)     Wall clock time:  0.0402741432
(PID.TID 0000.0001)          No. starts: 20
(PID.TID 0000.0001)           No. stops: 20
(PID.TID 0000.0001)   Seconds in section "DO_ATMOSPHERIC_PHYS [FORWARD_STEP]":
(PID.TID 0000.0001)           User time:  0.
(PID.TID 0000.0001)         System time:  0.
(PID.TID 0000.0001)     Wall clock time:  0.000576734543
(PID.TID 0000.0001)          No. starts: 20
(PID.TID 0000.0001)           No. stops: 20
(PID.TID 0000.0001)   Seconds in section "DO_OCEANIC_PHYS     [FORWARD_STEP]":
(PID.TID 0000.0001)           User time:  2.01999962
(PID.TID 0000.0001)         System time:  0.
(PID.TID 0000.0001)     Wall clock time:  2.04597425
(PID.TID 0000.0001)          No. starts: 20
(PID.TID 0000.0001)           No. stops: 20
(PID.TID 0000.0001)   Seconds in section "THERMODYNAMICS      [FORWARD_STEP]":
(PID.TID 0000.0001)           User time:  7.28999984
(PID.TID 0000.0001)         System time:  0.0100000054
(PID.TID 0000.0001)     Wall clock time:  7.2906599
(PID.TID 0000.0001)          No. starts: 20
(PID.TID 0000.0001)           No. stops: 20
(PID.TID 0000.0001)   Seconds in section "DYNAMICS            [FORWARD_STEP]":
(PID.TID 0000.0001)           User time:  6.13000178
(PID.TID 0000.0001)         System time:  0.0400000066
(PID.TID 0000.0001)     Wall clock time:  6.18322635
(PID.TID 0000.0001)          No. starts: 20
(PID.TID 0000.0001)           No. stops: 20
(PID.TID 0000.0001)   Seconds in section "SOLVE_FOR_PRESSURE  [FORWARD_STEP]":
(PID.TID 0000.0001)           User time:  1.2699995
(PID.TID 0000.0001)         System time:  0.
(PID.TID 0000.0001)     Wall clock time:  1.25889683
(PID.TID 0000.0001)          No. starts: 20
(PID.TID 0000.0001)           No. stops: 20
(PID.TID 0000.0001)   Seconds in section "UV_CORRECTION_STEP  [FORWARD_STEP]":
(PID.TID 0000.0001)           User time:  0.380000353
(PID.TID 0000.0001)         System time:  0.
(PID.TID 0000.0001)     Wall clock time:  0.368757963
(PID.TID 0000.0001)          No. starts: 20
(PID.TID 0000.0001)           No. stops: 20
(PID.TID 0000.0001)   Seconds in section "TS_CORRECTION_STEP  [FORWARD_STEP]":
(PID.TID 0000.0001)           User time:  0.13999939
(PID.TID 0000.0001)         System time:  0.
(PID.TID 0000.0001)     Wall clock time:  0.167901278
(PID.TID 0000.0001)          No. starts: 20
(PID.TID 0000.0001)           No. stops: 20
(PID.TID 0000.0001)   Seconds in section "BLOCKING_EXCHANGES  [FORWARD_STEP]":
(PID.TID 0000.0001)           User time:  0.0999991894
(PID.TID 0000.0001)         System time:  0.
(PID.TID 0000.0001)     Wall clock time:  0.10830307
(PID.TID 0000.0001)          No. starts: 20
(PID.TID 0000.0001)           No. stops: 20
(PID.TID 0000.0001)   Seconds in section "DO_STATEVARS_DIAGS  [FORWARD_STEP]":
(PID.TID 0000.0001)           User time:  1.42000127
(PID.TID 0000.0001)         System time:  0.
(PID.TID 0000.0001)     Wall clock time:  1.41498661
(PID.TID 0000.0001)          No. starts: 20
(PID.TID 0000.0001)           No. stops: 20
(PID.TID 0000.0001)   Seconds in section "MONITOR             [FORWARD_STEP]":
(PID.TID 0000.0001)           User time:  2.66999817
(PID.TID 0000.0001)         System time:  0.
(PID.TID 0000.0001)     Wall clock time:  2.6602695
(PID.TID 0000.0001)          No. starts: 20
(PID.TID 0000.0001)           No. stops: 20
(PID.TID 0000.0001)   Seconds in section "DO_THE_MODEL_IO     [FORWARD_STEP]":
(PID.TID 0000.0001)           User time:  2.24000025
(PID.TID 0000.0001)         System time:  0.390000015
(PID.TID 0000.0001)     Wall clock time:  2.78688931
(PID.TID 0000.0001)          No. starts: 20
(PID.TID 0000.0001)           No. stops: 20
(PID.TID 0000.0001)   Seconds in section "WRITE_CHECKPOINT    [FORWARD_STEP]":
(PID.TID 0000.0001)           User time:  0.
(PID.TID 0000.0001)         System time:  0.
(PID.TID 0000.0001)     Wall clock time:  0.000602722168
(PID.TID 0000.0001)          No. starts: 20
(PID.TID 0000.0001)           No. stops: 20
(PID.TID 0000.0001)   Seconds in section "WRITE_CHECKPOINT       [THE_MODEL_MAIN]":
(PID.TID 0000.0001)           User time:  0.0200004578
(PID.TID 0000.0001)         System time:  0.0199999809
(PID.TID 0000.0001)     Wall clock time:  0.0331609249
(PID.TID 0000.0001)          No. starts: 1
(PID.TID 0000.0001)           No. stops: 1
(PID.TID 0000.0001) // ======================================================
(PID.TID 0000.0001) // Tile <-> Tile communication statistics
(PID.TID 0000.0001) // ======================================================
(PID.TID 0000.0001) // o Tile number: 000001
(PID.TID 0000.0001) //         No. X exchanges =              0
(PID.TID 0000.0001) //            Max. X spins =              0
(PID.TID 0000.0001) //            Min. X spins =     1000000000
(PID.TID 0000.0001) //          Total. X spins =              0
(PID.TID 0000.0001) //            Avg. X spins =       0.00E+00
(PID.TID 0000.0001) //         No. Y exchanges =              0
(PID.TID 0000.0001) //            Max. Y spins =              0
(PID.TID 0000.0001) //            Min. Y spins =     1000000000
(PID.TID 0000.0001) //          Total. Y spins =              0
(PID.TID 0000.0001) //            Avg. Y spins =       0.00E+00
(PID.TID 0000.0001) // o Tile number: 000002
(PID.TID 0000.0001) //         No. X exchanges =              0
(PID.TID 0000.0001) //            Max. X spins =              0
(PID.TID 0000.0001) //            Min. X spins =     1000000000
(PID.TID 0000.0001) //          Total. X spins =              0
(PID.TID 0000.0001) //            Avg. X spins =       0.00E+00
(PID.TID 0000.0001) //         No. Y exchanges =              0
(PID.TID 0000.0001) //            Max. Y spins =              0
(PID.TID 0000.0001) //            Min. Y spins =     1000000000
(PID.TID 0000.0001) //          Total. Y spins =              0
(PID.TID 0000.0001) //            Avg. Y spins =       0.00E+00
(PID.TID 0000.0001) // o Thread number: 000001
(PID.TID 0000.0001) //            No. barriers =          13592
(PID.TID 0000.0001) //      Max. barrier spins =              1
(PID.TID 0000.0001) //      Min. barrier spins =              1
(PID.TID 0000.0001) //     Total barrier spins =          13592
(PID.TID 0000.0001) //      Avg. barrier spins =       1.00E+00
