(PID.TID 0000.0001) 
(PID.TID 0000.0001) // ======================================================
(PID.TID 0000.0001) //                      MITgcm UV
(PID.TID 0000.0001) //                      =========
(PID.TID 0000.0001) // ======================================================
(PID.TID 0000.0001) // execution environment starting up...
(PID.TID 0000.0001) 
(PID.TID 0000.0001) // MITgcmUV version:  checkpoint62v
(PID.TID 0000.0001) // Build user:        jmc
(PID.TID 0000.0001) // Build host:        baudelaire
(PID.TID 0000.0001) // Build date:        Mon Apr 25 15:47:45 EDT 2011
(PID.TID 0000.0001) 
(PID.TID 0000.0001) // =======================================================
(PID.TID 0000.0001) // Execution Environment parameter file "eedata"
(PID.TID 0000.0001) // =======================================================
(PID.TID 0000.0001) ># Example "eedata" file
(PID.TID 0000.0001) ># Lines beginning "#" are comments
(PID.TID 0000.0001) ># nTx - No. threads per process in X
(PID.TID 0000.0001) ># nTy - No. threads per process in Y
(PID.TID 0000.0001) > &EEPARMS
(PID.TID 0000.0001) > nTx=1,
(PID.TID 0000.0001) > nTy=1,
(PID.TID 0000.0001) > useSETRLSTK=.TRUE.,
(PID.TID 0000.0001) > /
(PID.TID 0000.0001) ># Note: Some systems use & as the
(PID.TID 0000.0001) ># namelist terminator. Other systems
(PID.TID 0000.0001) ># use a / character (as shown here).
(PID.TID 0000.0001) 
(PID.TID 0000.0001) // =======================================================
(PID.TID 0000.0001) // Computational Grid Specification ( see files "SIZE.h" )
(PID.TID 0000.0001) //                                  ( and "eedata"       )
(PID.TID 0000.0001) // =======================================================
(PID.TID 0000.0001)      nPx =    1 ; /* No. processes in X */
(PID.TID 0000.0001)      nPy =    1 ; /* No. processes in Y */
(PID.TID 0000.0001)      nSx =    2 ; /* No. tiles in X per process */
(PID.TID 0000.0001)      nSy =    2 ; /* No. tiles in Y per process */
(PID.TID 0000.0001)      sNx =   45 ; /* Tile size in X */
(PID.TID 0000.0001)      sNy =   20 ; /* Tile size in Y */
(PID.TID 0000.0001)      OLx =    3 ; /* Tile overlap distance in X */
(PID.TID 0000.0001)      OLy =    3 ; /* Tile overlap distance in Y */
(PID.TID 0000.0001)      nTx =    1 ; /* No. threads in X per process */
(PID.TID 0000.0001)      nTy =    1 ; /* No. threads in Y per process */
(PID.TID 0000.0001)       Nr =   15 ; /* No. levels in the vertical   */
(PID.TID 0000.0001)       Nx =   90 ; /* Total domain size in X ( = nPx*nSx*sNx ) */
(PID.TID 0000.0001)       Ny =   40 ; /* Total domain size in Y ( = nPy*nSy*sNy ) */
(PID.TID 0000.0001)   nTiles =    4 ; /* Total no. tiles per process ( = nSx*nSy ) */
(PID.TID 0000.0001)   nProcs =    1 ; /* Total no. processes ( = nPx*nPy ) */
(PID.TID 0000.0001) nThreads =    1 ; /* Total no. threads per process ( = nTx*nTy ) */
(PID.TID 0000.0001) usingMPI =    F ; /* Flag used to control whether MPI is in use */
(PID.TID 0000.0001)                   /*  note: To execute a program with MPI calls */
(PID.TID 0000.0001)                   /*  it must be launched appropriately e.g     */
(PID.TID 0000.0001)                   /*  "mpirun -np 64 ......"                    */
(PID.TID 0000.0001) useCoupler=    F ;/* Flag used to control communications with   */
(PID.TID 0000.0001)                   /*  other model components, through a coupler */
(PID.TID 0000.0001) printMapIncludesZeros=    F ; /* print zeros in Std.Output maps */
(PID.TID 0000.0001) maxLengthPrt1D=   65 /* maxLength of 1D array printed to StdOut */
(PID.TID 0000.0001) 
(PID.TID 0000.0001) // ======================================================
(PID.TID 0000.0001) // Mapping of tiles to threads
(PID.TID 0000.0001) // ======================================================
(PID.TID 0000.0001) // -o- Thread   1, tiles (   1:   2,   1:   2)
(PID.TID 0000.0001) 
(PID.TID 0000.0001) // ======================================================
(PID.TID 0000.0001) // Tile <-> Tile connectvity table
(PID.TID 0000.0001) // ======================================================
(PID.TID 0000.0001) // Tile number: 000001 (process no. = 000001)
(PID.TID 0000.0001) //        WEST: Tile = 000002, Process = 000001, Comm = put
(PID.TID 0000.0001) //                bi = 000002, bj = 000001
(PID.TID 0000.0001) //        EAST: Tile = 000002, Process = 000001, Comm = put
(PID.TID 0000.0001) //                bi = 000002, bj = 000001
(PID.TID 0000.0001) //       SOUTH: Tile = 000003, Process = 000001, Comm = put
(PID.TID 0000.0001) //                bi = 000001, bj = 000002
(PID.TID 0000.0001) //       NORTH: Tile = 000003, Process = 000001, Comm = put
(PID.TID 0000.0001) //                bi = 000001, bj = 000002
(PID.TID 0000.0001) // Tile number: 000002 (process no. = 000001)
(PID.TID 0000.0001) //        WEST: Tile = 000001, Process = 000001, Comm = put
(PID.TID 0000.0001) //                bi = 000001, bj = 000001
(PID.TID 0000.0001) //        EAST: Tile = 000001, Process = 000001, Comm = put
(PID.TID 0000.0001) //                bi = 000001, bj = 000001
(PID.TID 0000.0001) //       SOUTH: Tile = 000004, Process = 000001, Comm = put
(PID.TID 0000.0001) //                bi = 000002, bj = 000002
(PID.TID 0000.0001) //       NORTH: Tile = 000004, Process = 000001, Comm = put
(PID.TID 0000.0001) //                bi = 000002, bj = 000002
(PID.TID 0000.0001) // Tile number: 000003 (process no. = 000001)
(PID.TID 0000.0001) //        WEST: Tile = 000004, Process = 000001, Comm = put
(PID.TID 0000.0001) //                bi = 000002, bj = 000002
(PID.TID 0000.0001) //        EAST: Tile = 000004, Process = 000001, Comm = put
(PID.TID 0000.0001) //                bi = 000002, bj = 000002
(PID.TID 0000.0001) //       SOUTH: Tile = 000001, Process = 000001, Comm = put
(PID.TID 0000.0001) //                bi = 000001, bj = 000001
(PID.TID 0000.0001) //       NORTH: Tile = 000001, Process = 000001, Comm = put
(PID.TID 0000.0001) //                bi = 000001, bj = 000001
(PID.TID 0000.0001) // Tile number: 000004 (process no. = 000001)
(PID.TID 0000.0001) //        WEST: Tile = 000003, Process = 000001, Comm = put
(PID.TID 0000.0001) //                bi = 000001, bj = 000002
(PID.TID 0000.0001) //        EAST: Tile = 000003, Process = 000001, Comm = put
(PID.TID 0000.0001) //                bi = 000001, bj = 000002
(PID.TID 0000.0001) //       SOUTH: Tile = 000002, Process = 000001, Comm = put
(PID.TID 0000.0001) //                bi = 000002, bj = 000001
(PID.TID 0000.0001) //       NORTH: Tile = 000002, Process = 000001, Comm = put
(PID.TID 0000.0001) //                bi = 000002, bj = 000001
(PID.TID 0000.0001) 
(PID.TID 0000.0001) DEBUG_MSG: ENTERED S/R THE_MODEL_MAIN
(PID.TID 0000.0001) DEBUG_MSG: CALLING S/R INITIALISE_FIXED
(PID.TID 0000.0001)  INI_PARMS: opening model parameter file "data"
(PID.TID 0000.0001)  OPEN_COPY_DATA_FILE: opening file data
(PID.TID 0000.0001) // =======================================================
(PID.TID 0000.0001) // Parameter file "data"
(PID.TID 0000.0001) // =======================================================
(PID.TID 0000.0001) ># ====================
(PID.TID 0000.0001) ># | Model parameters |
(PID.TID 0000.0001) ># ====================
(PID.TID 0000.0001) >#
(PID.TID 0000.0001) ># Continuous equation parameters
(PID.TID 0000.0001) > &PARM01
(PID.TID 0000.0001) > tRef = 15*20.,
(PID.TID 0000.0001) > sRef = 15*35.,
(PID.TID 0000.0001) > viscAr=1.E-3,
(PID.TID 0000.0001) > viscAh=5.E5,
(PID.TID 0000.0001) > viscA4=3.E14,
(PID.TID 0000.0001) > diffKhT=0.,
(PID.TID 0000.0001) > diffKrT=3.E-5,
(PID.TID 0000.0001) > diffKhS=0.,
(PID.TID 0000.0001) > diffKrS=3.E-5,
(PID.TID 0000.0001) > rhoConst=1035.,
(PID.TID 0000.0001) > rhoConstFresh=1000.,
(PID.TID 0000.0001) > gravity=9.81,
(PID.TID 0000.0001) > eosType='JMD95P',
(PID.TID 0000.0001) > ivdc_kappa=10.,
(PID.TID 0000.0001) > implicitDiffusion=.TRUE.,
(PID.TID 0000.0001) > allowFreezing=.TRUE.,
(PID.TID 0000.0001) > exactConserv=.TRUE.,
(PID.TID 0000.0001) > select_rStar=2,
(PID.TID 0000.0001) > nonlinFreeSurf=4,
(PID.TID 0000.0001) > hFacInf=0.2,
(PID.TID 0000.0001) > hFacSup=2.0,
(PID.TID 0000.0001) > useRealFreshWaterFlux=.TRUE.,
(PID.TID 0000.0001) > useCDscheme=.TRUE.,
(PID.TID 0000.0001) > quasiHydrostatic=.TRUE.,
(PID.TID 0000.0001) > useNHMTerms=.TRUE.,
(PID.TID 0000.0001) ># turn on looped cells
(PID.TID 0000.0001) > hFacMin=.05,
(PID.TID 0000.0001) > hFacMindr=50.,
(PID.TID 0000.0001) ># set precision of data files
(PID.TID 0000.0001) > readBinaryPrec=32,
(PID.TID 0000.0001) >#writeBinaryPrec=64,
(PID.TID 0000.0001) >#debugMode=.TRUE.,
(PID.TID 0000.0001) > /
(PID.TID 0000.0001) >
(PID.TID 0000.0001) ># Elliptic solver parameters
(PID.TID 0000.0001) > &PARM02
(PID.TID 0000.0001) > cg2dMaxIters=500,
(PID.TID 0000.0001) > cg2dTargetResidual=1.E-13,
(PID.TID 0000.0001) > /
(PID.TID 0000.0001) >
(PID.TID 0000.0001) ># Time stepping parameters
(PID.TID 0000.0001) > &PARM03
(PID.TID 0000.0001) > nIter0=36000,
(PID.TID 0000.0001) > nTimeSteps=10,
(PID.TID 0000.0001) ># 100 years of integration will yield a reasonable flow field
(PID.TID 0000.0001) ># startTime =          0.,
(PID.TID 0000.0001) ># endTime   = 3110400000.,
(PID.TID 0000.0001) > deltaTmom = 1800.,
(PID.TID 0000.0001) > tauCD =     321428.,
(PID.TID 0000.0001) > deltaTtracer= 86400.,
(PID.TID 0000.0001) > deltaTClock = 86400.,
(PID.TID 0000.0001) > deltaTfreesurf= 86400.,
(PID.TID 0000.0001) > abEps = 0.1,
(PID.TID 0000.0001) > pChkPtFreq= 311040000.,
(PID.TID 0000.0001) > dumpFreq=   311040000.,
(PID.TID 0000.0001) > dumpFreq=   864000.,
(PID.TID 0000.0001) >#monitorFreq=31104000.,
(PID.TID 0000.0001) > monitorFreq=1.,
(PID.TID 0000.0001) ># 2 months restoring timescale for temperature
(PID.TID 0000.0001) > tauThetaClimRelax=  5184000.,
(PID.TID 0000.0001) ># 6 months restoring timescale for salinity
(PID.TID 0000.0001) > tauSaltClimRelax = 15552000.,
(PID.TID 0000.0001) > periodicExternalForcing=.TRUE.,
(PID.TID 0000.0001) > externForcingPeriod=2592000.,
(PID.TID 0000.0001) > externForcingCycle=31104000.,
(PID.TID 0000.0001) > /
(PID.TID 0000.0001) >
(PID.TID 0000.0001) ># Gridding parameters
(PID.TID 0000.0001) > &PARM04
(PID.TID 0000.0001) > usingSphericalPolarGrid=.TRUE.,
(PID.TID 0000.0001) > delR= 50.,  70., 100., 140., 190.,
(PID.TID 0000.0001) >      240., 290., 340., 390., 440.,
(PID.TID 0000.0001) >      490., 540., 590., 640., 690.,
(PID.TID 0000.0001) > ygOrigin=-80.,
(PID.TID 0000.0001) > dySpacing=4.,
(PID.TID 0000.0001) > dxSpacing=4.,
(PID.TID 0000.0001) > /
(PID.TID 0000.0001) >
(PID.TID 0000.0001) ># Input datasets
(PID.TID 0000.0001) > &PARM05
(PID.TID 0000.0001) > bathyFile=      'bathymetry.bin',
(PID.TID 0000.0001) > hydrogThetaFile='lev_t.bin',
(PID.TID 0000.0001) > hydrogSaltFile= 'lev_s.bin',
(PID.TID 0000.0001) > zonalWindFile=  'trenberth_taux.bin',
(PID.TID 0000.0001) > meridWindFile=  'trenberth_tauy.bin',
(PID.TID 0000.0001) > thetaClimFile=  'lev_sst.bin',
(PID.TID 0000.0001) > saltClimFile=   'lev_sss.bin',
(PID.TID 0000.0001) > surfQFile=      'ncep_qnet.bin',
(PID.TID 0000.0001) > the_run_name=   'global_ocean.90x40x15',
(PID.TID 0000.0001) > EmPmRFile=      'ncep_emp.bin',
(PID.TID 0000.0001) > /
(PID.TID 0000.0001) 
(PID.TID 0000.0001)  INI_PARMS ; starts to read PARM01
(PID.TID 0000.0001)  INI_PARMS ; read PARM01 : OK
(PID.TID 0000.0001) S/R INI_PARMS: No request for barotropic solver
(PID.TID 0000.0001) S/R INI_PARMS: => Use implicitFreeSurface as default
(PID.TID 0000.0001)  INI_PARMS ; starts to read PARM02
(PID.TID 0000.0001)  INI_PARMS ; read PARM02 : OK
(PID.TID 0000.0001)  INI_PARMS ; starts to read PARM03
(PID.TID 0000.0001)  INI_PARMS ; read PARM03 : OK
(PID.TID 0000.0001)  INI_PARMS ; starts to read PARM04
(PID.TID 0000.0001)  INI_PARMS ; read PARM04 : OK
(PID.TID 0000.0001)  INI_PARMS ; starts to read PARM05
(PID.TID 0000.0001)  INI_PARMS ; read PARM05 : OK
(PID.TID 0000.0001)  INI_PARMS: finished reading file "data"
(PID.TID 0000.0001)  PACKAGES_BOOT: opening data.pkg
(PID.TID 0000.0001)  OPEN_COPY_DATA_FILE: opening file data.pkg
(PID.TID 0000.0001) // =======================================================
(PID.TID 0000.0001) // Parameter file "data.pkg"
(PID.TID 0000.0001) // =======================================================
(PID.TID 0000.0001) ># Packages (lines beginning "#" are comments)
(PID.TID 0000.0001) > &PACKAGES
(PID.TID 0000.0001) > useGMRedi=.TRUE.,
(PID.TID 0000.0001) > useSBO=.TRUE.,
(PID.TID 0000.0001) > useDiagnostics=.TRUE.,
(PID.TID 0000.0001) > useMNC=.TRUE.,
(PID.TID 0000.0001) > /
(PID.TID 0000.0001) 
(PID.TID 0000.0001)  PACKAGES_BOOT: finished reading data.pkg
(PID.TID 0000.0001)  MNC_READPARMS: opening file 'data.mnc'
(PID.TID 0000.0001)  OPEN_COPY_DATA_FILE: opening file data.mnc
(PID.TID 0000.0001) // =======================================================
(PID.TID 0000.0001) // Parameter file "data.mnc"
(PID.TID 0000.0001) // =======================================================
(PID.TID 0000.0001) ># Example "data.mnc" file
(PID.TID 0000.0001) ># Lines beginning "#" are comments
(PID.TID 0000.0001) > &MNC_01
(PID.TID 0000.0001) ># mnc_echo_gvtypes=.FALSE.,
(PID.TID 0000.0001) ># mnc_use_indir=.FALSE.,
(PID.TID 0000.0001) > mnc_use_outdir=.TRUE.,
(PID.TID 0000.0001) > mnc_outdir_str='mnc_test_',
(PID.TID 0000.0001) >#mnc_outdir_date=.TRUE.,
(PID.TID 0000.0001) > monitor_mnc=.FALSE.,
(PID.TID 0000.0001) >#timeave_mnc=.FALSE.,
(PID.TID 0000.0001) >#snapshot_mnc=.FALSE.,
(PID.TID 0000.0001) > pickup_write_mnc=.FALSE.,
(PID.TID 0000.0001) > pickup_read_mnc=.FALSE.,
(PID.TID 0000.0001) > /
(PID.TID 0000.0001) ># Note: Some systems use & as the
(PID.TID 0000.0001) ># namelist terminator. Other systems
(PID.TID 0000.0001) ># use a / character (as shown here).
(PID.TID 0000.0001) 
(PID.TID 0000.0001)  MNC_READPARMS: finished reading data.mnc
(PID.TID 0000.0001)  GM_READPARMS: opening data.gmredi
(PID.TID 0000.0001)  OPEN_COPY_DATA_FILE: opening file data.gmredi
(PID.TID 0000.0001) // =======================================================
(PID.TID 0000.0001) // Parameter file "data.gmredi"
(PID.TID 0000.0001) // =======================================================
(PID.TID 0000.0001) ># GM+Redi package parameters:
(PID.TID 0000.0001) >
(PID.TID 0000.0001) >#-from MOM :
(PID.TID 0000.0001) ># GM_background_K: 	G & Mc.W  diffusion coefficient
(PID.TID 0000.0001) ># GM_maxSlope    :	max slope of isopycnals
(PID.TID 0000.0001) ># GM_Scrit       :	transition for scaling diffusion coefficient
(PID.TID 0000.0001) ># GM_Sd          :	half width scaling for diffusion coefficient
(PID.TID 0000.0001) ># GM_taper_scheme:	slope clipping or one of the tapering schemes
(PID.TID 0000.0001) ># GM_Kmin_horiz  :	horizontal diffusion minimum value
(PID.TID 0000.0001) >
(PID.TID 0000.0001) >#-Option parameters (needs to "define" options in GMREDI_OPTIONS.h")
(PID.TID 0000.0001) ># GM_isopycK     :	isopycnal diffusion coefficient (default=GM_background_K)
(PID.TID 0000.0001) ># GM_AdvForm     :	turn on GM Advective form       (default=Skew flux form)
(PID.TID 0000.0001) >
(PID.TID 0000.0001) > &GM_PARM01
(PID.TID 0000.0001) >  GM_background_K    = 1.e+3,
(PID.TID 0000.0001) >  GM_taper_scheme    = 'gkw91',
(PID.TID 0000.0001) >  GM_maxSlope        = 1.e-2,
(PID.TID 0000.0001) >  GM_Kmin_horiz      = 50.,
(PID.TID 0000.0001) >  GM_Scrit           = 4.e-3,
(PID.TID 0000.0001) >  GM_Sd              = 1.e-3,
(PID.TID 0000.0001) ># GM_Visbeck_alpha   = 0.,
(PID.TID 0000.0001) ># GM_Visbeck_length  = 2.e+5,
(PID.TID 0000.0001) ># GM_Visbeck_depth   = 1.e+3,
(PID.TID 0000.0001) ># GM_Visbeck_maxval_K= 2.5e+3,
(PID.TID 0000.0001) > /
(PID.TID 0000.0001) >
(PID.TID 0000.0001) >
(PID.TID 0000.0001) 
(PID.TID 0000.0001)  GM_READPARMS: finished reading data.gmredi
(PID.TID 0000.0001)  SBO_READPARMS: opening data.sbo
(PID.TID 0000.0001)  OPEN_COPY_DATA_FILE: opening file data.sbo
(PID.TID 0000.0001) // =======================================================
(PID.TID 0000.0001) // Parameter file "data.sbo"
(PID.TID 0000.0001) // =======================================================
(PID.TID 0000.0001) >#
(PID.TID 0000.0001) > &SBO_PARM01
(PID.TID 0000.0001) > /
(PID.TID 0000.0001) 
(PID.TID 0000.0001)  SBO_READPARMS: finished reading data.sbo
(PID.TID 0000.0001)  DIAGNOSTICS_READPARMS: opening data.diagnostics
(PID.TID 0000.0001)  OPEN_COPY_DATA_FILE: opening file data.diagnostics
(PID.TID 0000.0001) // =======================================================
(PID.TID 0000.0001) // Parameter file "data.diagnostics"
(PID.TID 0000.0001) // =======================================================
(PID.TID 0000.0001) ># Diagnostic Package Choices
(PID.TID 0000.0001) >#--------------------
(PID.TID 0000.0001) >#  dumpAtLast (logical): always write output at the end of simulation (default=F)
(PID.TID 0000.0001) >#  diag_mnc   (logical): write to NetCDF files (default=useMNC)
(PID.TID 0000.0001) >#--for each output-stream:
(PID.TID 0000.0001) >#  fileName(n) : prefix of the output file name (max 80c long) for outp.stream n
(PID.TID 0000.0001) >#  frequency(n):< 0 : write snap-shot output every |frequency| seconds
(PID.TID 0000.0001) >#               > 0 : write time-average output every frequency seconds
(PID.TID 0000.0001) >#  timePhase(n)     : write at time = timePhase + multiple of |frequency|
(PID.TID 0000.0001) >#    averagingFreq  : frequency (in s) for periodic averaging interval
(PID.TID 0000.0001) >#    averagingPhase : phase     (in s) for periodic averaging interval
(PID.TID 0000.0001) >#    repeatCycle    : number of averaging intervals in 1 cycle
(PID.TID 0000.0001) >#  levels(:,n) : list of levels to write to file (Notes: declared as REAL)
(PID.TID 0000.0001) >#                when this entry is missing, select all common levels of this list
(PID.TID 0000.0001) >#  fields(:,n) : list of selected diagnostics fields (8.c) in outp.stream n
(PID.TID 0000.0001) >#                (see "available_diagnostics.log" file for the full list of diags)
(PID.TID 0000.0001) >#  missing_value(n) : missing value for real-type fields in output file "n"
(PID.TID 0000.0001) >#  fileFlags(n)     : specific code (8c string) for output file "n"
(PID.TID 0000.0001) >#--------------------
(PID.TID 0000.0001) > &DIAGNOSTICS_LIST
(PID.TID 0000.0001) ># diag_mnc     = .FALSE.,
(PID.TID 0000.0001) >#--
(PID.TID 0000.0001) >  fields(1:5,1)  = 'ETAN    ','ETANSQ  ','DETADT2 ',
(PID.TID 0000.0001) >                   'PHIBOT  ','PHIBOTSQ',
(PID.TID 0000.0001) >#                  'DSLPuFlw','DSLPvFlw',
(PID.TID 0000.0001) >   fileName(1) = 'surfDiag',
(PID.TID 0000.0001) ># frequency(1) = 311040000.,
(PID.TID 0000.0001) >  frequency(1) = 864000.,
(PID.TID 0000.0001) >
(PID.TID 0000.0001) >  fields(1:6,2)  = 'UVELMASS','VVELMASS','WVEL    ',
(PID.TID 0000.0001) >#                  'UVEL    ','VVEL    ','PHIHYD  ',
(PID.TID 0000.0001) >                   'THETA   ','SALT    ','WVELSQ  ',
(PID.TID 0000.0001) ># do not specify levels => all levels are selected
(PID.TID 0000.0001) >   fileName(2) = 'dynDiag',
(PID.TID 0000.0001) ># frequency(2) = 311040000.,
(PID.TID 0000.0001) >  frequency(2) = 864000.,
(PID.TID 0000.0001) >
(PID.TID 0000.0001) >  fields(1:6,3)  = 'RHOAnoma','DRHODR  ','CONVADJ ',
(PID.TID 0000.0001) >#                  'GM_PsiX ','GM_PsiY ',
(PID.TID 0000.0001) >                   'GM_Kwx  ','GM_Kwy  ','GM_Kwz  ',
(PID.TID 0000.0001) >#                  'GM_Kux  ','GM_Kvy  ',
(PID.TID 0000.0001) >#                  'GM_Kuz  ','GM_Kvz  ',
(PID.TID 0000.0001) >#                  'DSLP_TH ','DSLP_SLT',
(PID.TID 0000.0001) >   fileName(3) = 'oceDiag',
(PID.TID 0000.0001) ># frequency(3) = 311040000.,
(PID.TID 0000.0001) >  frequency(3) = 864000.,
(PID.TID 0000.0001) > /
(PID.TID 0000.0001) >
(PID.TID 0000.0001) >#--------------------
(PID.TID 0000.0001) ># Parameter for Diagnostics of per level statistics:
(PID.TID 0000.0001) >#--------------------
(PID.TID 0000.0001) >#  diagSt_mnc (logical): write stat-diags to NetCDF files (default=diag_mnc)
(PID.TID 0000.0001) >#  diagSt_regMaskFile : file containing the region-mask to read-in
(PID.TID 0000.0001) >#  nSetRegMskFile   : number of region-mask sets within the region-mask file
(PID.TID 0000.0001) >#  set_regMask(i)   : region-mask set-index that identifies the region "i"
(PID.TID 0000.0001) >#  val_regMask(i)   : region "i" identifier value in the region mask
(PID.TID 0000.0001) >#--for each output-stream:
(PID.TID 0000.0001) >#  stat_fName(n) : prefix of the output file name (max 80c long) for outp.stream n
(PID.TID 0000.0001) >#  stat_freq(n):< 0 : write snap-shot output every |stat_freq| seconds
(PID.TID 0000.0001) >#               > 0 : write time-average output every stat_freq seconds
(PID.TID 0000.0001) >#  stat_phase(n)    : write at time = stat_phase + multiple of |stat_freq|
(PID.TID 0000.0001) >#  stat_region(:,n) : list of "regions" (default: 1 region only=global)
(PID.TID 0000.0001) >#  stat_fields(:,n) : list of selected diagnostics fields (8.c) in outp.stream n
(PID.TID 0000.0001) >#                (see "available_diagnostics.log" file for the full list of diags)
(PID.TID 0000.0001) >#--------------------
(PID.TID 0000.0001) > &DIAG_STATIS_PARMS
(PID.TID 0000.0001) >#diagSt_mnc = .FALSE.,
(PID.TID 0000.0001) >#--
(PID.TID 0000.0001) > stat_fields(1:9,1) = 'ETAN    ','ETANSQ  ','DETADT2 ',
(PID.TID 0000.0001) >                      'UVEL    ','VVEL    ','WVEL    ',
(PID.TID 0000.0001) >                      'THETA   ','SALT    ','WVELSQ  ',
(PID.TID 0000.0001) >  stat_fName(1) = 'dynStDiag',
(PID.TID 0000.0001) >   stat_freq(1) = 2592000.,
(PID.TID 0000.0001) >#  stat_freq(1) = 432000.,
(PID.TID 0000.0001) ># stat_phase(1) = 86400.,
(PID.TID 0000.0001) > stat_fields(1:3,2) = 'RHOAnoma','DRHODR  ','CONVADJ ',
(PID.TID 0000.0001) >#                     'DSLPuFlw','DSLPvFlw',
(PID.TID 0000.0001) >#                     'DSLP_TH ','DSLP_SLT',
(PID.TID 0000.0001) >#                     'DSLPTr01','Add2EmP ',
(PID.TID 0000.0001) >  stat_fName(2) = 'oceStDiag',
(PID.TID 0000.0001) >   stat_freq(2) = 2592000.,
(PID.TID 0000.0001) >#  stat_freq(2) = 432000.,
(PID.TID 0000.0001) > /
(PID.TID 0000.0001) >
(PID.TID 0000.0001) 
(PID.TID 0000.0001) S/R DIAGNOSTICS_READPARMS, read namelist "diagnostics_list": start
(PID.TID 0000.0001) S/R DIAGNOSTICS_READPARMS, read namelist "diagnostics_list": OK
(PID.TID 0000.0001) S/R DIAGNOSTICS_READPARMS, read namelist "DIAG_STATIS_PARMS": start
(PID.TID 0000.0001) S/R DIAGNOSTICS_READPARMS, read namelist "DIAG_STATIS_PARMS": OK
(PID.TID 0000.0001) -----------------------------------------------------
(PID.TID 0000.0001)  DIAGNOSTICS_READPARMS: active diagnostics summary:
(PID.TID 0000.0001) -----------------------------------------------------
(PID.TID 0000.0001) Creating Output Stream: surfDiag
(PID.TID 0000.0001) Output Frequency:     864000.000000 ; Phase:           0.000000
(PID.TID 0000.0001)  Averaging Freq.:     864000.000000 , Phase:           0.000000 , Cycle:   1
(PID.TID 0000.0001)  missing value:  1.234567000000E+05 ; for integers:   123456789
(PID.TID 0000.0001)  Levels:    will be set later
(PID.TID 0000.0001)  Fields:    ETAN     ETANSQ   DETADT2  PHIBOT   PHIBOTSQ
(PID.TID 0000.0001) Creating Output Stream: dynDiag
(PID.TID 0000.0001) Output Frequency:     864000.000000 ; Phase:           0.000000
(PID.TID 0000.0001)  Averaging Freq.:     864000.000000 , Phase:           0.000000 , Cycle:   1
(PID.TID 0000.0001)  missing value:  1.234567000000E+05 ; for integers:   123456789
(PID.TID 0000.0001)  Levels:    will be set later
(PID.TID 0000.0001)  Fields:    UVELMASS VVELMASS WVEL     THETA    SALT     WVELSQ
(PID.TID 0000.0001) Creating Output Stream: oceDiag
(PID.TID 0000.0001) Output Frequency:     864000.000000 ; Phase:           0.000000
(PID.TID 0000.0001)  Averaging Freq.:     864000.000000 , Phase:           0.000000 , Cycle:   1
(PID.TID 0000.0001)  missing value:  1.234567000000E+05 ; for integers:   123456789
(PID.TID 0000.0001)  Levels:    will be set later
(PID.TID 0000.0001)  Fields:    RHOAnoma DRHODR   CONVADJ  GM_Kwx   GM_Kwy   GM_Kwz
(PID.TID 0000.0001) -----------------------------------------------------
(PID.TID 0000.0001)  DIAGNOSTICS_READPARMS: statistics diags. summary:
(PID.TID 0000.0001) Creating Stats. Output Stream: dynStDiag
(PID.TID 0000.0001) Output Frequency:    2592000.000000 ; Phase:           0.000000
(PID.TID 0000.0001)  Regions:   0
(PID.TID 0000.0001)  Fields:    ETAN     ETANSQ   DETADT2  UVEL     VVEL     WVEL     THETA    SALT     WVELSQ
(PID.TID 0000.0001) Creating Stats. Output Stream: oceStDiag
(PID.TID 0000.0001) Output Frequency:    2592000.000000 ; Phase:           0.000000
(PID.TID 0000.0001)  Regions:   0
(PID.TID 0000.0001)  Fields:    RHOAnoma DRHODR   CONVADJ
(PID.TID 0000.0001) -----------------------------------------------------
(PID.TID 0000.0001) 
(PID.TID 0000.0001) SET_PARMS: done
(PID.TID 0000.0001) Enter INI_VERTICAL_GRID: setInterFDr=    T ; setCenterDr=    F
(PID.TID 0000.0001) %MON XC_max                       =   3.5800000000000E+02
(PID.TID 0000.0001) %MON XC_min                       =   2.0000000000000E+00
(PID.TID 0000.0001) %MON XC_mean                      =   1.8000000000000E+02
(PID.TID 0000.0001) %MON XC_sd                        =   1.0391663325314E+02
(PID.TID 0000.0001) %MON XG_max                       =   3.5600000000000E+02
(PID.TID 0000.0001) %MON XG_min                       =   0.0000000000000E+00
(PID.TID 0000.0001) %MON XG_mean                      =   1.7800000000000E+02
(PID.TID 0000.0001) %MON XG_sd                        =   1.0391663325314E+02
(PID.TID 0000.0001) %MON DXC_max                      =   4.4443898815675E+05
(PID.TID 0000.0001) %MON DXC_min                      =   9.2460385861875E+04
(PID.TID 0000.0001) %MON DXC_mean                     =   3.1372497618153E+05
(PID.TID 0000.0001) %MON DXC_sd                       =   1.1216447457560E+05
(PID.TID 0000.0001) %MON DXF_max                      =   4.4443898815675E+05
(PID.TID 0000.0001) %MON DXF_min                      =   9.2460385861875E+04
(PID.TID 0000.0001) %MON DXF_mean                     =   3.1372497618153E+05
(PID.TID 0000.0001) %MON DXF_sd                       =   1.1216447457560E+05
(PID.TID 0000.0001) %MON DXG_max                      =   4.4470989340816E+05
(PID.TID 0000.0001) %MON DXG_min                      =   7.7223062580781E+04
(PID.TID 0000.0001) %MON DXG_mean                     =   3.1353386340261E+05
(PID.TID 0000.0001) %MON DXG_sd                       =   1.1256651772502E+05
(PID.TID 0000.0001) %MON DXV_max                      =   4.4470989340816E+05
(PID.TID 0000.0001) %MON DXV_min                      =   7.7223062580781E+04
(PID.TID 0000.0001) %MON DXV_mean                     =   3.1353386340261E+05
(PID.TID 0000.0001) %MON DXV_sd                       =   1.1256651772502E+05
(PID.TID 0000.0001) %MON YC_max                       =   7.8000000000000E+01
(PID.TID 0000.0001) %MON YC_min                       =  -7.8000000000000E+01
(PID.TID 0000.0001) %MON YC_mean                      =   0.0000000000000E+00
(PID.TID 0000.0001) %MON YC_sd                        =   4.6173585522461E+01
(PID.TID 0000.0001) %MON YG_max                       =   7.6000000000000E+01
(PID.TID 0000.0001) %MON YG_min                       =  -8.0000000000000E+01
(PID.TID 0000.0001) %MON YG_mean                      =  -2.0000000000000E+00
(PID.TID 0000.0001) %MON YG_sd                        =   4.6173585522461E+01
(PID.TID 0000.0001) %MON DYC_max                      =   4.4470989340816E+05
(PID.TID 0000.0001) %MON DYC_min                      =   4.4470989340816E+05
(PID.TID 0000.0001) %MON DYC_mean                     =   4.4470989340816E+05
(PID.TID 0000.0001) %MON DYC_sd                       =   5.2968971431255E-09
(PID.TID 0000.0001) %MON DYF_max                      =   4.4470989340816E+05
(PID.TID 0000.0001) %MON DYF_min                      =   4.4470989340816E+05
(PID.TID 0000.0001) %MON DYF_mean                     =   4.4470989340816E+05
(PID.TID 0000.0001) %MON DYF_sd                       =   5.2968971431255E-09
(PID.TID 0000.0001) %MON DYG_max                      =   4.4470989340816E+05
(PID.TID 0000.0001) %MON DYG_min                      =   4.4470989340816E+05
(PID.TID 0000.0001) %MON DYG_mean                     =   4.4470989340816E+05
(PID.TID 0000.0001) %MON DYG_sd                       =   5.2968971431255E-09
(PID.TID 0000.0001) %MON DYU_max                      =   4.4470989340816E+05
(PID.TID 0000.0001) %MON DYU_min                      =   4.4470989340816E+05
(PID.TID 0000.0001) %MON DYU_mean                     =   4.4470989340816E+05
(PID.TID 0000.0001) %MON DYU_sd                       =   5.2968971431255E-09
(PID.TID 0000.0001) %MON RA_max                       =   1.9760627980089E+11
(PID.TID 0000.0001) %MON RA_min                       =   4.1109698667290E+10
(PID.TID 0000.0001) %MON RA_mean                      =   1.3948826965196E+11
(PID.TID 0000.0001) %MON RA_sd                        =   4.9870522472902E+10
(PID.TID 0000.0001) %MON RAW_max                      =   1.9760627980089E+11
(PID.TID 0000.0001) %MON RAW_min                      =   4.1109698667290E+10
(PID.TID 0000.0001) %MON RAW_mean                     =   1.3948826965196E+11
(PID.TID 0000.0001) %MON RAW_sd                       =   4.9870522472902E+10
(PID.TID 0000.0001) %MON RAS_max                      =   1.9772672958215E+11
(PID.TID 0000.0001) %MON RAS_min                      =   3.4334886267983E+10
(PID.TID 0000.0001) %MON RAS_mean                     =   1.3940329716694E+11
(PID.TID 0000.0001) %MON RAS_sd                       =   5.0049278732353E+10
(PID.TID 0000.0001) %MON RAZ_max                      =   1.9772672958215E+11
(PID.TID 0000.0001) %MON RAZ_min                      =   3.4334886267983E+10
(PID.TID 0000.0001) %MON RAZ_mean                     =   1.3940329716694E+11
(PID.TID 0000.0001) %MON RAZ_sd                       =   5.0049278732353E+10
(PID.TID 0000.0001) %MON AngleCS_max                  =   1.0000000000000E+00
(PID.TID 0000.0001) %MON AngleCS_min                  =   1.0000000000000E+00
(PID.TID 0000.0001) %MON AngleCS_mean                 =   1.0000000000000E+00
(PID.TID 0000.0001) %MON AngleCS_sd                   =   0.0000000000000E+00
(PID.TID 0000.0001) %MON AngleSN_max                  =   0.0000000000000E+00
(PID.TID 0000.0001) %MON AngleSN_min                  =   0.0000000000000E+00
(PID.TID 0000.0001) %MON AngleSN_mean                 =   0.0000000000000E+00
(PID.TID 0000.0001) %MON AngleSN_sd                   =   0.0000000000000E+00
(PID.TID 0000.0001)  MDS_READ_FIELD: opening global file: bathymetry.bin
(PID.TID 0000.0001) // =======================================================
(PID.TID 0000.0001) // Field Model R_low (ini_masks_etc) at iteration          1
(PID.TID 0000.0001) // CMIN =         -5.200000000000000E+03
(PID.TID 0000.0001) // CMAX =         -1.200000000000000E+02
(PID.TID 0000.0001) // CINT =          1.881481481481482E+02
(PID.TID 0000.0001) // SYMBOLS (CMIN->CMAX): -abcdefghijklmnopqrstuvwxyz+
(PID.TID 0000.0001) //                  0.0: .
(PID.TID 0000.0001) // RANGE I (Lo:Hi:Step):(    -2:    93:     1)
(PID.TID 0000.0001) // RANGE J (Lo:Hi:Step):(    43:    -2:    -1)
(PID.TID 0000.0001) // RANGE K (Lo:Hi:Step):(   1:   1:   1)
(PID.TID 0000.0001) // =======================================================
(PID.TID 0000.0001) K =   1
(PID.TID 0000.0001) //                I=7       I=17      I=27      I=37      I=47      I=51      I=61      I=71      I=81      I=91
(PID.TID 0000.0001) // |--J--|210123456|890123456|890123456|890123456|890123456|834567890|234567890|234567890|234567890|234567890|23
(PID.TID 0000.0001) //     43 ......................................................................................................
(PID.TID 0000.0001) //     42 .............................................zyxxmgzyxxmgfeeefefgimnpwwwy..+zyy.....yyyyoiiihhz+......
(PID.TID 0000.0001) //     41 ......................................................................................................
(PID.TID 0000.0001) //     40 +qlloqz+.++++zzz++++++........................................................................+++qlloq
(PID.TID 0000.0001) //     39 uslloorzzzzzzzzz+...++...........................................................yxxz........+zvuslloo
(PID.TID 0000.0001) //     38 smqpporzzzzzz+++.................................................................zxxy+......zyyvsmqppo
(PID.TID 0000.0001) //     37 smmmuz........................................................................++...zy+...yttyy.+smmmuz
(PID.TID 0000.0001) //     36 yutt+.........................................mm++..mm++....................+++++++znmm.yoowssvuyutt+.
(PID.TID 0000.0001) //     35 w++++.................................+zzz..rrmmkk+rmmkk+...+gghn...........+++....+nmiijlsoopuww++++.
(PID.TID 0000.0001) //     34 +.....................................+vvy.ggqyxv+yqyxv+y.ccdffhim..................+nihhikkihhm+.....
(PID.TID 0000.0001) //     33 w+.....................................uuz---h-----h------aaabdefin+.................zqvddflifffw+....
(PID.TID 0000.0001) //     32 m+.....................................+t----h-----h---------acdfgnn................+++gdffkofffm+....
(PID.TID 0000.0001) //     31 m......................................-----ad-----d--------abddegil..............qbaafccdhqqgddm.....
(PID.TID 0000.0001) //     30 i.....................................f----b--b-----b------------abd............zfbb--fbcdosjfddi.....
(PID.TID 0000.0001) //     29 i...................................tu----e---fjg---fjg----------abdf...........eaac--abfmijaadgi.....
(PID.TID 0000.0001) //     28 z.................................+xfl-------------------------bdedefi.........qbaa---aemfbbaaejz.....
(PID.TID 0000.0001) //     27 .................xx..............+wfgfpf--------eal---eallc---bbbccefgi...+++x.qb-----akfa---ah.......
(PID.TID 0000.0001) //     26 .................xnn...........+vd---dna------a--ai-a--aicfna---aabdfghku.++xssuy-----bgca---ci.......
(PID.TID 0000.0001) //     25 .................iiik...oo+...+ivd---doaa-bc--ilglf-ilglf--aa---aabcghhkll...ssum+xaaacjbaabdjk.......
(PID.TID 0000.0001) //     24 ...............xnheeft.kkk+...uii.aagdm----aa-----a-----a-------bbbcdefjljjju.zummwwbbchba--abi.......
(PID.TID 0000.0001) //     23 ...............xgheefp.iikw...uuw..fihi----fed-----d-----eaaa--bbbbcdfflkjiiiq....zykccefa--abd.......
(PID.TID 0000.0001) //     22 quss...........bbelffslffkk...zz.wqkeeqoheccdfa----fa-----egabaabcdddegghliiiqq......xeeehheehccquss..
(PID.TID 0000.0001) //     21 cbbeir........nbbcdjhqdddiiz.....wqfeelgghmedea----ea-----bibbcddddddefghklnqoo........ieeflhgcccbbeir
(PID.TID 0000.0001) //     20 cbbder.......ldcccdgkccccidd......z.vkkktqqhegg----gg----aaacddddddddefghkiiijl.........nhfa--gfcbbder
(PID.TID 0000.0001) //     19 hcdaaf.......kddosggpaaaibbccx...+z+.....r+nlec---aec---agaaabcddccddefikfgffff...........d---cjhcdaaf
(PID.TID 0000.0001) //     18 hd---d.......kglggvliaaaibbcaaeaiv++...qqzolhecccfdecccfdgkaabcdfccdeeikgfgffdd+..........d---djhd---d
(PID.TID 0000.0001) //     23 ...............xgheefp.iikw...uuw..fihi----fed-----d-----eaaa--bbbbcdfflkjiiiq....zykccefa--abd.......
(PID.TID 0000.0001) //     22 quss...........bbelffslffkk...zz.wqkeeqoheccdfa----fa-----egabaabcdddegghliiiqq......xeeehheehccquss..
(PID.TID 0000.0001) //     21 cbbeir........nbbcdjhqdddiiz.....wqfeelgghmedea----ea-----bibbcddddddefghklnqoo........ieeflhgcccbbeir
(PID.TID 0000.0001) //     20 cbbder.......ldcccdgkccccidd......z.vkkktqqhegg----gg----aaacddddddddefghkiiijl.........nhfa--gfcbbder
(PID.TID 0000.0001) //     19 hcdaaf.......kddosggpaaaibbccx...+z+.....r+nlec---aec---agaaabcddccddefikfgffff...........d---cjhcdaaf
(PID.TID 0000.0001) //     18 hd---d.......kglggvliaaaibbcaaeaiv++...qqzolhecccfdecccfdgkaabcdfccdeeikgfgffdd+..........d---djhd---d
(PID.TID 0000.0001) //     17 hc---c.......l.feewlfaaaoaa----aiv.....qqnllslmlofclmlofcdbaacceffffhhligfigeddj.........hd---ckhc---c
(PID.TID 0000.0001) //     16 gba--c......tn.ddgnlfdaaqa-----lv.......vnllvllnwv-llnwv--accivomfffhilhgfffeddjf........re--aeigba--c
(PID.TID 0000.0001) //     15 fb--dpz....+ll.ccdfhmdddlc----av.........otsxoomv--oomv---abccddfihgijkhgfffeejfff......+fd---ckfb--dp
(PID.TID 0000.0001) //     14 fc--mcl....weeqbaafilkfend--eagy.........hhstofft--offt----aacdheefijkmjhhjijiffff.....zlfdaaadlfc--mc
(PID.TID 0000.0001) //     13 hcclbbg....nccobaaiddgkffqrqeaal.........eeutqfft--qfft------aaceeffhijlkjhhigfffq....+jgfodccflhcclbb
(PID.TID 0000.0001) //     12 hhgaaacw+iiicclemhdddfliigfdcaabfaaaz....ccsurqpc--rqpc--------abcifffikiiihhggff.....kbbbdfffglhhgaaa
(PID.TID 0000.0001) //     11 kgcaaacbbifccennhbbdefnihgfdccaaaa----..dcccnt.ncabt.ncab-------aabcdfilhggjiggff....l---abcefjlkgcaaa
(PID.TID 0000.0001) //     10 kfcaaccbdaacfrllfbbdegkmmljhfdddba----d.dcccfx.nyrex.nyrebaba----abcdgilhfeegijgi..+w--aa-abcfilkfcaac
(PID.TID 0000.0001) //      9 lffcdcccaaaoqsolfdeehikihhlllgfedcccccdmdcccf.vyfaa.vyfaaaaaaaa--abdehmjhfeeefglv.++w-----abcdfklffcdc
(PID.TID 0000.0001) //      8 liffjklcaafddffeeccvznkfffhhhlkjifgjkkfeeddfsyvcaaayvcaaaaaaccdcccdfgjligedbbceg+.++xffn--cfddefliffjk
(PID.TID 0000.0001) //      7 hmqnnbbkkf--bmbaabbgtykfddeffeeddccdfhlffeelfbaaaaabaaaaaacddeghgjgjlligeddaaabedfiiiiiisvkfkecchmqnnb
(PID.TID 0000.0001) //      6 cca-------------aabcelttdddedddddccccdfkkiiffbaaaabbaaaabcdgimmkmefecaaabbbaaabbdfiiiiispmmregifcca---
(PID.TID 0000.0001) //      5 --------a-------aaccehhhiddeddddddcccdfiikomodddeffdddefffmlmigedccaaaaaaaababbbdfiijsqgeccccbaa------
(PID.TID 0000.0001) //      4 --ahebaabbbbbeihffgijiiiijpywnnpokkomkiiijmmmolkommolkommmgffeeedccaaaaaabbcccefhmz..yjgeccccbaa--aheb
(PID.TID 0000.0001) //      3 gffhhrpjiiwyy............................yxotmjjjjgmjjjjgfeeeeeeddeffffheddeghjkyy..yqjgeddccdbbgffhhr
(PID.TID 0000.0001) //      2 .............................................zyxxmgzyxxmgfeeefefgimnpwwwy..+zyy.....yyyyoiiihhz+......
(PID.TID 0000.0001) //      1 ......................................................................................................
(PID.TID 0000.0001) //      0 +qlloqz+.++++zzz++++++........................................................................+++qlloq
(PID.TID 0000.0001) //     -1 uslloorzzzzzzzzz+...++...........................................................yxxz........+zvuslloo
(PID.TID 0000.0001) //     -2 ......................................................................................................
(PID.TID 0000.0001) // =======================================================
(PID.TID 0000.0001) // END OF FIELD                                          =
(PID.TID 0000.0001) // =======================================================
(PID.TID 0000.0001) 
(PID.TID 0000.0001) // =======================================================
(PID.TID 0000.0001) // Field Model Ro_surf (ini_masks_etc) at iteration          1
(PID.TID 0000.0001) // CMIN =          1.000000000000000E+32
(PID.TID 0000.0001) // CMAX =         -1.000000000000000E+32
(PID.TID 0000.0001) // CINT =          0.000000000000000E+00
(PID.TID 0000.0001) // SYMBOLS (CMIN->CMAX): -abcdefghijklmnopqrstuvwxyz+
(PID.TID 0000.0001) //                  0.0: .
(PID.TID 0000.0001) // RANGE I (Lo:Hi:Step):(    -2:    93:     1)
(PID.TID 0000.0001) // RANGE J (Lo:Hi:Step):(    43:    -2:    -1)
(PID.TID 0000.0001) // RANGE K (Lo:Hi:Step):(   1:   1:   1)
(PID.TID 0000.0001) // =======================================================
(PID.TID 0000.0001) // =======================================================
(PID.TID 0000.0001) // END OF FIELD                                          =
(PID.TID 0000.0001) // =======================================================
(PID.TID 0000.0001) 
(PID.TID 0000.0001) // =======================================================
(PID.TID 0000.0001) // Field hFacC at iteration          1
(PID.TID 0000.0001) // CMIN =          1.000000000000000E+00
(PID.TID 0000.0001) // CMAX =          1.000000000000000E+00
(PID.TID 0000.0001) // CINT =          0.000000000000000E+00
(PID.TID 0000.0001) // SYMBOLS (CMIN->CMAX): -abcdefghijklmnopqrstuvwxyz+
(PID.TID 0000.0001) //                  0.0: .
(PID.TID 0000.0001) // RANGE I (Lo:Hi:Step):(    -2:    93:     1)
(PID.TID 0000.0001) // RANGE J (Lo:Hi:Step):(    43:    -2:    -1)
(PID.TID 0000.0001) // RANGE K (Lo:Hi:Step):(   1:   1:   1)
(PID.TID 0000.0001) // =======================================================
(PID.TID 0000.0001) // =======================================================
(PID.TID 0000.0001) // END OF FIELD                                          =
(PID.TID 0000.0001) // =======================================================
(PID.TID 0000.0001) 
(PID.TID 0000.0001) // =======================================================
(PID.TID 0000.0001) // Field hFacW at iteration          1
(PID.TID 0000.0001) // CMIN =          1.000000000000000E+00
(PID.TID 0000.0001) // CMAX =          1.000000000000000E+00
(PID.TID 0000.0001) // CINT =          0.000000000000000E+00
(PID.TID 0000.0001) // SYMBOLS (CMIN->CMAX): -abcdefghijklmnopqrstuvwxyz+
(PID.TID 0000.0001) //                  0.0: .
(PID.TID 0000.0001) // RANGE I (Lo:Hi:Step):(    -2:    93:     1)
(PID.TID 0000.0001) // RANGE J (Lo:Hi:Step):(    43:    -2:    -1)
(PID.TID 0000.0001) // RANGE K (Lo:Hi:Step):(   1:   1:   1)
(PID.TID 0000.0001) // =======================================================
(PID.TID 0000.0001) // =======================================================
(PID.TID 0000.0001) // END OF FIELD                                          =
(PID.TID 0000.0001) // =======================================================
(PID.TID 0000.0001) 
(PID.TID 0000.0001) // =======================================================
(PID.TID 0000.0001) // Field hFacS at iteration          1
(PID.TID 0000.0001) // CMIN =          1.000000000000000E+00
(PID.TID 0000.0001) // CMAX =          1.000000000000000E+00
(PID.TID 0000.0001) // CINT =          0.000000000000000E+00
(PID.TID 0000.0001) // SYMBOLS (CMIN->CMAX): -abcdefghijklmnopqrstuvwxyz+
(PID.TID 0000.0001) //                  0.0: .
(PID.TID 0000.0001) // RANGE I (Lo:Hi:Step):(    -2:    93:     1)
(PID.TID 0000.0001) // RANGE J (Lo:Hi:Step):(    43:    -2:    -1)
(PID.TID 0000.0001) // RANGE K (Lo:Hi:Step):(   1:   1:   1)
(PID.TID 0000.0001) // =======================================================
(PID.TID 0000.0001) // =======================================================
(PID.TID 0000.0001) // END OF FIELD                                          =
(PID.TID 0000.0001) // =======================================================
(PID.TID 0000.0001) 
(PID.TID 0000.0001) GAD_INIT_FIXED: GAD_OlMinSize=  1  0  1
(PID.TID 0000.0001) 
(PID.TID 0000.0001) // ===================================
(PID.TID 0000.0001) // GAD parameters :
(PID.TID 0000.0001) // ===================================
(PID.TID 0000.0001) tempAdvScheme =   /* Temp. Horiz.Advection scheme selector */
(PID.TID 0000.0001)                       2
(PID.TID 0000.0001)     ;
(PID.TID 0000.0001) tempVertAdvScheme =   /* Temp. Vert. Advection scheme selector */
(PID.TID 0000.0001)                       2
(PID.TID 0000.0001)     ;
(PID.TID 0000.0001) tempMultiDimAdvec =   /* use Muti-Dim Advec method for Temp */
(PID.TID 0000.0001)                   F
(PID.TID 0000.0001)     ;
(PID.TID 0000.0001) tempSOM_Advection = /* use 2nd Order Moment Advection for Temp */
(PID.TID 0000.0001)                   F
(PID.TID 0000.0001)     ;
(PID.TID 0000.0001) AdamsBashforthGt = /* apply Adams-Bashforth extrapolation on Gt */
(PID.TID 0000.0001)                   T
(PID.TID 0000.0001)     ;
(PID.TID 0000.0001) AdamsBashforth_T = /* apply Adams-Bashforth extrapolation on Temp */
(PID.TID 0000.0001)                   F
(PID.TID 0000.0001)     ;
(PID.TID 0000.0001) saltAdvScheme =   /* Salt. Horiz.advection scheme selector */
(PID.TID 0000.0001)                       2
(PID.TID 0000.0001)     ;
(PID.TID 0000.0001) saltVertAdvScheme =   /* Salt. Vert. Advection scheme selector */
(PID.TID 0000.0001)                       2
(PID.TID 0000.0001)     ;
(PID.TID 0000.0001) saltMultiDimAdvec =   /* use Muti-Dim Advec method for Salt */
(PID.TID 0000.0001)                   F
(PID.TID 0000.0001)     ;
(PID.TID 0000.0001) saltSOM_Advection = /* use 2nd Order Moment Advection for Salt */
(PID.TID 0000.0001)                   F
(PID.TID 0000.0001)     ;
(PID.TID 0000.0001) AdamsBashforthGs = /* apply Adams-Bashforth extrapolation on Gs */
(PID.TID 0000.0001)                   T
(PID.TID 0000.0001)     ;
(PID.TID 0000.0001) AdamsBashforth_S = /* apply Adams-Bashforth extrapolation on Salt */
(PID.TID 0000.0001)                   F
(PID.TID 0000.0001)     ;
(PID.TID 0000.0001) // ===================================
(PID.TID 0000.0001) ------------------------------------------------------------
(PID.TID 0000.0001) DIAGNOSTICS_SET_LEVELS: done
(PID.TID 0000.0001)  Total Nb of available Diagnostics: ndiagt=   191
(PID.TID 0000.0001)  write list of available Diagnostics to file: available_diagnostics.log
(PID.TID 0000.0001) SETDIAG: Allocate  1 x  1 Levels for Diagnostic #    23 ETAN
(PID.TID 0000.0001) SETDIAG: Allocate  1 x  1 Levels for Diagnostic #    24 ETANSQ
(PID.TID 0000.0001) SETDIAG: Allocate  1 x  1 Levels for Diagnostic #    25 DETADT2
(PID.TID 0000.0001) SETDIAG: Allocate  1 x  1 Levels for Diagnostic #    69 PHIBOT
(PID.TID 0000.0001) SETDIAG: Allocate  1 x  1 Levels for Diagnostic #    70 PHIBOTSQ
(PID.TID 0000.0001) SETDIAG: Allocate 15 x  1 Levels for Diagnostic #    45 UVELMASS
(PID.TID 0000.0001) SETDIAG: Allocate 15 x  1 Levels for Diagnostic #    46 VVELMASS
(PID.TID 0000.0001) SETDIAG: Allocate 15 x  1 Levels for Diagnostic #    32 WVEL
(PID.TID 0000.0001) SETDIAG: Allocate 15 x  1 Levels for Diagnostic #    26 THETA
(PID.TID 0000.0001) SETDIAG: Allocate 15 x  1 Levels for Diagnostic #    27 SALT
(PID.TID 0000.0001) SETDIAG: Allocate 15 x  1 Levels for Diagnostic #    38 WVELSQ
(PID.TID 0000.0001) SETDIAG: Allocate 15 x  1 Levels for Diagnostic #    62 RHOAnoma
(PID.TID 0000.0001) SETDIAG: Allocate 15 x  1 Levels for Diagnostic #    72 DRHODR
(PID.TID 0000.0001) SETDIAG: Allocate 15 x  1 Levels for Diagnostic #    73 CONVADJ
(PID.TID 0000.0001) SETDIAG: Allocate 15 x  1 Levels for Diagnostic #   181 GM_Kwx
(PID.TID 0000.0001) SETDIAG: Allocate 15 x  1 Levels for Diagnostic #   182 GM_Kwy
(PID.TID 0000.0001) SETDIAG: Allocate 15 x  1 Levels for Diagnostic #   183 GM_Kwz
(PID.TID 0000.0001)   space allocated for all diagnostics:     185 levels
(PID.TID 0000.0001)   set mate pointer for diag #    45  UVELMASS , Parms: UUr     MR , mate:    46
(PID.TID 0000.0001)   set mate pointer for diag #    46  VVELMASS , Parms: VVr     MR , mate:    45
(PID.TID 0000.0001)   set mate pointer for diag #   181  GM_Kwx   , Parms: UM      LR , mate:   182
(PID.TID 0000.0001)   set mate pointer for diag #   182  GM_Kwy   , Parms: VM      LR , mate:   181
(PID.TID 0000.0001) DIAGNOSTICS_SET_POINTERS: Set levels for Outp.Stream: surfDiag
(PID.TID 0000.0001)  Levels:       1.
(PID.TID 0000.0001) DIAGNOSTICS_SET_POINTERS: Set levels for Outp.Stream: dynDiag
(PID.TID 0000.0001)  Levels:       1.   2.   3.   4.   5.   6.   7.   8.   9.  10.  11.  12.  13.  14.  15.
(PID.TID 0000.0001) DIAGNOSTICS_SET_POINTERS: Set levels for Outp.Stream: oceDiag
(PID.TID 0000.0001)  Levels:       1.   2.   3.   4.   5.   6.   7.   8.   9.  10.  11.  12.  13.  14.  15.
(PID.TID 0000.0001) DIAGNOSTICS_SET_POINTERS: done
(PID.TID 0000.0001) ------------------------------------------------------------
(PID.TID 0000.0001) DIAGSTATS_SET_REGIONS: define no region
(PID.TID 0000.0001) ------------------------------------------------------------
(PID.TID 0000.0001) SETDIAG: Allocate  1 Levels for Stats-Diag #    23 ETAN
(PID.TID 0000.0001) SETDIAG: Allocate  1 Levels for Stats-Diag #    24 ETANSQ
(PID.TID 0000.0001) SETDIAG: Allocate  1 Levels for Stats-Diag #    25 DETADT2
(PID.TID 0000.0001) SETDIAG: Allocate 15 Levels for Stats-Diag #    30 UVEL
(PID.TID 0000.0001) SETDIAG: Allocate 15 Levels for Stats-Diag #    31 VVEL
(PID.TID 0000.0001) SETDIAG: Allocate 15 Levels for Stats-Diag #    32 WVEL
(PID.TID 0000.0001) SETDIAG: Allocate 15 Levels for Stats-Diag #    26 THETA
(PID.TID 0000.0001) SETDIAG: Allocate 15 Levels for Stats-Diag #    27 SALT
(PID.TID 0000.0001) SETDIAG: Allocate 15 Levels for Stats-Diag #    38 WVELSQ
(PID.TID 0000.0001) SETDIAG: Allocate 15 Levels for Stats-Diag #    62 RHOAnoma
(PID.TID 0000.0001) SETDIAG: Allocate 15 Levels for Stats-Diag #    72 DRHODR
(PID.TID 0000.0001) SETDIAG: Allocate 15 Levels for Stats-Diag #    73 CONVADJ
(PID.TID 0000.0001)   space allocated for all stats-diags:     138 levels
(PID.TID 0000.0001) DIAGSTATS_SET_POINTERS: done
(PID.TID 0000.0001) ------------------------------------------------------------
(PID.TID 0000.0001) %MON fCori_max                    =   1.4265546244797E-04
(PID.TID 0000.0001) %MON fCori_min                    =  -1.4265546244797E-04
(PID.TID 0000.0001) %MON fCori_mean                   =   4.7801269115805E-19
(PID.TID 0000.0001) %MON fCori_sd                     =   9.6599226301546E-05
(PID.TID 0000.0001) %MON fCoriG_max                   =   1.4151032568025E-04
(PID.TID 0000.0001) %MON fCoriG_min                   =  -1.4362679550910E-04
(PID.TID 0000.0001) %MON fCoriG_mean                  =  -3.5906698877273E-06
(PID.TID 0000.0001) %MON fCoriG_sd                    =   9.6548915696246E-05
(PID.TID 0000.0001) %MON fCoriCos_max                 =   1.4575362704741E-04
(PID.TID 0000.0001) %MON fCoriCos_min                 =   3.0322354601388E-05
(PID.TID 0000.0001) %MON fCoriCos_mean                =   1.0288600773633E-04
(PID.TID 0000.0001) %MON fCoriCos_sd                  =   3.6784304327266E-05
(PID.TID 0000.0001) INI_CG2D: CG2D normalisation factor =  6.5682677425711703E-05
(PID.TID 0000.0001) 
(PID.TID 0000.0001) // =======================================================
(PID.TID 0000.0001) // Model configuration
(PID.TID 0000.0001) // =======================================================
(PID.TID 0000.0001) //
(PID.TID 0000.0001) // "Physical" paramters ( PARM01 in namelist )
(PID.TID 0000.0001) //
(PID.TID 0000.0001) buoyancyRelation = /* Type of relation to get Buoyancy */
(PID.TID 0000.0001)               'OCEANIC'
(PID.TID 0000.0001)     ;
(PID.TID 0000.0001) fluidIsAir   =  /* fluid major constituent is Air */
(PID.TID 0000.0001)                   F
(PID.TID 0000.0001)     ;
(PID.TID 0000.0001) fluidIsWater =  /* fluid major constituent is Water */
(PID.TID 0000.0001)                   T
(PID.TID 0000.0001)     ;
(PID.TID 0000.0001) usingPCoords =  /* use p (or p*) vertical coordinate */
(PID.TID 0000.0001)                   F
(PID.TID 0000.0001)     ;
(PID.TID 0000.0001) usingZCoords =  /* use z (or z*) vertical coordinate */
(PID.TID 0000.0001)                   T
(PID.TID 0000.0001)     ;
(PID.TID 0000.0001) tRef =   /* Reference temperature profile ( oC or K ) */
(PID.TID 0000.0001)    15 @  2.000000000000000E+01              /* K =  1: 15 */
(PID.TID 0000.0001)     ;
(PID.TID 0000.0001) sRef =   /* Reference salinity profile ( psu ) */
(PID.TID 0000.0001)    15 @  3.500000000000000E+01              /* K =  1: 15 */
(PID.TID 0000.0001)     ;
(PID.TID 0000.0001) viscAh  =   /* Lateral eddy viscosity ( m^2/s ) */
(PID.TID 0000.0001)                 5.000000000000000E+05
(PID.TID 0000.0001)     ;
(PID.TID 0000.0001) viscAhMax = /* Maximum lateral eddy viscosity ( m^2/s ) */
(PID.TID 0000.0001)                 1.000000000000000E+21
(PID.TID 0000.0001)     ;
(PID.TID 0000.0001) viscAhGrid = /* Grid dependent lateral eddy viscosity ( non-dim. ) */
(PID.TID 0000.0001)                 0.000000000000000E+00
(PID.TID 0000.0001)     ;
(PID.TID 0000.0001) useFullLeith = /* Use Full Form of Leith Viscosity on/off flag*/
(PID.TID 0000.0001)                   F
(PID.TID 0000.0001)     ;
(PID.TID 0000.0001) useStrainTensionVisc= /* Use StrainTension Form of Viscous Operator flag*/
(PID.TID 0000.0001)                   F
(PID.TID 0000.0001)     ;
(PID.TID 0000.0001) useAreaViscLength = /* Use area for visc length instead of geom. mean*/
(PID.TID 0000.0001)                   F
(PID.TID 0000.0001)     ;
(PID.TID 0000.0001) viscC2leith = /* Leith harmonic visc. factor (on grad(vort),non-dim.) */
(PID.TID 0000.0001)                 0.000000000000000E+00
(PID.TID 0000.0001)     ;
(PID.TID 0000.0001) viscC2leithD = /* Leith harmonic viscosity factor (on grad(div),non-dim.)*/
(PID.TID 0000.0001)                 0.000000000000000E+00
(PID.TID 0000.0001)     ;
(PID.TID 0000.0001) viscC2smag = /* Smagorinsky harmonic viscosity factor (non-dim.) */
(PID.TID 0000.0001)                 0.000000000000000E+00
(PID.TID 0000.0001)     ;
(PID.TID 0000.0001) viscA4  =   /* Lateral biharmonic viscosity ( m^4/s ) */
(PID.TID 0000.0001)                 3.000000000000000E+14
(PID.TID 0000.0001)     ;
(PID.TID 0000.0001) viscA4Max = /* Maximum biharmonic viscosity ( m^2/s ) */
(PID.TID 0000.0001)                 1.000000000000000E+21
(PID.TID 0000.0001)     ;
(PID.TID 0000.0001) viscA4Grid = /* Grid dependent biharmonic viscosity ( non-dim. ) */
(PID.TID 0000.0001)                 0.000000000000000E+00
(PID.TID 0000.0001)     ;
(PID.TID 0000.0001) viscC4leith = /* Leith biharm viscosity factor (on grad(vort), non-dim.)*/
(PID.TID 0000.0001)                 0.000000000000000E+00
(PID.TID 0000.0001)     ;
(PID.TID 0000.0001) viscC4leithD = /* Leith biharm viscosity factor (on grad(div), non-dim.) */
(PID.TID 0000.0001)                 0.000000000000000E+00
(PID.TID 0000.0001)     ;
(PID.TID 0000.0001) viscC4Smag = /* Smagorinsky biharm viscosity factor (non-dim) */
(PID.TID 0000.0001)                 0.000000000000000E+00
(PID.TID 0000.0001)     ;
(PID.TID 0000.0001) no_slip_sides =  /* Viscous BCs: No-slip sides */
(PID.TID 0000.0001)                   T
(PID.TID 0000.0001)     ;
(PID.TID 0000.0001) sideDragFactor = /* side-drag scaling factor (non-dim) */
(PID.TID 0000.0001)                 2.000000000000000E+00
(PID.TID 0000.0001)     ;
(PID.TID 0000.0001) viscArNr = /* vertical profile of vertical viscosity ( m^2/s )*/
(PID.TID 0000.0001)    15 @  1.000000000000000E-03              /* K =  1: 15 */
(PID.TID 0000.0001)     ;
(PID.TID 0000.0001) no_slip_bottom =  /* Viscous BCs: No-slip bottom */
(PID.TID 0000.0001)                   T
(PID.TID 0000.0001)     ;
(PID.TID 0000.0001) bottomDragLinear = /* linear bottom-drag coefficient ( m/s ) */
(PID.TID 0000.0001)                 0.000000000000000E+00
(PID.TID 0000.0001)     ;
(PID.TID 0000.0001) bottomDragQuadratic = /* quadratic bottom-drag coefficient (-) */
(PID.TID 0000.0001)                 0.000000000000000E+00
(PID.TID 0000.0001)     ;
(PID.TID 0000.0001) diffKhT =   /* Laplacian diffusion of heat laterally ( m^2/s ) */
(PID.TID 0000.0001)                 0.000000000000000E+00
(PID.TID 0000.0001)     ;
(PID.TID 0000.0001) diffK4T =   /* Biharmonic diffusion of heat laterally ( m^4/s ) */
(PID.TID 0000.0001)                 0.000000000000000E+00
(PID.TID 0000.0001)     ;
(PID.TID 0000.0001) diffKhS =   /* Laplacian diffusion of salt laterally ( m^2/s ) */
(PID.TID 0000.0001)                 0.000000000000000E+00
(PID.TID 0000.0001)     ;
(PID.TID 0000.0001) diffK4S =   /* Biharmonic diffusion of salt laterally ( m^4/s ) */
(PID.TID 0000.0001)                 0.000000000000000E+00
(PID.TID 0000.0001)     ;
(PID.TID 0000.0001) diffKrNrT = /* vertical profile of vertical diffusion of Temp ( m^2/s )*/
(PID.TID 0000.0001)    15 @  3.000000000000000E-05              /* K =  1: 15 */
(PID.TID 0000.0001)     ;
(PID.TID 0000.0001) diffKrNrS = /* vertical profile of vertical diffusion of Salt ( m^2/s )*/
(PID.TID 0000.0001)    15 @  3.000000000000000E-05              /* K =  1: 15 */
(PID.TID 0000.0001)     ;
(PID.TID 0000.0001) diffKrBL79surf = /* Surface diffusion for Bryan and Lewis 79 ( m^2/s ) */
(PID.TID 0000.0001)                 0.000000000000000E+00
(PID.TID 0000.0001)     ;
(PID.TID 0000.0001) diffKrBL79deep = /* Deep diffusion for Bryan and Lewis 1979 ( m^2/s ) */
(PID.TID 0000.0001)                 0.000000000000000E+00
(PID.TID 0000.0001)     ;
(PID.TID 0000.0001) diffKrBL79scl = /* Depth scale for Bryan and Lewis 1979 ( m ) */
(PID.TID 0000.0001)                 2.000000000000000E+02
(PID.TID 0000.0001)     ;
(PID.TID 0000.0001) diffKrBL79Ho = /* Turning depth for Bryan and Lewis 1979 ( m ) */
(PID.TID 0000.0001)                -2.000000000000000E+03
(PID.TID 0000.0001)     ;
(PID.TID 0000.0001) ivdc_kappa = /* Implicit Vertical Diffusivity for Convection ( m^2/s) */
(PID.TID 0000.0001)                 1.000000000000000E+01
(PID.TID 0000.0001)     ;
(PID.TID 0000.0001) hMixCriteria=  /* Criteria for mixed-layer diagnostic */
(PID.TID 0000.0001)                -8.000000000000000E-01
(PID.TID 0000.0001)     ;
(PID.TID 0000.0001) dRhoSmall =  /* Parameter for mixed-layer diagnostic */
(PID.TID 0000.0001)                 1.000000000000000E-06
(PID.TID 0000.0001)     ;
(PID.TID 0000.0001) hMixSmooth=  /* Smoothing parameter for mixed-layer diagnostic */
(PID.TID 0000.0001)                 0.000000000000000E+00
(PID.TID 0000.0001)     ;
(PID.TID 0000.0001) eosType =  /* Type of Equation of State */
(PID.TID 0000.0001)               'JMD95P'
(PID.TID 0000.0001)     ;
(PID.TID 0000.0001) tAlpha =   /* Linear EOS thermal expansion coefficient ( 1/oC ) */
(PID.TID 0000.0001)                 1.234567000000000E+05
(PID.TID 0000.0001)     ;
(PID.TID 0000.0001) sBeta =   /* Linear EOS haline contraction coefficient ( 1/psu ) */
(PID.TID 0000.0001)                 1.234567000000000E+05
(PID.TID 0000.0001)     ;
(PID.TID 0000.0001) rhonil =   /* Reference density ( kg/m^3 ) */
(PID.TID 0000.0001)                 9.998000000000000E+02
(PID.TID 0000.0001)     ;
(PID.TID 0000.0001) rhoConst =   /* Reference density ( kg/m^3 ) */
(PID.TID 0000.0001)                 1.035000000000000E+03
(PID.TID 0000.0001)     ;
(PID.TID 0000.0001) rhoFacC = /* normalized Reference density @ cell-Center (-) */
(PID.TID 0000.0001)    15 @  1.000000000000000E+00              /* K =  1: 15 */
(PID.TID 0000.0001)     ;
(PID.TID 0000.0001) rhoFacF = /* normalized Reference density @ W-Interface (-) */
(PID.TID 0000.0001)    16 @  1.000000000000000E+00              /* K =  1: 16 */
(PID.TID 0000.0001)     ;
(PID.TID 0000.0001) rhoConstFresh =   /* Reference density ( kg/m^3 ) */
(PID.TID 0000.0001)                 1.000000000000000E+03
(PID.TID 0000.0001)     ;
(PID.TID 0000.0001) gravity =   /* Gravitational acceleration ( m/s^2 ) */
(PID.TID 0000.0001)                 9.810000000000000E+00
(PID.TID 0000.0001)     ;
(PID.TID 0000.0001) gBaro =   /* Barotropic gravity ( m/s^2 ) */
(PID.TID 0000.0001)                 9.810000000000000E+00
(PID.TID 0000.0001)     ;
(PID.TID 0000.0001) rotationPeriod =   /* Rotation Period ( s ) */
(PID.TID 0000.0001)                 8.616400000000000E+04
(PID.TID 0000.0001)     ;
(PID.TID 0000.0001) omega =   /* Angular velocity ( rad/s ) */
(PID.TID 0000.0001)                 7.292123516990375E-05
(PID.TID 0000.0001)     ;
(PID.TID 0000.0001) f0 =   /* Reference coriolis parameter ( 1/s ) */
(PID.TID 0000.0001)                 1.000000000000000E-04
(PID.TID 0000.0001)     ;
(PID.TID 0000.0001) beta =   /* Beta ( 1/(m.s) ) */
(PID.TID 0000.0001)                 9.999999999999999E-12
(PID.TID 0000.0001)     ;
(PID.TID 0000.0001) fPrime =   /* Second coriolis parameter ( 1/s ) */
(PID.TID 0000.0001)                 0.000000000000000E+00
(PID.TID 0000.0001)     ;
(PID.TID 0000.0001) rigidLid =   /* Rigid lid on/off flag */
(PID.TID 0000.0001)                   F
(PID.TID 0000.0001)     ;
(PID.TID 0000.0001) implicitFreeSurface =   /* Implicit free surface on/off flag */
(PID.TID 0000.0001)                   T
(PID.TID 0000.0001)     ;
(PID.TID 0000.0001) freeSurfFac =   /* Implicit free surface factor */
(PID.TID 0000.0001)                 1.000000000000000E+00
(PID.TID 0000.0001)     ;
(PID.TID 0000.0001) implicSurfPress =  /* Surface Pressure implicit factor (0-1)*/
(PID.TID 0000.0001)                 1.000000000000000E+00
(PID.TID 0000.0001)     ;
(PID.TID 0000.0001) implicDiv2Dflow =  /* Barot. Flow Div. implicit factor (0-1)*/
(PID.TID 0000.0001)                 1.000000000000000E+00
(PID.TID 0000.0001)     ;
(PID.TID 0000.0001) exactConserv =  /* Exact Volume Conservation on/off flag*/
(PID.TID 0000.0001)                   T
(PID.TID 0000.0001)     ;
(PID.TID 0000.0001) linFSConserveTr = /* Tracer correction for Lin Free Surface on/off flag*/
(PID.TID 0000.0001)                   F
(PID.TID 0000.0001)     ;
(PID.TID 0000.0001) uniformLin_PhiSurf = /* use uniform Bo_surf on/off flag*/
(PID.TID 0000.0001)                   T
(PID.TID 0000.0001)     ;
(PID.TID 0000.0001) hFacMin =   /* minimum partial cell factor (hFac) */
(PID.TID 0000.0001)                 5.000000000000000E-02
(PID.TID 0000.0001)     ;
(PID.TID 0000.0001) hFacMinDr = /* minimum partial cell thickness ( m) */
(PID.TID 0000.0001)                 5.000000000000000E-02
(PID.TID 0000.0001)     ;
(PID.TID 0000.0001) nonlinFreeSurf = /* Non-linear Free Surf. options (-1,0,1,2,3)*/
(PID.TID 0000.0001)                       4
(PID.TID 0000.0001)      -1,0= Off ; 1,2,3= On, 2=+rescale gU,gV, 3=+update cg2d solv.
(PID.TID 0000.0001)     ;
(PID.TID 0000.0001) hFacInf =   /* lower threshold for hFac (nonlinFreeSurf only)*/
(PID.TID 0000.0001)                 2.000000000000000E-01
(PID.TID 0000.0001)     ;
(PID.TID 0000.0001) hFacSup =   /* upper threshold for hFac (nonlinFreeSurf only)*/
(PID.TID 0000.0001)                 2.000000000000000E+00
(PID.TID 0000.0001)     ;
(PID.TID 0000.0001) select_rStar = /* r* Vertical coord. options (=0 r coord.; >0 uses r*)*/
(PID.TID 0000.0001)                       2
(PID.TID 0000.0001)     ;
(PID.TID 0000.0001) selectAddFluid = /* option for mass source/sink of fluid (=0: off) */
(PID.TID 0000.0001)                       0
(PID.TID 0000.0001)     ;
(PID.TID 0000.0001) useRealFreshWaterFlux = /* Real Fresh Water Flux on/off flag*/
(PID.TID 0000.0001)                   T
(PID.TID 0000.0001)     ;
(PID.TID 0000.0001) temp_EvPrRn = /* Temp. of Evap/Prec/R (UNSET=use local T)(oC)*/
(PID.TID 0000.0001)                 1.234567000000000E+05
(PID.TID 0000.0001)     ;
(PID.TID 0000.0001) salt_EvPrRn = /* Salin. of Evap/Prec/R (UNSET=use local S)(psu)*/
(PID.TID 0000.0001)                 0.000000000000000E+00
(PID.TID 0000.0001)     ;
(PID.TID 0000.0001) temp_addMass = /* Temp. of addMass array (UNSET=use local T)(oC)*/
(PID.TID 0000.0001)                 1.234567000000000E+05
(PID.TID 0000.0001)     ;
(PID.TID 0000.0001) salt_addMass = /* Salin. of addMass array (UNSET=use local S)(psu)*/
(PID.TID 0000.0001)                 0.000000000000000E+00
(PID.TID 0000.0001)     ;
(PID.TID 0000.0001) use3Dsolver = /* use 3-D pressure solver on/off flag */
(PID.TID 0000.0001)                   F
(PID.TID 0000.0001)     ;
(PID.TID 0000.0001) nonHydrostatic =  /* Non-Hydrostatic on/off flag */
(PID.TID 0000.0001)                   F
(PID.TID 0000.0001)     ;
(PID.TID 0000.0001) nh_Am2 = /* Non-Hydrostatic terms scaling factor */
(PID.TID 0000.0001)                 1.000000000000000E+00
(PID.TID 0000.0001)     ;
(PID.TID 0000.0001) implicitNHPress = /* Non-Hyd Pressure implicit factor (0-1)*/
(PID.TID 0000.0001)                 1.000000000000000E+00
(PID.TID 0000.0001)     ;
(PID.TID 0000.0001) selectNHfreeSurf = /* Non-Hyd (free-)Surface option */
(PID.TID 0000.0001)                       0
(PID.TID 0000.0001)     ;
(PID.TID 0000.0001) quasiHydrostatic = /* Quasi-Hydrostatic on/off flag */
(PID.TID 0000.0001)                   T
(PID.TID 0000.0001)     ;
(PID.TID 0000.0001) momStepping =  /* Momentum equation on/off flag */
(PID.TID 0000.0001)                   T
(PID.TID 0000.0001)     ;
(PID.TID 0000.0001) vectorInvariantMomentum= /* Vector-Invariant Momentum on/off */
(PID.TID 0000.0001)                   F
(PID.TID 0000.0001)     ;
(PID.TID 0000.0001) momAdvection =  /* Momentum advection on/off flag */
(PID.TID 0000.0001)                   T
(PID.TID 0000.0001)     ;
(PID.TID 0000.0001) momViscosity =  /* Momentum viscosity on/off flag */
(PID.TID 0000.0001)                   T
(PID.TID 0000.0001)     ;
(PID.TID 0000.0001) momImplVertAdv= /* Momentum implicit vert. advection on/off*/
(PID.TID 0000.0001)                   F
(PID.TID 0000.0001)     ;
(PID.TID 0000.0001) implicitViscosity = /* Implicit viscosity on/off flag */
(PID.TID 0000.0001)                   F
(PID.TID 0000.0001)     ;
(PID.TID 0000.0001) metricTerms =  /* metric-Terms on/off flag */
(PID.TID 0000.0001)                   T
(PID.TID 0000.0001)     ;
(PID.TID 0000.0001) useNHMTerms = /* Non-Hydrostatic Metric-Terms on/off */
(PID.TID 0000.0001)                   T
(PID.TID 0000.0001)     ;
(PID.TID 0000.0001) selectCoriMap = /* Coriolis Map options (0,1,2,3)*/
(PID.TID 0000.0001)                       2
(PID.TID 0000.0001)     0= f-Plane ; 1= Beta-Plane ; 2= Spherical ; 3= read from file
(PID.TID 0000.0001)     ;
(PID.TID 0000.0001) use3dCoriolis = /* 3-D Coriolis on/off flag */
(PID.TID 0000.0001)                   T
(PID.TID 0000.0001)     ;
(PID.TID 0000.0001) useCoriolis =  /* Coriolis on/off flag */
(PID.TID 0000.0001)                   T
(PID.TID 0000.0001)     ;
(PID.TID 0000.0001) useCDscheme =  /* CD scheme on/off flag */
(PID.TID 0000.0001)                   T
(PID.TID 0000.0001)     ;
(PID.TID 0000.0001) useJamartWetPoints= /* Coriolis WetPoints method flag */
(PID.TID 0000.0001)                   F
(PID.TID 0000.0001)     ;
(PID.TID 0000.0001) useJamartMomAdv= /* V.I. Non-linear terms Jamart flag */
(PID.TID 0000.0001)                   F
(PID.TID 0000.0001)     ;
(PID.TID 0000.0001) useAbsVorticity= /* Work with f+zeta in Coriolis */
(PID.TID 0000.0001)                   F
(PID.TID 0000.0001)     ;
(PID.TID 0000.0001) selectVortScheme= /* Scheme selector for Vorticity-Term */
(PID.TID 0000.0001)               123456789
(PID.TID 0000.0001)    = 0 : enstrophy (Shallow-Water Eq.) conserving scheme by Sadourny, JAS 75
(PID.TID 0000.0001)    = 1 : same as 0 with modified hFac
(PID.TID 0000.0001)    = 2 : energy conserving scheme (used by Sadourny in JAS 75 paper)
(PID.TID 0000.0001)    = 3 : energy (general) and enstrophy (2D, nonDiv.) conserving scheme
(PID.TID 0000.0001)          from Sadourny (Burridge & Haseler, ECMWF Rep.4, 1977)
(PID.TID 0000.0001)     ;
(PID.TID 0000.0001) upwindVorticity= /* Upwind bias vorticity flag */
(PID.TID 0000.0001)                   F
(PID.TID 0000.0001)     ;
(PID.TID 0000.0001) highOrderVorticity= /* High order interp. of vort. flag */
(PID.TID 0000.0001)                   F
(PID.TID 0000.0001)     ;
(PID.TID 0000.0001) upwindShear= /* Upwind vertical Shear advection flag */
(PID.TID 0000.0001)                   F
(PID.TID 0000.0001)     ;
(PID.TID 0000.0001) selectKEscheme= /* Kinetic Energy scheme selector */
(PID.TID 0000.0001)                       0
(PID.TID 0000.0001)     ;
(PID.TID 0000.0001) momForcing =  /* Momentum forcing on/off flag */
(PID.TID 0000.0001)                   T
(PID.TID 0000.0001)     ;
(PID.TID 0000.0001) momPressureForcing =  /* Momentum pressure term on/off flag */
(PID.TID 0000.0001)                   T
(PID.TID 0000.0001)     ;
(PID.TID 0000.0001) implicitIntGravWave= /* Implicit Internal Gravity Wave flag */
(PID.TID 0000.0001)                   F
(PID.TID 0000.0001)     ;
(PID.TID 0000.0001) staggerTimeStep =   /* Stagger time stepping on/off flag */
(PID.TID 0000.0001)                   F
(PID.TID 0000.0001)     ;
(PID.TID 0000.0001) multiDimAdvection =   /* enable/disable Multi-Dim Advection */
(PID.TID 0000.0001)                   T
(PID.TID 0000.0001)     ;
(PID.TID 0000.0001) useMultiDimAdvec =   /* Multi-Dim Advection is/is-not used */
(PID.TID 0000.0001)                   F
(PID.TID 0000.0001)     ;
(PID.TID 0000.0001) implicitDiffusion = /* Implicit Diffusion on/off flag */
(PID.TID 0000.0001)                   T
(PID.TID 0000.0001)     ;
(PID.TID 0000.0001) tempStepping =  /* Temperature equation on/off flag */
(PID.TID 0000.0001)                   T
(PID.TID 0000.0001)     ;
(PID.TID 0000.0001) tempAdvection=  /* Temperature advection on/off flag */
(PID.TID 0000.0001)                   T
(PID.TID 0000.0001)     ;
(PID.TID 0000.0001) tempImplVertAdv = /* Temp. implicit vert. advection on/off */
(PID.TID 0000.0001)                   F
(PID.TID 0000.0001)     ;
(PID.TID 0000.0001) tempForcing  =  /* Temperature forcing on/off flag */
(PID.TID 0000.0001)                   T
(PID.TID 0000.0001)     ;
(PID.TID 0000.0001) tempIsActiveTr = /* Temp. is a dynamically Active Tracer */
(PID.TID 0000.0001)                   T
(PID.TID 0000.0001)     ;
(PID.TID 0000.0001) saltStepping =  /* Salinity equation on/off flag */
(PID.TID 0000.0001)                   T
(PID.TID 0000.0001)     ;
(PID.TID 0000.0001) saltAdvection=  /* Salinity advection on/off flag */
(PID.TID 0000.0001)                   T
(PID.TID 0000.0001)     ;
(PID.TID 0000.0001) saltImplVertAdv = /* Sali. implicit vert. advection on/off */
(PID.TID 0000.0001)                   F
(PID.TID 0000.0001)     ;
(PID.TID 0000.0001) saltForcing  =  /* Salinity forcing on/off flag */
(PID.TID 0000.0001)                   T
(PID.TID 0000.0001)     ;
(PID.TID 0000.0001) saltIsActiveTr = /* Salt  is a dynamically Active Tracer */
(PID.TID 0000.0001)                   T
(PID.TID 0000.0001)     ;
(PID.TID 0000.0001)  readBinaryPrec = /* Precision used for reading binary files */
(PID.TID 0000.0001)                      32
(PID.TID 0000.0001)     ;
(PID.TID 0000.0001) writeBinaryPrec = /* Precision used for writing binary files */
(PID.TID 0000.0001)                      32
(PID.TID 0000.0001)     ;
(PID.TID 0000.0001)  globalFiles = /* write "global" (=not per tile) files */
(PID.TID 0000.0001)                   F
(PID.TID 0000.0001)     ;
(PID.TID 0000.0001)  useSingleCpuIO = /* only master MPI process does I/O */
(PID.TID 0000.0001)                   F
(PID.TID 0000.0001)     ;
(PID.TID 0000.0001)  debugMode  =  /* Debug Mode on/off flag */
(PID.TID 0000.0001)                   F
(PID.TID 0000.0001)     ;
(PID.TID 0000.0001)    debLevA  =  /* 1rst level of debugging */
(PID.TID 0000.0001)                       1
(PID.TID 0000.0001)     ;
(PID.TID 0000.0001)    debLevB  =  /* 2nd  level of debugging */
(PID.TID 0000.0001)                       2
(PID.TID 0000.0001)     ;
(PID.TID 0000.0001)  debugLevel =  /* select debugging level */
(PID.TID 0000.0001)                       1
(PID.TID 0000.0001)     ;
(PID.TID 0000.0001) //
(PID.TID 0000.0001) // Elliptic solver(s) paramters ( PARM02 in namelist )
(PID.TID 0000.0001) //
(PID.TID 0000.0001) cg2dMaxIters =   /* Upper limit on 2d con. grad iterations  */
(PID.TID 0000.0001)                     500
(PID.TID 0000.0001)     ;
(PID.TID 0000.0001) cg2dChkResFreq =   /* 2d con. grad convergence test frequency */
(PID.TID 0000.0001)                       1
(PID.TID 0000.0001)     ;
(PID.TID 0000.0001) cg2dTargetResidual =   /* 2d con. grad target residual  */
(PID.TID 0000.0001)                 1.000000000000000E-13
(PID.TID 0000.0001)     ;
(PID.TID 0000.0001) cg2dTargetResWunit =   /* CG2d target residual [W units] */
(PID.TID 0000.0001)                -1.000000000000000E+00
(PID.TID 0000.0001)     ;
(PID.TID 0000.0001) cg2dPreCondFreq =   /* Freq. for updating cg2d preconditioner */
(PID.TID 0000.0001)                       1
(PID.TID 0000.0001)     ;
(PID.TID 0000.0001) useSRCGSolver =  /* use single reduction CG solver(s) */
(PID.TID 0000.0001)                   F
(PID.TID 0000.0001)     ;
(PID.TID 0000.0001) //
(PID.TID 0000.0001) // Time stepping paramters ( PARM03 in namelist )
(PID.TID 0000.0001) //
(PID.TID 0000.0001) deltaTmom =   /* Momentum equation timestep ( s ) */
(PID.TID 0000.0001)                 1.800000000000000E+03
(PID.TID 0000.0001)     ;
(PID.TID 0000.0001) deltaTfreesurf = /* FreeSurface equation timestep ( s ) */
(PID.TID 0000.0001)                 8.640000000000000E+04
(PID.TID 0000.0001)     ;
(PID.TID 0000.0001) dTtracerLev =  /* Tracer equation timestep ( s ) */
(PID.TID 0000.0001)    15 @  8.640000000000000E+04              /* K =  1: 15 */
(PID.TID 0000.0001)     ;
(PID.TID 0000.0001) deltaTClock  =   /* Model clock timestep ( s ) */
(PID.TID 0000.0001)                 8.640000000000000E+04
(PID.TID 0000.0001)     ;
(PID.TID 0000.0001) cAdjFreq =   /* Convective adjustment interval ( s ) */
(PID.TID 0000.0001)                 0.000000000000000E+00
(PID.TID 0000.0001)     ;
(PID.TID 0000.0001) momForcingOutAB = /* =1: take Momentum Forcing out of Adams-Bash. stepping */
(PID.TID 0000.0001)                       0
(PID.TID 0000.0001)     ;
(PID.TID 0000.0001) tracForcingOutAB = /* =1: take T,S,pTr Forcing out of Adams-Bash. stepping */
(PID.TID 0000.0001)                       0
(PID.TID 0000.0001)     ;
(PID.TID 0000.0001) momDissip_In_AB = /* put Dissipation Tendency in Adams-Bash. stepping */
(PID.TID 0000.0001)                   T
(PID.TID 0000.0001)     ;
(PID.TID 0000.0001) doAB_onGtGs = /* apply AB on Tendencies (rather than on T,S)*/
(PID.TID 0000.0001)                   T
(PID.TID 0000.0001)     ;
(PID.TID 0000.0001) abEps =   /* Adams-Bashforth-2 stabilizing weight */
(PID.TID 0000.0001)                 1.000000000000000E-01
(PID.TID 0000.0001)     ;
(PID.TID 0000.0001) tauCD =   /* CD coupling time-scale ( s ) */
(PID.TID 0000.0001)                 3.214280000000000E+05
(PID.TID 0000.0001)     ;
(PID.TID 0000.0001) rCD =   /* Normalised CD coupling parameter */
(PID.TID 0000.0001)                 9.943999900444267E-01
(PID.TID 0000.0001)     ;
(PID.TID 0000.0001) epsAB_CD = /* AB-2 stabilizing weight for CD-scheme*/
(PID.TID 0000.0001)                 1.000000000000000E-01
(PID.TID 0000.0001)     ;
(PID.TID 0000.0001) pickupStrictlyMatch= /* stop if pickup do not strictly match */
(PID.TID 0000.0001)                   T
(PID.TID 0000.0001)     ;
(PID.TID 0000.0001) nIter0   =   /* Run starting timestep number */
(PID.TID 0000.0001)                   36000
(PID.TID 0000.0001)     ;
(PID.TID 0000.0001) nTimeSteps = /* Number of timesteps */
(PID.TID 0000.0001)                      10
(PID.TID 0000.0001)     ;
(PID.TID 0000.0001) nEndIter =   /* Run ending timestep number */
(PID.TID 0000.0001)                   36010
(PID.TID 0000.0001)     ;
(PID.TID 0000.0001) baseTime =   /* Model base time ( s ) */
(PID.TID 0000.0001)                 0.000000000000000E+00
(PID.TID 0000.0001)     ;
(PID.TID 0000.0001) startTime =  /* Run start time ( s ) */
(PID.TID 0000.0001)                 3.110400000000000E+09
(PID.TID 0000.0001)     ;
(PID.TID 0000.0001) endTime  =   /* Integration ending time ( s ) */
(PID.TID 0000.0001)                 3.111264000000000E+09
(PID.TID 0000.0001)     ;
(PID.TID 0000.0001) pChkPtFreq = /* Permanent restart/pickup file interval ( s ) */
(PID.TID 0000.0001)                 3.110400000000000E+08
(PID.TID 0000.0001)     ;
(PID.TID 0000.0001) chkPtFreq  = /* Rolling restart/pickup file interval ( s ) */
(PID.TID 0000.0001)                 0.000000000000000E+00
(PID.TID 0000.0001)     ;
(PID.TID 0000.0001) pickup_write_mdsio =   /* Model IO flag. */
(PID.TID 0000.0001)                   T
(PID.TID 0000.0001)     ;
(PID.TID 0000.0001) pickup_read_mdsio =   /* Model IO flag. */
(PID.TID 0000.0001)                   T
(PID.TID 0000.0001)     ;
(PID.TID 0000.0001) pickup_write_mnc =   /* Model IO flag. */
(PID.TID 0000.0001)                   F
(PID.TID 0000.0001)     ;
(PID.TID 0000.0001) pickup_read_mnc =   /* Model IO flag. */
(PID.TID 0000.0001)                   F
(PID.TID 0000.0001)     ;
(PID.TID 0000.0001) pickup_write_immed =   /* Model IO flag. */
(PID.TID 0000.0001)                   F
(PID.TID 0000.0001)     ;
(PID.TID 0000.0001) writePickupAtEnd =   /* Model IO flag. */
(PID.TID 0000.0001)                   T
(PID.TID 0000.0001)     ;
(PID.TID 0000.0001) dumpFreq =   /* Model state write out interval ( s ). */
(PID.TID 0000.0001)                 8.640000000000000E+05
(PID.TID 0000.0001)     ;
(PID.TID 0000.0001) dumpInitAndLast= /* write out Initial & Last iter. model state */
(PID.TID 0000.0001)                   T
(PID.TID 0000.0001)     ;
(PID.TID 0000.0001) snapshot_mdsio =   /* Model IO flag. */
(PID.TID 0000.0001)                   F
(PID.TID 0000.0001)     ;
(PID.TID 0000.0001) snapshot_mnc =   /* Model IO flag. */
(PID.TID 0000.0001)                   T
(PID.TID 0000.0001)     ;
(PID.TID 0000.0001) monitorFreq =   /* Monitor output interval ( s ). */
(PID.TID 0000.0001)                 1.000000000000000E+00
(PID.TID 0000.0001)     ;
(PID.TID 0000.0001) monitorSelect = /* select group of variables to monitor */
(PID.TID 0000.0001)                       3
(PID.TID 0000.0001)     ;
(PID.TID 0000.0001) monitor_stdio =   /* Model IO flag. */
(PID.TID 0000.0001)                   T
(PID.TID 0000.0001)     ;
(PID.TID 0000.0001) monitor_mnc =   /* Model IO flag. */
(PID.TID 0000.0001)                   F
(PID.TID 0000.0001)     ;
(PID.TID 0000.0001) externForcingPeriod =   /* forcing period (s) */
(PID.TID 0000.0001)                 2.592000000000000E+06
(PID.TID 0000.0001)     ;
(PID.TID 0000.0001) externForcingCycle =   /* period of the cyle (s). */
(PID.TID 0000.0001)                 3.110400000000000E+07
(PID.TID 0000.0001)     ;
(PID.TID 0000.0001) tauThetaClimRelax =   /* relaxation time scale (s) */
(PID.TID 0000.0001)                 5.184000000000000E+06
(PID.TID 0000.0001)     ;
(PID.TID 0000.0001) tauSaltClimRelax =   /* relaxation time scale (s) */
(PID.TID 0000.0001)                 1.555200000000000E+07
(PID.TID 0000.0001)     ;
(PID.TID 0000.0001) latBandClimRelax =   /* max. Lat. where relaxation */
(PID.TID 0000.0001)                 1.800000000000000E+02
(PID.TID 0000.0001)     ;
(PID.TID 0000.0001) //
(PID.TID 0000.0001) // Gridding paramters ( PARM04 in namelist )
(PID.TID 0000.0001) //
(PID.TID 0000.0001) usingCartesianGrid = /* Cartesian coordinates flag ( True/False ) */
(PID.TID 0000.0001)                   F
(PID.TID 0000.0001)     ;
(PID.TID 0000.0001) usingCylindricalGrid = /* Cylindrical coordinates flag ( True/False ) */
(PID.TID 0000.0001)                   F
(PID.TID 0000.0001)     ;
(PID.TID 0000.0001) usingSphericalPolarGrid = /* Spherical coordinates flag ( True/False ) */
(PID.TID 0000.0001)                   T
(PID.TID 0000.0001)     ;
(PID.TID 0000.0001) usingCurvilinearGrid = /* Curvilinear coordinates flag ( True/False ) */
(PID.TID 0000.0001)                   F
(PID.TID 0000.0001)     ;
(PID.TID 0000.0001) selectSigmaCoord = /* Hybrid-Sigma Vert. Coordinate option */
(PID.TID 0000.0001)                       0
(PID.TID 0000.0001)     ;
(PID.TID 0000.0001) Ro_SeaLevel = /* r(1) ( units of r ==  m ) */
(PID.TID 0000.0001)                 0.000000000000000E+00
(PID.TID 0000.0001)     ;
(PID.TID 0000.0001) rSigmaBnd = /* r/sigma transition ( units of r ==  m ) */
(PID.TID 0000.0001)                 1.234567000000000E+05
(PID.TID 0000.0001)     ;
(PID.TID 0000.0001) rkSign =   /* index orientation relative to vertical coordinate */
(PID.TID 0000.0001)                -1.000000000000000E+00
(PID.TID 0000.0001)     ;
(PID.TID 0000.0001) gravitySign = /* gravity orientation relative to vertical coordinate */
(PID.TID 0000.0001)                -1.000000000000000E+00
(PID.TID 0000.0001)     ;
(PID.TID 0000.0001) mass2rUnit = /* convert mass per unit area [kg/m2] to r-units [m] */
(PID.TID 0000.0001)                 9.661835748792270E-04
(PID.TID 0000.0001)     ;
(PID.TID 0000.0001) rUnit2mass = /* convert r-units [m] to mass per unit area [kg/m2] */
(PID.TID 0000.0001)                 1.035000000000000E+03
(PID.TID 0000.0001)     ;
(PID.TID 0000.0001) drC =   /* C spacing ( units of r ) */
(PID.TID 0000.0001)                 2.500000000000000E+01,      /* K =  1 */
(PID.TID 0000.0001)                 6.000000000000000E+01,      /* K =  2 */
(PID.TID 0000.0001)                 8.500000000000000E+01,      /* K =  3 */
(PID.TID 0000.0001)                 1.200000000000000E+02,      /* K =  4 */
(PID.TID 0000.0001)                 1.650000000000000E+02,      /* K =  5 */
(PID.TID 0000.0001)                 2.150000000000000E+02,      /* K =  6 */
(PID.TID 0000.0001)                 2.650000000000000E+02,      /* K =  7 */
(PID.TID 0000.0001)                 3.150000000000000E+02,      /* K =  8 */
(PID.TID 0000.0001)                 3.650000000000000E+02,      /* K =  9 */
(PID.TID 0000.0001)                 4.150000000000000E+02,      /* K = 10 */
(PID.TID 0000.0001)                 4.650000000000000E+02,      /* K = 11 */
(PID.TID 0000.0001)                 5.150000000000000E+02,      /* K = 12 */
(PID.TID 0000.0001)                 5.650000000000000E+02,      /* K = 13 */
(PID.TID 0000.0001)                 6.150000000000000E+02,      /* K = 14 */
(PID.TID 0000.0001)                 6.650000000000000E+02       /* K = 15 */
(PID.TID 0000.0001)     ;
(PID.TID 0000.0001) drF =   /* W spacing ( units of r ) */
(PID.TID 0000.0001)                 5.000000000000000E+01,      /* K =  1 */
(PID.TID 0000.0001)                 7.000000000000000E+01,      /* K =  2 */
(PID.TID 0000.0001)                 1.000000000000000E+02,      /* K =  3 */
(PID.TID 0000.0001)                 1.400000000000000E+02,      /* K =  4 */
(PID.TID 0000.0001)                 1.900000000000000E+02,      /* K =  5 */
(PID.TID 0000.0001)                 2.400000000000000E+02,      /* K =  6 */
(PID.TID 0000.0001)                 2.900000000000000E+02,      /* K =  7 */
(PID.TID 0000.0001)                 3.400000000000000E+02,      /* K =  8 */
(PID.TID 0000.0001)                 3.900000000000000E+02,      /* K =  9 */
(PID.TID 0000.0001)                 4.400000000000000E+02,      /* K = 10 */
(PID.TID 0000.0001)                 4.900000000000000E+02,      /* K = 11 */
(PID.TID 0000.0001)                 5.400000000000000E+02,      /* K = 12 */
(PID.TID 0000.0001)                 5.900000000000000E+02,      /* K = 13 */
(PID.TID 0000.0001)                 6.400000000000000E+02,      /* K = 14 */
(PID.TID 0000.0001)                 6.900000000000000E+02       /* K = 15 */
(PID.TID 0000.0001)     ;
(PID.TID 0000.0001) delX = /* U spacing ( m - cartesian, degrees - spherical ) */
(PID.TID 0000.0001)    90 @  4.000000000000000E+00              /* I =  1: 90 */
(PID.TID 0000.0001)     ;
(PID.TID 0000.0001) delY = /* V spacing ( m - cartesian, degrees - spherical ) */
(PID.TID 0000.0001)    40 @  4.000000000000000E+00              /* J =  1: 40 */
(PID.TID 0000.0001)     ;
(PID.TID 0000.0001) xgOrigin = /* X-axis origin of West  edge (cartesian: m, lat-lon: deg.) */
(PID.TID 0000.0001)                 0.000000000000000E+00
(PID.TID 0000.0001)     ;
(PID.TID 0000.0001) ygOrigin = /* Y-axis origin of South edge (cartesian: m, lat-lon: deg.) */
(PID.TID 0000.0001)                -8.000000000000000E+01
(PID.TID 0000.0001)     ;
(PID.TID 0000.0001) rSphere =  /* Radius ( ignored - cartesian, m - spherical ) */
(PID.TID 0000.0001)                 6.370000000000000E+06
(PID.TID 0000.0001)     ;
(PID.TID 0000.0001) deepAtmosphere = /* Deep/Shallow Atmosphere flag (True/False) */
(PID.TID 0000.0001)                   F
(PID.TID 0000.0001)     ;
(PID.TID 0000.0001) xC =  /* xC(:,1,:,1) : P-point X coord ( deg. or m if cartesian) */
(PID.TID 0000.0001)                 2.000000000000000E+00,      /* I =  1 */
(PID.TID 0000.0001)                 6.000000000000000E+00,      /* I =  2 */
(PID.TID 0000.0001)                 1.000000000000000E+01,      /* I =  3 */
(PID.TID 0000.0001)      . . .
(PID.TID 0000.0001)                 8.200000000000000E+01,      /* I = 21 */
(PID.TID 0000.0001)                 8.600000000000000E+01,      /* I = 22 */
(PID.TID 0000.0001)                 9.000000000000000E+01,      /* I = 23 */
(PID.TID 0000.0001)                 9.400000000000000E+01,      /* I = 24 */
(PID.TID 0000.0001)                 9.800000000000000E+01,      /* I = 25 */
(PID.TID 0000.0001)                 1.020000000000000E+02,      /* I = 26 */
(PID.TID 0000.0001)      . . .
(PID.TID 0000.0001)                 1.700000000000000E+02,      /* I = 43 */
(PID.TID 0000.0001)                 1.740000000000000E+02,      /* I = 44 */
(PID.TID 0000.0001)                 1.780000000000000E+02,      /* I = 45 */
(PID.TID 0000.0001)                 1.820000000000000E+02,      /* I = 46 */
(PID.TID 0000.0001)                 1.860000000000000E+02,      /* I = 47 */
(PID.TID 0000.0001)                 1.900000000000000E+02,      /* I = 48 */
(PID.TID 0000.0001)      . . .
(PID.TID 0000.0001)                 2.580000000000000E+02,      /* I = 65 */
(PID.TID 0000.0001)                 2.620000000000000E+02,      /* I = 66 */
(PID.TID 0000.0001)                 2.660000000000000E+02,      /* I = 67 */
(PID.TID 0000.0001)                 2.700000000000000E+02,      /* I = 68 */
(PID.TID 0000.0001)                 2.740000000000000E+02,      /* I = 69 */
(PID.TID 0000.0001)                 2.780000000000000E+02,      /* I = 70 */
(PID.TID 0000.0001)      . . .
(PID.TID 0000.0001)                 3.500000000000000E+02,      /* I = 88 */
(PID.TID 0000.0001)                 3.540000000000000E+02,      /* I = 89 */
(PID.TID 0000.0001)                 3.580000000000000E+02       /* I = 90 */
(PID.TID 0000.0001)     ;
(PID.TID 0000.0001) yC =  /* yC(1,:,1,:) : P-point Y coord ( deg. or m if cartesian) */
(PID.TID 0000.0001)                -7.800000000000000E+01,      /* J =  1 */
(PID.TID 0000.0001)                -7.400000000000000E+01,      /* J =  2 */
(PID.TID 0000.0001)                -7.000000000000000E+01,      /* J =  3 */
(PID.TID 0000.0001)                -6.600000000000000E+01,      /* J =  4 */
(PID.TID 0000.0001)                -6.200000000000000E+01,      /* J =  5 */
(PID.TID 0000.0001)                -5.800000000000000E+01,      /* J =  6 */
(PID.TID 0000.0001)                -5.400000000000000E+01,      /* J =  7 */
(PID.TID 0000.0001)                -5.000000000000000E+01,      /* J =  8 */
(PID.TID 0000.0001)                -4.600000000000000E+01,      /* J =  9 */
(PID.TID 0000.0001)                -4.200000000000000E+01,      /* J = 10 */
(PID.TID 0000.0001)                -3.800000000000000E+01,      /* J = 11 */
(PID.TID 0000.0001)                -3.400000000000000E+01,      /* J = 12 */
(PID.TID 0000.0001)                -3.000000000000000E+01,      /* J = 13 */
(PID.TID 0000.0001)                -2.600000000000000E+01,      /* J = 14 */
(PID.TID 0000.0001)                -2.200000000000000E+01,      /* J = 15 */
(PID.TID 0000.0001)                -1.800000000000000E+01,      /* J = 16 */
(PID.TID 0000.0001)                -1.400000000000000E+01,      /* J = 17 */
(PID.TID 0000.0001)                -1.000000000000000E+01,      /* J = 18 */
(PID.TID 0000.0001)                -6.000000000000000E+00,      /* J = 19 */
(PID.TID 0000.0001)                -2.000000000000000E+00,      /* J = 20 */
(PID.TID 0000.0001)                 2.000000000000000E+00,      /* J = 21 */
(PID.TID 0000.0001)                 6.000000000000000E+00,      /* J = 22 */
(PID.TID 0000.0001)                 1.000000000000000E+01,      /* J = 23 */
(PID.TID 0000.0001)                 1.400000000000000E+01,      /* J = 24 */
(PID.TID 0000.0001)                 1.800000000000000E+01,      /* J = 25 */
(PID.TID 0000.0001)                 2.200000000000000E+01,      /* J = 26 */
(PID.TID 0000.0001)                 2.600000000000000E+01,      /* J = 27 */
(PID.TID 0000.0001)                 3.000000000000000E+01,      /* J = 28 */
(PID.TID 0000.0001)                 3.400000000000000E+01,      /* J = 29 */
(PID.TID 0000.0001)                 3.800000000000000E+01,      /* J = 30 */
(PID.TID 0000.0001)                 4.200000000000000E+01,      /* J = 31 */
(PID.TID 0000.0001)                 4.600000000000000E+01,      /* J = 32 */
(PID.TID 0000.0001)                 5.000000000000000E+01,      /* J = 33 */
(PID.TID 0000.0001)                 5.400000000000000E+01,      /* J = 34 */
(PID.TID 0000.0001)                 5.800000000000000E+01,      /* J = 35 */
(PID.TID 0000.0001)                 6.200000000000000E+01,      /* J = 36 */
(PID.TID 0000.0001)                 6.600000000000000E+01,      /* J = 37 */
(PID.TID 0000.0001)                 7.000000000000000E+01,      /* J = 38 */
(PID.TID 0000.0001)                 7.400000000000000E+01,      /* J = 39 */
(PID.TID 0000.0001)                 7.800000000000000E+01       /* J = 40 */
(PID.TID 0000.0001)     ;
(PID.TID 0000.0001) rcoord = /* P-point R coordinate (  units of r ) */
(PID.TID 0000.0001)                -2.500000000000000E+01,      /* K =  1 */
(PID.TID 0000.0001)                -8.500000000000000E+01,      /* K =  2 */
(PID.TID 0000.0001)                -1.700000000000000E+02,      /* K =  3 */
(PID.TID 0000.0001)                -2.900000000000000E+02,      /* K =  4 */
(PID.TID 0000.0001)                -4.550000000000000E+02,      /* K =  5 */
(PID.TID 0000.0001)                -6.700000000000000E+02,      /* K =  6 */
(PID.TID 0000.0001)                -9.350000000000000E+02,      /* K =  7 */
(PID.TID 0000.0001)                -1.250000000000000E+03,      /* K =  8 */
(PID.TID 0000.0001)                -1.615000000000000E+03,      /* K =  9 */
(PID.TID 0000.0001)                -2.030000000000000E+03,      /* K = 10 */
(PID.TID 0000.0001)                -2.495000000000000E+03,      /* K = 11 */
(PID.TID 0000.0001)                -3.010000000000000E+03,      /* K = 12 */
(PID.TID 0000.0001)                -3.575000000000000E+03,      /* K = 13 */
(PID.TID 0000.0001)                -4.190000000000000E+03,      /* K = 14 */
(PID.TID 0000.0001)                -4.855000000000000E+03       /* K = 15 */
(PID.TID 0000.0001)     ;
(PID.TID 0000.0001) rF =   /* W-Interf. R coordinate (  units of r ) */
(PID.TID 0000.0001)                 0.000000000000000E+00,      /* K =  1 */
(PID.TID 0000.0001)                -5.000000000000000E+01,      /* K =  2 */
(PID.TID 0000.0001)                -1.200000000000000E+02,      /* K =  3 */
(PID.TID 0000.0001)                -2.200000000000000E+02,      /* K =  4 */
(PID.TID 0000.0001)                -3.600000000000000E+02,      /* K =  5 */
(PID.TID 0000.0001)                -5.500000000000000E+02,      /* K =  6 */
(PID.TID 0000.0001)                -7.900000000000000E+02,      /* K =  7 */
(PID.TID 0000.0001)                -1.080000000000000E+03,      /* K =  8 */
(PID.TID 0000.0001)                -1.420000000000000E+03,      /* K =  9 */
(PID.TID 0000.0001)                -1.810000000000000E+03,      /* K = 10 */
(PID.TID 0000.0001)                -2.250000000000000E+03,      /* K = 11 */
(PID.TID 0000.0001)                -2.740000000000000E+03,      /* K = 12 */
(PID.TID 0000.0001)                -3.280000000000000E+03,      /* K = 13 */
(PID.TID 0000.0001)                -3.870000000000000E+03,      /* K = 14 */
(PID.TID 0000.0001)                -4.510000000000000E+03,      /* K = 15 */
(PID.TID 0000.0001)                -5.200000000000000E+03       /* K = 16 */
(PID.TID 0000.0001)     ;
(PID.TID 0000.0001) deepFacC = /* deep-model grid factor @ cell-Center (-) */
(PID.TID 0000.0001)    15 @  1.000000000000000E+00              /* K =  1: 15 */
(PID.TID 0000.0001)     ;
(PID.TID 0000.0001) deepFacF = /* deep-model grid factor @ W-Interface (-) */
(PID.TID 0000.0001)    16 @  1.000000000000000E+00              /* K =  1: 16 */
(PID.TID 0000.0001)     ;
(PID.TID 0000.0001) rVel2wUnit = /* convert units: rVel -> wSpeed (=1 if z-coord)*/
(PID.TID 0000.0001)    16 @  1.000000000000000E+00              /* K =  1: 16 */
(PID.TID 0000.0001)     ;
(PID.TID 0000.0001) wUnit2rVel = /* convert units: wSpeed -> rVel (=1 if z-coord)*/
(PID.TID 0000.0001)    16 @  1.000000000000000E+00              /* K =  1: 16 */
(PID.TID 0000.0001)     ;
(PID.TID 0000.0001) dBdrRef = /* Vertical grad. of reference buoyancy [(m/s/r)^2] */
(PID.TID 0000.0001)    15 @  0.000000000000000E+00              /* K =  1: 15 */
(PID.TID 0000.0001)     ;
(PID.TID 0000.0001) rotateGrid = /* use rotated grid ( True/False ) */
(PID.TID 0000.0001)                   F
(PID.TID 0000.0001)     ;
(PID.TID 0000.0001) phiEuler = /* Euler angle, rotation about original z-coordinate [rad] */
(PID.TID 0000.0001)                 0.000000000000000E+00
(PID.TID 0000.0001)     ;
(PID.TID 0000.0001) thetaEuler = /* Euler angle, rotation about new x-coordinate [rad] */
(PID.TID 0000.0001)                 0.000000000000000E+00
(PID.TID 0000.0001)     ;
(PID.TID 0000.0001) psiEuler = /* Euler angle, rotation about new z-coordinate [rad] */
(PID.TID 0000.0001)                 0.000000000000000E+00
(PID.TID 0000.0001)     ;
(PID.TID 0000.0001) dxF =  /* dxF(:,1,:,1) ( units: m ) */
(PID.TID 0000.0001)    90 @  9.246038586187513E+04              /* I =  1: 90 */
(PID.TID 0000.0001)     ;
(PID.TID 0000.0001) dxF =  /* dxF(1,:,1,:) ( units: m ) */
(PID.TID 0000.0001)                 9.246038586187513E+04,      /* J =  1 */
(PID.TID 0000.0001)                 1.225786591246834E+05,      /* J =  2 */
(PID.TID 0000.0001)                 1.520997414818001E+05,      /* J =  3 */
(PID.TID 0000.0001)                 1.808798091874300E+05,      /* J =  4 */
(PID.TID 0000.0001)                 2.087786486446736E+05,      /* J =  5 */
(PID.TID 0000.0001)                 2.356603395120765E+05,      /* J =  6 */
(PID.TID 0000.0001)                 2.613939168938713E+05,      /* J =  7 */
(PID.TID 0000.0001)                 2.858540093877838E+05,      /* J =  8 */
(PID.TID 0000.0001)                 3.089214498819034E+05,      /* J =  9 */
(PID.TID 0000.0001)                 3.304838561248741E+05,      /* J = 10 */
(PID.TID 0000.0001)                 3.504361782409254E+05,      /* J = 11 */
(PID.TID 0000.0001)                 3.686812105223082E+05,      /* J = 12 */
(PID.TID 0000.0001)                 3.851300650057323E+05,      /* J = 13 */
(PID.TID 0000.0001)                 3.997026045255871E+05,      /* J = 14 */
(PID.TID 0000.0001)                 4.123278331341585E+05,      /* J = 15 */
(PID.TID 0000.0001)                 4.229442419867491E+05,      /* J = 16 */
(PID.TID 0000.0001)                 4.315001090065870E+05,      /* J = 17 */
(PID.TID 0000.0001)                 4.379537508695838E+05,      /* J = 18 */
(PID.TID 0000.0001)                 4.422737260813012E+05,      /* J = 19 */
(PID.TID 0000.0001)     2 @  4.444389881567502E+05,             /* J = 20: 21 */
(PID.TID 0000.0001)                 4.422737260813012E+05,      /* J = 22 */
(PID.TID 0000.0001)                 4.379537508695838E+05,      /* J = 23 */
(PID.TID 0000.0001)                 4.315001090065870E+05,      /* J = 24 */
(PID.TID 0000.0001)                 4.229442419867491E+05,      /* J = 25 */
(PID.TID 0000.0001)                 4.123278331341585E+05,      /* J = 26 */
(PID.TID 0000.0001)                 3.997026045255871E+05,      /* J = 27 */
(PID.TID 0000.0001)                 3.851300650057323E+05,      /* J = 28 */
(PID.TID 0000.0001)                 3.686812105223082E+05,      /* J = 29 */
(PID.TID 0000.0001)                 3.504361782409254E+05,      /* J = 30 */
(PID.TID 0000.0001)                 3.304838561248741E+05,      /* J = 31 */
(PID.TID 0000.0001)                 3.089214498819034E+05,      /* J = 32 */
(PID.TID 0000.0001)                 2.858540093877838E+05,      /* J = 33 */
(PID.TID 0000.0001)                 2.613939168938713E+05,      /* J = 34 */
(PID.TID 0000.0001)                 2.356603395120765E+05,      /* J = 35 */
(PID.TID 0000.0001)                 2.087786486446736E+05,      /* J = 36 */
(PID.TID 0000.0001)                 1.808798091874300E+05,      /* J = 37 */
(PID.TID 0000.0001)                 1.520997414818001E+05,      /* J = 38 */
(PID.TID 0000.0001)                 1.225786591246834E+05,      /* J = 39 */
(PID.TID 0000.0001)                 9.246038586187513E+04       /* J = 40 */
(PID.TID 0000.0001)     ;
(PID.TID 0000.0001) dyF =  /* dyF(:,1,:,1) ( units: m ) */
(PID.TID 0000.0001)    90 @  4.447098934081552E+05              /* I =  1: 90 */
(PID.TID 0000.0001)     ;
(PID.TID 0000.0001) dyF =  /* dyF(1,:,1,:) ( units: m ) */
(PID.TID 0000.0001)    40 @  4.447098934081552E+05              /* J =  1: 40 */
(PID.TID 0000.0001)     ;
(PID.TID 0000.0001) dxG =  /* dxG(:,1,:,1) ( units: m ) */
(PID.TID 0000.0001)    90 @  7.722306258078101E+04              /* I =  1: 90 */
(PID.TID 0000.0001)     ;
(PID.TID 0000.0001) dxG =  /* dxG(1,:,1,:) ( units: m ) */
(PID.TID 0000.0001)                 7.722306258078101E+04,      /* J =  1 */
(PID.TID 0000.0001)                 1.075850604052271E+05,      /* J =  2 */
(PID.TID 0000.0001)                 1.374229146297914E+05,      /* J =  3 */
(PID.TID 0000.0001)                 1.665912582279823E+05,      /* J =  4 */
(PID.TID 0000.0001)                 1.949479859617814E+05,      /* J =  5 */
(PID.TID 0000.0001)                 2.223549467040777E+05,      /* J =  6 */
(PID.TID 0000.0001)                 2.486786164970726E+05,      /* J =  7 */
(PID.TID 0000.0001)                 2.737907490675810E+05,      /* J =  8 */
(PID.TID 0000.0001)                 2.975690006299821E+05,      /* J =  9 */
(PID.TID 0000.0001)                 3.198975259328452E+05,      /* J = 10 */
(PID.TID 0000.0001)                 3.406675426453503E+05,      /* J = 11 */
(PID.TID 0000.0001)                 3.597778613338690E+05,      /* J = 12 */
(PID.TID 0000.0001)                 3.771353784467131E+05,      /* J = 13 */
(PID.TID 0000.0001)                 3.926555299052806E+05,      /* J = 14 */
(PID.TID 0000.0001)                 4.062627030917454E+05,      /* J = 15 */
(PID.TID 0000.0001)                 4.178906052261313E+05,      /* J = 16 */
(PID.TID 0000.0001)                 4.274825863380723E+05,      /* J = 17 */
(PID.TID 0000.0001)                 4.349919152597734E+05,      /* J = 18 */
(PID.TID 0000.0001)                 4.403820072955634E+05,      /* J = 19 */
(PID.TID 0000.0001)                 4.436266024588540E+05,      /* J = 20 */
(PID.TID 0000.0001)                 4.447098934081552E+05,      /* J = 21 */
(PID.TID 0000.0001)                 4.436266024588540E+05,      /* J = 22 */
(PID.TID 0000.0001)                 4.403820072955634E+05,      /* J = 23 */
(PID.TID 0000.0001)                 4.349919152597734E+05,      /* J = 24 */
(PID.TID 0000.0001)                 4.274825863380723E+05,      /* J = 25 */
(PID.TID 0000.0001)                 4.178906052261313E+05,      /* J = 26 */
(PID.TID 0000.0001)                 4.062627030917454E+05,      /* J = 27 */
(PID.TID 0000.0001)                 3.926555299052806E+05,      /* J = 28 */
(PID.TID 0000.0001)                 3.771353784467131E+05,      /* J = 29 */
(PID.TID 0000.0001)                 3.597778613338690E+05,      /* J = 30 */
(PID.TID 0000.0001)                 3.406675426453503E+05,      /* J = 31 */
(PID.TID 0000.0001)                 3.198975259328452E+05,      /* J = 32 */
(PID.TID 0000.0001)                 2.975690006299821E+05,      /* J = 33 */
(PID.TID 0000.0001)                 2.737907490675810E+05,      /* J = 34 */
(PID.TID 0000.0001)                 2.486786164970726E+05,      /* J = 35 */
(PID.TID 0000.0001)                 2.223549467040777E+05,      /* J = 36 */
(PID.TID 0000.0001)                 1.949479859617814E+05,      /* J = 37 */
(PID.TID 0000.0001)                 1.665912582279823E+05,      /* J = 38 */
(PID.TID 0000.0001)                 1.374229146297914E+05,      /* J = 39 */
(PID.TID 0000.0001)                 1.075850604052271E+05       /* J = 40 */
(PID.TID 0000.0001)     ;
(PID.TID 0000.0001) dyG =  /* dyG(:,1,:,1) ( units: m ) */
(PID.TID 0000.0001)    90 @  4.447098934081552E+05              /* I =  1: 90 */
(PID.TID 0000.0001)     ;
(PID.TID 0000.0001) dyG =  /* dyG(1,:,1,:) ( units: m ) */
(PID.TID 0000.0001)    40 @  4.447098934081552E+05              /* J =  1: 40 */
(PID.TID 0000.0001)     ;
(PID.TID 0000.0001) dxC =  /* dxC(:,1,:,1) ( units: m ) */
(PID.TID 0000.0001)    90 @  9.246038586187513E+04              /* I =  1: 90 */
(PID.TID 0000.0001)     ;
(PID.TID 0000.0001) dxC =  /* dxC(1,:,1,:) ( units: m ) */
(PID.TID 0000.0001)                 9.246038586187513E+04,      /* J =  1 */
(PID.TID 0000.0001)                 1.225786591246834E+05,      /* J =  2 */
(PID.TID 0000.0001)                 1.520997414818001E+05,      /* J =  3 */
(PID.TID 0000.0001)                 1.808798091874300E+05,      /* J =  4 */
(PID.TID 0000.0001)                 2.087786486446736E+05,      /* J =  5 */
(PID.TID 0000.0001)                 2.356603395120765E+05,      /* J =  6 */
(PID.TID 0000.0001)                 2.613939168938713E+05,      /* J =  7 */
(PID.TID 0000.0001)                 2.858540093877838E+05,      /* J =  8 */
(PID.TID 0000.0001)                 3.089214498819034E+05,      /* J =  9 */
(PID.TID 0000.0001)                 3.304838561248741E+05,      /* J = 10 */
(PID.TID 0000.0001)                 3.504361782409254E+05,      /* J = 11 */
(PID.TID 0000.0001)                 3.686812105223082E+05,      /* J = 12 */
(PID.TID 0000.0001)                 3.851300650057323E+05,      /* J = 13 */
(PID.TID 0000.0001)                 3.997026045255871E+05,      /* J = 14 */
(PID.TID 0000.0001)                 4.123278331341585E+05,      /* J = 15 */
(PID.TID 0000.0001)                 4.229442419867491E+05,      /* J = 16 */
(PID.TID 0000.0001)                 4.315001090065870E+05,      /* J = 17 */
(PID.TID 0000.0001)                 4.379537508695838E+05,      /* J = 18 */
(PID.TID 0000.0001)                 4.422737260813012E+05,      /* J = 19 */
(PID.TID 0000.0001)     2 @  4.444389881567502E+05,             /* J = 20: 21 */
(PID.TID 0000.0001)                 4.422737260813012E+05,      /* J = 22 */
(PID.TID 0000.0001)                 4.379537508695838E+05,      /* J = 23 */
(PID.TID 0000.0001)                 4.315001090065870E+05,      /* J = 24 */
(PID.TID 0000.0001)                 4.229442419867491E+05,      /* J = 25 */
(PID.TID 0000.0001)                 4.123278331341585E+05,      /* J = 26 */
(PID.TID 0000.0001)                 3.997026045255871E+05,      /* J = 27 */
(PID.TID 0000.0001)                 3.851300650057323E+05,      /* J = 28 */
(PID.TID 0000.0001)                 3.686812105223082E+05,      /* J = 29 */
(PID.TID 0000.0001)                 3.504361782409254E+05,      /* J = 30 */
(PID.TID 0000.0001)                 3.304838561248741E+05,      /* J = 31 */
(PID.TID 0000.0001)                 3.089214498819034E+05,      /* J = 32 */
(PID.TID 0000.0001)                 2.858540093877838E+05,      /* J = 33 */
(PID.TID 0000.0001)                 2.613939168938713E+05,      /* J = 34 */
(PID.TID 0000.0001)                 2.356603395120765E+05,      /* J = 35 */
(PID.TID 0000.0001)                 2.087786486446736E+05,      /* J = 36 */
(PID.TID 0000.0001)                 1.808798091874300E+05,      /* J = 37 */
(PID.TID 0000.0001)                 1.520997414818001E+05,      /* J = 38 */
(PID.TID 0000.0001)                 1.225786591246834E+05,      /* J = 39 */
(PID.TID 0000.0001)                 9.246038586187513E+04       /* J = 40 */
(PID.TID 0000.0001)     ;
(PID.TID 0000.0001) dyC =  /* dyC(:,1,:,1) ( units: m ) */
(PID.TID 0000.0001)    90 @  4.447098934081552E+05              /* I =  1: 90 */
(PID.TID 0000.0001)     ;
(PID.TID 0000.0001) dyC =  /* dyC(1,:,1,:) ( units: m ) */
(PID.TID 0000.0001)    40 @  4.447098934081552E+05              /* J =  1: 40 */
(PID.TID 0000.0001)     ;
(PID.TID 0000.0001) dxV =  /* dxV(:,1,:,1) ( units: m ) */
(PID.TID 0000.0001)    90 @  7.722306258078101E+04              /* I =  1: 90 */
(PID.TID 0000.0001)     ;
(PID.TID 0000.0001) dxV =  /* dxV(1,:,1,:) ( units: m ) */
(PID.TID 0000.0001)                 7.722306258078101E+04,      /* J =  1 */
(PID.TID 0000.0001)                 1.075850604052271E+05,      /* J =  2 */
(PID.TID 0000.0001)                 1.374229146297914E+05,      /* J =  3 */
(PID.TID 0000.0001)                 1.665912582279823E+05,      /* J =  4 */
(PID.TID 0000.0001)                 1.949479859617814E+05,      /* J =  5 */
(PID.TID 0000.0001)                 2.223549467040777E+05,      /* J =  6 */
(PID.TID 0000.0001)                 2.486786164970726E+05,      /* J =  7 */
(PID.TID 0000.0001)                 2.737907490675810E+05,      /* J =  8 */
(PID.TID 0000.0001)                 2.975690006299821E+05,      /* J =  9 */
(PID.TID 0000.0001)                 3.198975259328452E+05,      /* J = 10 */
(PID.TID 0000.0001)                 3.406675426453503E+05,      /* J = 11 */
(PID.TID 0000.0001)                 3.597778613338690E+05,      /* J = 12 */
(PID.TID 0000.0001)                 3.771353784467131E+05,      /* J = 13 */
(PID.TID 0000.0001)                 3.926555299052806E+05,      /* J = 14 */
(PID.TID 0000.0001)                 4.062627030917454E+05,      /* J = 15 */
(PID.TID 0000.0001)                 4.178906052261313E+05,      /* J = 16 */
(PID.TID 0000.0001)                 4.274825863380723E+05,      /* J = 17 */
(PID.TID 0000.0001)                 4.349919152597734E+05,      /* J = 18 */
(PID.TID 0000.0001)                 4.403820072955634E+05,      /* J = 19 */
(PID.TID 0000.0001)                 4.436266024588540E+05,      /* J = 20 */
(PID.TID 0000.0001)                 4.447098934081552E+05,      /* J = 21 */
(PID.TID 0000.0001)                 4.436266024588540E+05,      /* J = 22 */
(PID.TID 0000.0001)                 4.403820072955634E+05,      /* J = 23 */
(PID.TID 0000.0001)                 4.349919152597734E+05,      /* J = 24 */
(PID.TID 0000.0001)                 4.274825863380723E+05,      /* J = 25 */
(PID.TID 0000.0001)                 4.178906052261313E+05,      /* J = 26 */
(PID.TID 0000.0001)                 4.062627030917454E+05,      /* J = 27 */
(PID.TID 0000.0001)                 3.926555299052806E+05,      /* J = 28 */
(PID.TID 0000.0001)                 3.771353784467131E+05,      /* J = 29 */
(PID.TID 0000.0001)                 3.597778613338690E+05,      /* J = 30 */
(PID.TID 0000.0001)                 3.406675426453503E+05,      /* J = 31 */
(PID.TID 0000.0001)                 3.198975259328452E+05,      /* J = 32 */
(PID.TID 0000.0001)                 2.975690006299821E+05,      /* J = 33 */
(PID.TID 0000.0001)                 2.737907490675810E+05,      /* J = 34 */
(PID.TID 0000.0001)                 2.486786164970726E+05,      /* J = 35 */
(PID.TID 0000.0001)                 2.223549467040777E+05,      /* J = 36 */
(PID.TID 0000.0001)                 1.949479859617814E+05,      /* J = 37 */
(PID.TID 0000.0001)                 1.665912582279823E+05,      /* J = 38 */
(PID.TID 0000.0001)                 1.374229146297914E+05,      /* J = 39 */
(PID.TID 0000.0001)                 1.075850604052271E+05       /* J = 40 */
(PID.TID 0000.0001)     ;
(PID.TID 0000.0001) dyU =  /* dyU(:,1,:,1) ( units: m ) */
(PID.TID 0000.0001)    90 @  4.447098934081552E+05              /* I =  1: 90 */
(PID.TID 0000.0001)     ;
(PID.TID 0000.0001) dyU =  /* dyU(1,:,1,:) ( units: m ) */
(PID.TID 0000.0001)    40 @  4.447098934081552E+05              /* J =  1: 40 */
(PID.TID 0000.0001)     ;
(PID.TID 0000.0001) rA  =  /* rA (:,1,:,1) ( units: m^2 ) */
(PID.TID 0000.0001)    90 @  4.110969866729047E+10              /* I =  1: 90 */
(PID.TID 0000.0001)     ;
(PID.TID 0000.0001) rA  =  /* rA (1,:,1,:) ( units: m^2 ) */
(PID.TID 0000.0001)                 4.110969866729047E+10,      /* J =  1 */
(PID.TID 0000.0001)                 5.450087291636665E+10,      /* J =  2 */
(PID.TID 0000.0001)                 6.762652439100235E+10,      /* J =  3 */
(PID.TID 0000.0001)                 8.042270623659998E+10,      /* J =  4 */
(PID.TID 0000.0001)                 9.282707674147523E+10,      /* J =  5 */
(PID.TID 0000.0001)                 1.047792030594103E+11,      /* J =  6 */
(PID.TID 0000.0001)                 1.162208556324093E+11,      /* J =  7 */
(PID.TID 0000.0001)                 1.270962918792468E+11,      /* J =  8 */
(PID.TID 0000.0001)                 1.373525277677229E+11,      /* J =  9 */
(PID.TID 0000.0001)                 1.469395959475426E+11,      /* J = 10 */
(PID.TID 0000.0001)                 1.558107891862220E+11,      /* J = 11 */
(PID.TID 0000.0001)                 1.639228879220326E+11,      /* J = 12 */
(PID.TID 0000.0001)                 1.712363708253573E+11,      /* J = 13 */
(PID.TID 0000.0001)                 1.777156073426415E+11,      /* J = 14 */
(PID.TID 0000.0001)                 1.833290312848623E+11,      /* J = 15 */
(PID.TID 0000.0001)                 1.880492946148330E+11,      /* J = 16 */
(PID.TID 0000.0001)                 1.918534006840893E+11,      /* J = 17 */
(PID.TID 0000.0001)                 1.947228162702492E+11,      /* J = 18 */
(PID.TID 0000.0001)                 1.966435618690094E+11,      /* J = 19 */
(PID.TID 0000.0001)     2 @  1.976062798008856E+11,             /* J = 20: 21 */
(PID.TID 0000.0001)                 1.966435618690094E+11,      /* J = 22 */
(PID.TID 0000.0001)                 1.947228162702492E+11,      /* J = 23 */
(PID.TID 0000.0001)                 1.918534006840893E+11,      /* J = 24 */
(PID.TID 0000.0001)                 1.880492946148330E+11,      /* J = 25 */
(PID.TID 0000.0001)                 1.833290312848623E+11,      /* J = 26 */
(PID.TID 0000.0001)                 1.777156073426415E+11,      /* J = 27 */
(PID.TID 0000.0001)                 1.712363708253573E+11,      /* J = 28 */
(PID.TID 0000.0001)                 1.639228879220326E+11,      /* J = 29 */
(PID.TID 0000.0001)                 1.558107891862220E+11,      /* J = 30 */
(PID.TID 0000.0001)                 1.469395959475426E+11,      /* J = 31 */
(PID.TID 0000.0001)                 1.373525277677229E+11,      /* J = 32 */
(PID.TID 0000.0001)                 1.270962918792468E+11,      /* J = 33 */
(PID.TID 0000.0001)                 1.162208556324093E+11,      /* J = 34 */
(PID.TID 0000.0001)                 1.047792030594103E+11,      /* J = 35 */
(PID.TID 0000.0001)                 9.282707674147523E+10,      /* J = 36 */
(PID.TID 0000.0001)                 8.042270623659998E+10,      /* J = 37 */
(PID.TID 0000.0001)                 6.762652439100235E+10,      /* J = 38 */
(PID.TID 0000.0001)                 5.450087291636665E+10,      /* J = 39 */
(PID.TID 0000.0001)                 4.110969866729047E+10       /* J = 40 */
(PID.TID 0000.0001)     ;
(PID.TID 0000.0001) rAw =  /* rAw(:,1,:,1) ( units: m^2 ) */
(PID.TID 0000.0001)    90 @  4.110969866729047E+10              /* I =  1: 90 */
(PID.TID 0000.0001)     ;
(PID.TID 0000.0001) rAw =  /* rAw(1,:,1,:) ( units: m^2 ) */
(PID.TID 0000.0001)                 4.110969866729047E+10,      /* J =  1 */
(PID.TID 0000.0001)                 5.450087291636665E+10,      /* J =  2 */
(PID.TID 0000.0001)                 6.762652439100235E+10,      /* J =  3 */
(PID.TID 0000.0001)                 8.042270623659998E+10,      /* J =  4 */
(PID.TID 0000.0001)                 9.282707674147523E+10,      /* J =  5 */
(PID.TID 0000.0001)                 1.047792030594103E+11,      /* J =  6 */
(PID.TID 0000.0001)                 1.162208556324093E+11,      /* J =  7 */
(PID.TID 0000.0001)                 1.270962918792468E+11,      /* J =  8 */
(PID.TID 0000.0001)                 1.373525277677229E+11,      /* J =  9 */
(PID.TID 0000.0001)                 1.469395959475426E+11,      /* J = 10 */
(PID.TID 0000.0001)                 1.558107891862220E+11,      /* J = 11 */
(PID.TID 0000.0001)                 1.639228879220326E+11,      /* J = 12 */
(PID.TID 0000.0001)                 1.712363708253573E+11,      /* J = 13 */
(PID.TID 0000.0001)                 1.777156073426415E+11,      /* J = 14 */
(PID.TID 0000.0001)                 1.833290312848623E+11,      /* J = 15 */
(PID.TID 0000.0001)                 1.880492946148330E+11,      /* J = 16 */
(PID.TID 0000.0001)                 1.918534006840893E+11,      /* J = 17 */
(PID.TID 0000.0001)                 1.947228162702492E+11,      /* J = 18 */
(PID.TID 0000.0001)                 1.966435618690094E+11,      /* J = 19 */
(PID.TID 0000.0001)     2 @  1.976062798008856E+11,             /* J = 20: 21 */
(PID.TID 0000.0001)                 1.966435618690094E+11,      /* J = 22 */
(PID.TID 0000.0001)                 1.947228162702492E+11,      /* J = 23 */
(PID.TID 0000.0001)                 1.918534006840893E+11,      /* J = 24 */
(PID.TID 0000.0001)                 1.880492946148330E+11,      /* J = 25 */
(PID.TID 0000.0001)                 1.833290312848623E+11,      /* J = 26 */
(PID.TID 0000.0001)                 1.777156073426415E+11,      /* J = 27 */
(PID.TID 0000.0001)                 1.712363708253573E+11,      /* J = 28 */
(PID.TID 0000.0001)                 1.639228879220326E+11,      /* J = 29 */
(PID.TID 0000.0001)                 1.558107891862220E+11,      /* J = 30 */
(PID.TID 0000.0001)                 1.469395959475426E+11,      /* J = 31 */
(PID.TID 0000.0001)                 1.373525277677229E+11,      /* J = 32 */
(PID.TID 0000.0001)                 1.270962918792468E+11,      /* J = 33 */
(PID.TID 0000.0001)                 1.162208556324093E+11,      /* J = 34 */
(PID.TID 0000.0001)                 1.047792030594103E+11,      /* J = 35 */
(PID.TID 0000.0001)                 9.282707674147523E+10,      /* J = 36 */
(PID.TID 0000.0001)                 8.042270623659998E+10,      /* J = 37 */
(PID.TID 0000.0001)                 6.762652439100235E+10,      /* J = 38 */
(PID.TID 0000.0001)                 5.450087291636665E+10,      /* J = 39 */
(PID.TID 0000.0001)                 4.110969866729047E+10       /* J = 40 */
(PID.TID 0000.0001)     ;
(PID.TID 0000.0001) rAs =  /* rAs(:,1,:,1) ( units: m^2 ) */
(PID.TID 0000.0001)    90 @  3.433488626798250E+10              /* I =  1: 90 */
(PID.TID 0000.0001)     ;
(PID.TID 0000.0001) rAs =  /* rAs(1,:,1,:) ( units: m^2 ) */
(PID.TID 0000.0001)                 3.433488626798250E+10,      /* J =  1 */
(PID.TID 0000.0001)                 4.783442523123625E+10,      /* J =  2 */
(PID.TID 0000.0001)                 6.110091968306414E+10,      /* J =  3 */
(PID.TID 0000.0001)                 7.406973659603818E+10,      /* J =  4 */
(PID.TID 0000.0001)                 8.667769319778079E+10,      /* J =  5 */
(PID.TID 0000.0001)                 9.886336479107463E+10,      /* J =  6 */
(PID.TID 0000.0001)                 1.105673840088173E+11,      /* J =  7 */
(PID.TID 0000.0001)                 1.217327300458638E+11,      /* J =  8 */
(PID.TID 0000.0001)                 1.323050064586578E+11,      /* J =  9 */
(PID.TID 0000.0001)                 1.422327061792377E+11,      /* J = 10 */
(PID.TID 0000.0001)                 1.514674624524945E+11,      /* J = 11 */
(PID.TID 0000.0001)                 1.599642844741385E+11,      /* J = 12 */
(PID.TID 0000.0001)                 1.676817765813788E+11,      /* J = 13 */
(PID.TID 0000.0001)                 1.745823399284268E+11,      /* J = 14 */
(PID.TID 0000.0001)                 1.806323556642996E+11,      /* J = 15 */
(PID.TID 0000.0001)                 1.858023487204767E+11,      /* J = 16 */
(PID.TID 0000.0001)                 1.900671314104743E+11,      /* J = 17 */
(PID.TID 0000.0001)                 1.934059261417216E+11,      /* J = 18 */
(PID.TID 0000.0001)                 1.958024666419019E+11,      /* J = 19 */
(PID.TID 0000.0001)                 1.972450772065981E+11,      /* J = 20 */
(PID.TID 0000.0001)                 1.977267295821495E+11,      /* J = 21 */
(PID.TID 0000.0001)                 1.972450772065981E+11,      /* J = 22 */
(PID.TID 0000.0001)                 1.958024666419019E+11,      /* J = 23 */
(PID.TID 0000.0001)                 1.934059261417216E+11,      /* J = 24 */
(PID.TID 0000.0001)                 1.900671314104743E+11,      /* J = 25 */
(PID.TID 0000.0001)                 1.858023487204767E+11,      /* J = 26 */
(PID.TID 0000.0001)                 1.806323556642996E+11,      /* J = 27 */
(PID.TID 0000.0001)                 1.745823399284268E+11,      /* J = 28 */
(PID.TID 0000.0001)                 1.676817765813788E+11,      /* J = 29 */
(PID.TID 0000.0001)                 1.599642844741385E+11,      /* J = 30 */
(PID.TID 0000.0001)                 1.514674624524945E+11,      /* J = 31 */
(PID.TID 0000.0001)                 1.422327061792377E+11,      /* J = 32 */
(PID.TID 0000.0001)                 1.323050064586578E+11,      /* J = 33 */
(PID.TID 0000.0001)                 1.217327300458638E+11,      /* J = 34 */
(PID.TID 0000.0001)                 1.105673840088173E+11,      /* J = 35 */
(PID.TID 0000.0001)                 9.886336479107463E+10,      /* J = 36 */
(PID.TID 0000.0001)                 8.667769319778079E+10,      /* J = 37 */
(PID.TID 0000.0001)                 7.406973659603818E+10,      /* J = 38 */
(PID.TID 0000.0001)                 6.110091968306414E+10,      /* J = 39 */
(PID.TID 0000.0001)                 4.783442523123625E+10       /* J = 40 */
(PID.TID 0000.0001)     ;
(PID.TID 0000.0001) globalArea = /* Integrated horizontal Area (m^2) */
(PID.TID 0000.0001)                 3.450614146649749E+14
(PID.TID 0000.0001)     ;
(PID.TID 0000.0001) the_run_name = /* Name of this simulation */
(PID.TID 0000.0001)               'global_ocean.90x40x15'
(PID.TID 0000.0001)     ;
(PID.TID 0000.0001) // =======================================================
(PID.TID 0000.0001) // End of Model config. summary
(PID.TID 0000.0001) // =======================================================
(PID.TID 0000.0001) 
(PID.TID 0000.0001) == Packages configuration : Check & print summary ==
(PID.TID 0000.0001) 
(PID.TID 0000.0001) GMREDI_CHECK: #define GMREDI
(PID.TID 0000.0001) GM_AdvForm =     /* if FALSE => use SkewFlux Form */
(PID.TID 0000.0001)                   F
(PID.TID 0000.0001)     ;
(PID.TID 0000.0001) GM_InMomAsStress = /* if TRUE => apply as Eddy Stress */
(PID.TID 0000.0001)                   F
(PID.TID 0000.0001)     ;
(PID.TID 0000.0001) GM_AdvSeparate = /* Calc Bolus & Euler Adv. separately */
(PID.TID 0000.0001)                   F
(PID.TID 0000.0001)     ;
(PID.TID 0000.0001) GM_ExtraDiag =   /* Tensor Extra Diag (line 1&2) non 0 */
(PID.TID 0000.0001)                   F
(PID.TID 0000.0001)     ;
(PID.TID 0000.0001) GM_isopycK =    /* Background Isopyc. Diffusivity [m^2/s] */
(PID.TID 0000.0001)                 1.000000000000000E+03
(PID.TID 0000.0001)     ;
(PID.TID 0000.0001) GM_skewflx*K =  /* Background GM_SkewFlx Diffusivity [m^2/s] */
(PID.TID 0000.0001)                 1.000000000000000E+03
(PID.TID 0000.0001)     ;
(PID.TID 0000.0001) GM_advec*K =    /* Backg. GM-Advec(=Bolus) Diffusivity [m^2/s]*/
(PID.TID 0000.0001)                 0.000000000000000E+00
(PID.TID 0000.0001)     ;
(PID.TID 0000.0001) GM_Kmin_horiz = /* Minimum Horizontal Diffusivity [m^2/s] */
(PID.TID 0000.0001)                 5.000000000000000E+01
(PID.TID 0000.0001)     ;
(PID.TID 0000.0001) GM_Visbeck_alpha = /* Visbeck alpha coeff. [-] */
(PID.TID 0000.0001)                 0.000000000000000E+00
(PID.TID 0000.0001)     ;
(PID.TID 0000.0001) GM_Small_Number =  /* epsilon used in slope calc */
(PID.TID 0000.0001)                 9.999999999999999E-21
(PID.TID 0000.0001)     ;
(PID.TID 0000.0001) GM_slopeSqCutoff = /* Slope^2 cut-off value */
(PID.TID 0000.0001)                 1.000000000000000E+48
(PID.TID 0000.0001)     ;
(PID.TID 0000.0001) GM_taper_scheme =  /* Type of Tapering/Clipping scheme */
(PID.TID 0000.0001)               'gkw91                                   '
(PID.TID 0000.0001)     ;
(PID.TID 0000.0001) GM_maxSlope =  /* Maximum Slope (Tapering/Clipping) */
(PID.TID 0000.0001)                 1.000000000000000E-02
(PID.TID 0000.0001)     ;
(PID.TID 0000.0001) GM_facTrL2dz = /* Minimum Trans.Layer Thick. (factor of dz) */
(PID.TID 0000.0001)                 1.000000000000000E+00
(PID.TID 0000.0001)     ;
(PID.TID 0000.0001) GM_facTrL2ML = /* Max.Trans.Layer Thick. (factor of MxL Depth)*/
(PID.TID 0000.0001)                 5.000000000000000E+00
(PID.TID 0000.0001)     ;
(PID.TID 0000.0001) GM_maxTransLay = /* Maximum Transition Layer Thickness [m] */
(PID.TID 0000.0001)                 5.000000000000000E+02
(PID.TID 0000.0001)     ;
(PID.TID 0000.0001) GM_UseBVP = /* if TRUE => use bvp a la Ferrari et al. (2010) */
(PID.TID 0000.0001)                   F
(PID.TID 0000.0001)     ;
(PID.TID 0000.0001) GM_BVP_ModeNumber = /* Vertical mode number for BVP wave speed */
(PID.TID 0000.0001)                       1
(PID.TID 0000.0001)     ;
(PID.TID 0000.0001) GM_BVP_cMin = /* Minimum wave speed for BVP [m/s] */
(PID.TID 0000.0001)                 1.000000000000000E-01
(PID.TID 0000.0001)     ;
(PID.TID 0000.0001) SBO_CHECK: #define ALLOW_SBO
(PID.TID 0000.0001) GAD_CHECK: #define ALLOW_GENERIC_ADVDIFF
(PID.TID 0000.0001) // =======================================================
(PID.TID 0000.0001) // CONFIG_CHECK : Normal End
(PID.TID 0000.0001) // =======================================================
(PID.TID 0000.0001) 
(PID.TID 0000.0001)  MDS_READ_META: opening file: pickup.0000036000.meta
(PID.TID 0000.0001)  simulName=>global_ocean.90x40x15<
(PID.TID 0000.0001)  nRecords = 138 ; filePrec =  64 ; fileIter =     36000
(PID.TID 0000.0001)     nDims =   2 , dims:
(PID.TID 0000.0001)    1:  90   1  90
(PID.TID 0000.0001)    2:  40   1  40
(PID.TID 0000.0001)     nFlds =  12 , nFl3D =   9 , fields:
(PID.TID 0000.0001)  >Uvel    < >Vvel    < >Theta   < >Salt    < >GuNm1   < >GvNm1   < >GtNm1   < >GsNm1   < >PhiHyd  < >EtaN    < >dEtaHdt < >EtaH    <
(PID.TID 0000.0001)   nTimRec =   0 , timeList:
(PID.TID 0000.0001) READ_MFLDS_3D_RL: read field: "Uvel    ", #   1 in fldList, rec=   1
(PID.TID 0000.0001)  MDS_READ_FIELD: opening global file: pickup.0000036000
(PID.TID 0000.0001) READ_MFLDS_3D_RL: read field: "Vvel    ", #   2 in fldList, rec=   2
(PID.TID 0000.0001)  MDS_READ_FIELD: opening global file: pickup.0000036000
(PID.TID 0000.0001) READ_MFLDS_3D_RL: read field: "Theta   ", #   3 in fldList, rec=   3
(PID.TID 0000.0001)  MDS_READ_FIELD: opening global file: pickup.0000036000
(PID.TID 0000.0001) READ_MFLDS_3D_RL: read field: "Salt    ", #   4 in fldList, rec=   4
(PID.TID 0000.0001)  MDS_READ_FIELD: opening global file: pickup.0000036000
(PID.TID 0000.0001) READ_MFLDS_3D_RL: read field: "GuNm1   ", #   5 in fldList, rec=   5
(PID.TID 0000.0001)  MDS_READ_FIELD: opening global file: pickup.0000036000
(PID.TID 0000.0001) READ_MFLDS_3D_RL: read field: "GvNm1   ", #   6 in fldList, rec=   6
(PID.TID 0000.0001)  MDS_READ_FIELD: opening global file: pickup.0000036000
(PID.TID 0000.0001) READ_MFLDS_3D_RL: read field: "GtNm1   ", #   7 in fldList, rec=   7
(PID.TID 0000.0001)  MDS_READ_FIELD: opening global file: pickup.0000036000
(PID.TID 0000.0001) READ_MFLDS_3D_RL: read field: "GsNm1   ", #   8 in fldList, rec=   8
(PID.TID 0000.0001)  MDS_READ_FIELD: opening global file: pickup.0000036000
(PID.TID 0000.0001) READ_MFLDS_3D_RL: read field: "PhiHyd  ", #   9 in fldList, rec=   9
(PID.TID 0000.0001)  MDS_READ_FIELD: opening global file: pickup.0000036000
(PID.TID 0000.0001) READ_MFLDS_3D_RL: read field: "EtaN    ", #  10 in fldList, rec= 136
(PID.TID 0000.0001)  MDS_READ_FIELD: opening global file: pickup.0000036000
(PID.TID 0000.0001) READ_MFLDS_3D_RL: read field: "dEtaHdt ", #  11 in fldList, rec= 137
(PID.TID 0000.0001)  MDS_READ_FIELD: opening global file: pickup.0000036000
(PID.TID 0000.0001) READ_MFLDS_3D_RL: read field: "EtaH    ", #  12 in fldList, rec= 138
(PID.TID 0000.0001)  MDS_READ_FIELD: opening global file: pickup.0000036000
(PID.TID 0000.0001) READ_MFLDS_CHECK: - normal end ; reset MFLDS file-name: pickup.0000036000
(PID.TID 0000.0001)  MDS_READ_FIELD: opening global file: trenberth_taux.bin
(PID.TID 0000.0001)  MDS_READ_FIELD: opening global file: trenberth_tauy.bin
(PID.TID 0000.0001)  MDS_READ_FIELD: opening global file: ncep_qnet.bin
(PID.TID 0000.0001)  MDS_READ_FIELD: opening global file: ncep_emp.bin
(PID.TID 0000.0001)  MDS_READ_FIELD: opening global file: lev_sst.bin
(PID.TID 0000.0001)  MDS_READ_FIELD: opening global file: lev_sss.bin
(PID.TID 0000.0001)  write diagnostics summary to file ioUnit:      6
Iter.Nb:     36000 ; Time(s):  3.1104000000000E+09
------------------------------------------------------------------------
2D/3D diagnostics: Number of lists:     3
------------------------------------------------------------------------
listId=    1 ; file name: surfDiag
 nFlds, nActive,       freq     &     phase        , nLev               
    5  |    5  |    864000.000000         0.000000 |   1
 levels:   1
 diag# | name   |   ipt  |  iMate | kLev|   count |   mate.C|           
    23 |ETAN    |      1 |      0 |   1 |       0 |
    24 |ETANSQ  |      2 |      0 |   1 |       0 |
    25 |DETADT2 |      3 |      0 |   1 |       0 |
    69 |PHIBOT  |      4 |      0 |   1 |       0 |
    70 |PHIBOTSQ|      5 |      0 |   1 |       0 |
------------------------------------------------------------------------
listId=    2 ; file name: dynDiag
 nFlds, nActive,       freq     &     phase        , nLev               
    6  |    6  |    864000.000000         0.000000 |  15
 levels:   1   2   3   4   5   6   7   8   9  10  11  12  13  14  15
 diag# | name   |   ipt  |  iMate | kLev|   count |   mate.C|           
    45 |UVELMASS|      6 |     21 |  15 |       0 |       0 |
    46 |VVELMASS|     21 |      6 |  15 |       0 |       0 |
    32 |WVEL    |     36 |      0 |  15 |       0 |
    26 |THETA   |     51 |      0 |  15 |       0 |
    27 |SALT    |     66 |      0 |  15 |       0 |
    38 |WVELSQ  |     81 |      0 |  15 |       0 |
------------------------------------------------------------------------
listId=    3 ; file name: oceDiag
 nFlds, nActive,       freq     &     phase        , nLev               
    6  |    6  |    864000.000000         0.000000 |  15
 levels:   1   2   3   4   5   6   7   8   9  10  11  12  13  14  15
 diag# | name   |   ipt  |  iMate | kLev|   count |   mate.C|           
    62 |RHOAnoma|     96 |      0 |  15 |       0 |
    72 |DRHODR  |    111 |      0 |  15 |       0 |
    73 |CONVADJ |    126 |      0 |  15 |       0 |
   181 |GM_Kwx  |    141 |    156 |  15 |       0 |       0 |
   182 |GM_Kwy  |    156 |    141 |  15 |       0 |       0 |
   183 |GM_Kwz  |    171 |      0 |  15 |       0 |
------------------------------------------------------------------------
Global & Regional Statistics diagnostics: Number of lists:     2
------------------------------------------------------------------------
listId=   1 ; file name: dynStDiag
 nFlds, nActive,       freq     &     phase        |                    
    9  |    9  |   2592000.000000         0.000000 |
 Regions:   0
 diag# | name   |   ipt  |  iMate |    Volume   |   mate-Vol. |         
    23 |ETAN    |      1 |      0 | 0.00000E+00 |
    24 |ETANSQ  |      2 |      0 | 0.00000E+00 |
    25 |DETADT2 |      3 |      0 | 0.00000E+00 |
    30 |UVEL    |      4 |      0 | 0.00000E+00 |
    31 |VVEL    |     19 |      0 | 0.00000E+00 |
    32 |WVEL    |     34 |      0 | 0.00000E+00 |
    26 |THETA   |     49 |      0 | 0.00000E+00 |
    27 |SALT    |     64 |      0 | 0.00000E+00 |
    38 |WVELSQ  |     79 |      0 | 0.00000E+00 |
------------------------------------------------------------------------
listId=   2 ; file name: oceStDiag
 nFlds, nActive,       freq     &     phase        |                    
    3  |    3  |   2592000.000000         0.000000 |
 Regions:   0
 diag# | name   |   ipt  |  iMate |    Volume   |   mate-Vol. |         
    62 |RHOAnoma|     94 |      0 | 0.00000E+00 |
    72 |DRHODR  |    109 |      0 | 0.00000E+00 |
    73 |CONVADJ |    124 |      0 | 0.00000E+00 |
------------------------------------------------------------------------
(PID.TID 0000.0001)  MDS_READ_FIELD: opening global file: pickup_cd.0000036000
(PID.TID 0000.0001)  MDS_READ_FIELD: opening global file: pickup_cd.0000036000
(PID.TID 0000.0001)  MDS_READ_FIELD: opening global file: pickup_cd.0000036000
(PID.TID 0000.0001)  MDS_READ_FIELD: opening global file: pickup_cd.0000036000
(PID.TID 0000.0001)  MDS_READ_FIELD: opening global file: pickup_cd.0000036000
(PID.TID 0000.0001) // =======================================================
(PID.TID 0000.0001) // Model current state
(PID.TID 0000.0001) // =======================================================
(PID.TID 0000.0001) 
(PID.TID 0000.0001) // =======================================================
(PID.TID 0000.0001) // Begin MONITOR dynamic field statistics
(PID.TID 0000.0001) // =======================================================
(PID.TID 0000.0001) %MON time_tsnumber                =                 36000
(PID.TID 0000.0001) %MON time_secondsf                =   3.1104000000000E+09
(PID.TID 0000.0001) %MON dynstat_eta_max              =   9.6840090317157E-01
(PID.TID 0000.0001) %MON dynstat_eta_min              =  -1.6623523877581E+00
(PID.TID 0000.0001) %MON dynstat_eta_mean             =   1.6168410318832E-09
(PID.TID 0000.0001) %MON dynstat_eta_sd               =   6.1148997211646E-01
(PID.TID 0000.0001) %MON dynstat_eta_del2             =   2.6535523397499E-03
(PID.TID 0000.0001) %MON dynstat_uvel_max             =   1.4483874100704E-01
(PID.TID 0000.0001) %MON dynstat_uvel_min             =  -1.9334261953219E-01
(PID.TID 0000.0001) %MON dynstat_uvel_mean            =   2.1652498321960E-03
(PID.TID 0000.0001) %MON dynstat_uvel_sd              =   1.2230159714911E-02
(PID.TID 0000.0001) %MON dynstat_uvel_del2            =   7.5373739779343E-05
(PID.TID 0000.0001) %MON dynstat_vvel_max             =   1.2230159262561E-01
(PID.TID 0000.0001) %MON dynstat_vvel_min             =  -1.3319317954337E-01
(PID.TID 0000.0001) %MON dynstat_vvel_mean            =  -1.0570692141479E-06
(PID.TID 0000.0001) %MON dynstat_vvel_sd              =   6.0829832177859E-03
(PID.TID 0000.0001) %MON dynstat_vvel_del2            =   5.6304893947818E-05
(PID.TID 0000.0001) %MON dynstat_wvel_max             =   2.3594281332926E-05
(PID.TID 0000.0001) %MON dynstat_wvel_min             =  -4.9279006914581E-05
(PID.TID 0000.0001) %MON dynstat_wvel_mean            =   3.9949062806925E-10
(PID.TID 0000.0001) %MON dynstat_wvel_sd              =   1.6733827848296E-06
(PID.TID 0000.0001) %MON dynstat_wvel_del2            =   1.9834152537287E-08
(PID.TID 0000.0001) %MON dynstat_theta_max            =   3.0436365755114E+01
(PID.TID 0000.0001) %MON dynstat_theta_min            =  -2.6409661425848E+00
(PID.TID 0000.0001) %MON dynstat_theta_mean           =   3.9388062513755E+00
(PID.TID 0000.0001) %MON dynstat_theta_sd             =   4.5461663685633E+00
(PID.TID 0000.0001) %MON dynstat_theta_del2           =   5.6750025051935E-03
(PID.TID 0000.0001) %MON dynstat_salt_max             =   3.7498034042054E+01
(PID.TID 0000.0001) %MON dynstat_salt_min             =   2.9579913603215E+01
(PID.TID 0000.0001) %MON dynstat_salt_mean            =   3.4731867994986E+01
(PID.TID 0000.0001) %MON dynstat_salt_sd              =   2.9658519778238E-01
(PID.TID 0000.0001) %MON dynstat_salt_del2            =   1.0371767474275E-03
(PID.TID 0000.0001) %MON forcing_qnet_max             =   4.4161361694336E+02
(PID.TID 0000.0001) %MON forcing_qnet_min             =  -1.8132531738281E+02
(PID.TID 0000.0001) %MON forcing_qnet_mean            =  -1.6512526001044E+01
(PID.TID 0000.0001) %MON forcing_qnet_sd              =   1.0987288293460E+02
(PID.TID 0000.0001) %MON forcing_qnet_del2            =   1.0245701543512E+00
(PID.TID 0000.0001) %MON forcing_qsw_max              =   0.0000000000000E+00
(PID.TID 0000.0001) %MON forcing_qsw_min              =   0.0000000000000E+00
(PID.TID 0000.0001) %MON forcing_qsw_mean             =   0.0000000000000E+00
(PID.TID 0000.0001) %MON forcing_qsw_sd               =   0.0000000000000E+00
(PID.TID 0000.0001) %MON forcing_qsw_del2             =   0.0000000000000E+00
(PID.TID 0000.0001) %MON forcing_empmr_max            =   8.2174238968946E-05
(PID.TID 0000.0001) %MON forcing_empmr_min            =  -7.6155956207913E-05
(PID.TID 0000.0001) %MON forcing_empmr_mean           =   9.2293706211062E-07
(PID.TID 0000.0001) %MON forcing_empmr_sd             =   2.8800050217957E-05
(PID.TID 0000.0001) %MON forcing_empmr_del2           =   3.6757632549621E-07
(PID.TID 0000.0001) %MON forcing_fu_max               =   2.7877888083458E-01
(PID.TID 0000.0001) %MON forcing_fu_min               =  -1.7088057100773E-01
(PID.TID 0000.0001) %MON forcing_fu_mean              =   1.6001735152566E-02
(PID.TID 0000.0001) %MON forcing_fu_sd                =   9.1062350670783E-02
(PID.TID 0000.0001) %MON forcing_fu_del2              =   7.2483493833855E-04
(PID.TID 0000.0001) %MON forcing_fv_max               =   2.3312132060528E-01
(PID.TID 0000.0001) %MON forcing_fv_min               =  -1.7813690006733E-01
(PID.TID 0000.0001) %MON forcing_fv_mean              =  -5.2588977395051E-03
(PID.TID 0000.0001) %MON forcing_fv_sd                =   4.8248606070107E-02
(PID.TID 0000.0001) %MON forcing_fv_del2              =   4.9948324922575E-04
(PID.TID 0000.0001) %MON advcfl_uvel_max              =   4.3821928997296E-02
(PID.TID 0000.0001) %MON advcfl_vvel_max              =   2.5877298623499E-02
(PID.TID 0000.0001) %MON advcfl_wvel_max              =   2.0070768986055E-02
(PID.TID 0000.0001) %MON advcfl_W_hf_max              =   2.4083488333504E-02
(PID.TID 0000.0001) %MON pe_b_mean                    =   4.7847568373161E-04
(PID.TID 0000.0001) %MON ke_max                       =   1.8728918214679E-02
(PID.TID 0000.0001) %MON ke_mean                      =   8.6697107037096E-05
(PID.TID 0000.0001) %MON ke_vol                       =   1.3226782657554E+18
(PID.TID 0000.0001) %MON vort_r_min                   =  -4.0173311363557E-07
(PID.TID 0000.0001) %MON vort_r_max                   =   4.6764792592742E-07
(PID.TID 0000.0001) %MON vort_a_mean                  =  -2.5274807084690E-05
(PID.TID 0000.0001) %MON vort_a_sd                    =   7.3604637254584E-05
(PID.TID 0000.0001) %MON vort_p_mean                  =  -3.1845610372669E-05
(PID.TID 0000.0001) %MON vort_p_sd                    =   1.3163813653201E-04
(PID.TID 0000.0001) %MON surfExpan_theta_mean         =   5.6614011411228E-08
(PID.TID 0000.0001) %MON surfExpan_salt_mean          =   1.2564214083129E-08
(PID.TID 0000.0001) // =======================================================
(PID.TID 0000.0001) // End MONITOR dynamic field statistics
(PID.TID 0000.0001) // =======================================================
 EXTERNAL_FIELDS_LOAD,     36000 : iP,iLd,i0,i1=   12    0   12    1 ; Wght=  0.5000000000  0.5000000000
 EXTERNAL_FIELDS_LOAD, it=     36000 : Reading new data, i0,i1=   12    1 (prev=   12    0 )
(PID.TID 0000.0001)  MDS_READ_FIELD: opening global file: trenberth_taux.bin
(PID.TID 0000.0001)  MDS_READ_FIELD: opening global file: trenberth_taux.bin
(PID.TID 0000.0001)  MDS_READ_FIELD: opening global file: trenberth_tauy.bin
(PID.TID 0000.0001)  MDS_READ_FIELD: opening global file: trenberth_tauy.bin
(PID.TID 0000.0001)  MDS_READ_FIELD: opening global file: ncep_qnet.bin
(PID.TID 0000.0001)  MDS_READ_FIELD: opening global file: ncep_qnet.bin
(PID.TID 0000.0001)  MDS_READ_FIELD: opening global file: ncep_emp.bin
(PID.TID 0000.0001)  MDS_READ_FIELD: opening global file: ncep_emp.bin
(PID.TID 0000.0001)  MDS_READ_FIELD: opening global file: lev_sst.bin
(PID.TID 0000.0001)  MDS_READ_FIELD: opening global file: lev_sst.bin
(PID.TID 0000.0001)  MDS_READ_FIELD: opening global file: lev_sss.bin
(PID.TID 0000.0001)  MDS_READ_FIELD: opening global file: lev_sss.bin
(PID.TID 0000.0001) SOLVE_FOR_PRESSURE: putPmEinXvector =    F
 cg2d: Sum(rhs),rhsMax =   3.42302151194657E-03  2.75927032743987E+00
(PID.TID 0000.0001)                    cg2d_init_res =    4.16315223963394E-02
(PID.TID 0000.0001)                       cg2d_iters =   124
(PID.TID 0000.0001)                         cg2d_res =    8.05561267080733E-14
(PID.TID 0000.0001) // =======================================================
(PID.TID 0000.0001) // Begin MONITOR dynamic field statistics
(PID.TID 0000.0001) // =======================================================
(PID.TID 0000.0001) %MON time_tsnumber                =                 36001
(PID.TID 0000.0001) %MON time_secondsf                =   3.1104864000000E+09
(PID.TID 0000.0001) %MON dynstat_eta_max              =   9.6825264070026E-01
(PID.TID 0000.0001) %MON dynstat_eta_min              =  -1.6653460954893E+00
(PID.TID 0000.0001) %MON dynstat_eta_mean             =  -6.4810128210499E-05
(PID.TID 0000.0001) %MON dynstat_eta_sd               =   6.1186308796555E-01
(PID.TID 0000.0001) %MON dynstat_eta_del2             =   2.6633473647907E-03
(PID.TID 0000.0001) %MON dynstat_uvel_max             =   1.4462730570456E-01
(PID.TID 0000.0001) %MON dynstat_uvel_min             =  -1.9261990197776E-01
(PID.TID 0000.0001) %MON dynstat_uvel_mean            =   2.1621641227324E-03
(PID.TID 0000.0001) %MON dynstat_uvel_sd              =   1.2224439699345E-02
(PID.TID 0000.0001) %MON dynstat_uvel_del2            =   7.5326887689873E-05
(PID.TID 0000.0001) %MON dynstat_vvel_max             =   1.2231874663168E-01
(PID.TID 0000.0001) %MON dynstat_vvel_min             =  -1.3293699527917E-01
(PID.TID 0000.0001) %MON dynstat_vvel_mean            =   1.0122032445850E-06
(PID.TID 0000.0001) %MON dynstat_vvel_sd              =   6.0775557669867E-03
(PID.TID 0000.0001) %MON dynstat_vvel_del2            =   5.6213502626830E-05
(PID.TID 0000.0001) %MON dynstat_wvel_max             =   2.3546050680847E-05
(PID.TID 0000.0001) %MON dynstat_wvel_min             =  -4.9095000534142E-05
(PID.TID 0000.0001) %MON dynstat_wvel_mean            =   3.6437363803135E-10
(PID.TID 0000.0001) %MON dynstat_wvel_sd              =   1.6806477424451E-06
(PID.TID 0000.0001) %MON dynstat_wvel_del2            =   1.9854353248897E-08
(PID.TID 0000.0001) %MON dynstat_theta_max            =   3.0438770681382E+01
(PID.TID 0000.0001) %MON dynstat_theta_min            =  -2.6410428557617E+00
(PID.TID 0000.0001) %MON dynstat_theta_mean           =   3.9388941899039E+00
(PID.TID 0000.0001) %MON dynstat_theta_sd             =   4.5462175363880E+00
(PID.TID 0000.0001) %MON dynstat_theta_del2           =   5.6695973948783E-03
(PID.TID 0000.0001) %MON dynstat_salt_max             =   3.7497256698944E+01
(PID.TID 0000.0001) %MON dynstat_salt_min             =   2.9581982871563E+01
(PID.TID 0000.0001) %MON dynstat_salt_mean            =   3.4731869446668E+01
(PID.TID 0000.0001) %MON dynstat_salt_sd              =   2.9657800101912E-01
(PID.TID 0000.0001) %MON dynstat_salt_del2            =   1.0362433579614E-03
(PID.TID 0000.0001) %MON forcing_qnet_max             =   4.2589080810547E+02
(PID.TID 0000.0001) %MON forcing_qnet_min             =  -1.8702698516846E+02
(PID.TID 0000.0001) %MON forcing_qnet_mean            =  -1.6700205338390E+01
(PID.TID 0000.0001) %MON forcing_qnet_sd              =   1.1285666794876E+02
(PID.TID 0000.0001) %MON forcing_qnet_del2            =   9.9079877721394E-01
(PID.TID 0000.0001) %MON forcing_qsw_max              =   0.0000000000000E+00
(PID.TID 0000.0001) %MON forcing_qsw_min              =   0.0000000000000E+00
(PID.TID 0000.0001) %MON forcing_qsw_mean             =   0.0000000000000E+00
(PID.TID 0000.0001) %MON forcing_qsw_sd               =   0.0000000000000E+00
(PID.TID 0000.0001) %MON forcing_qsw_del2             =   0.0000000000000E+00
(PID.TID 0000.0001) %MON forcing_empmr_max            =   8.3243762105667E-05
(PID.TID 0000.0001) %MON forcing_empmr_min            =  -7.4169506092403E-05
(PID.TID 0000.0001) %MON forcing_empmr_mean           =   7.7639069592806E-07
(PID.TID 0000.0001) %MON forcing_empmr_sd             =   2.7794934142646E-05
(PID.TID 0000.0001) %MON forcing_empmr_del2           =   3.6436962197032E-07
(PID.TID 0000.0001) %MON forcing_fu_max               =   2.7488999068737E-01
(PID.TID 0000.0001) %MON forcing_fu_min               =  -1.6014087945223E-01
(PID.TID 0000.0001) %MON forcing_fu_mean              =   1.6117127468124E-02
(PID.TID 0000.0001) %MON forcing_fu_sd                =   9.0153154829689E-02
(PID.TID 0000.0001) %MON forcing_fu_del2              =   6.5365667764058E-04
(PID.TID 0000.0001) %MON forcing_fv_max               =   2.0835298299789E-01
(PID.TID 0000.0001) %MON forcing_fv_min               =  -1.8690676242113E-01
(PID.TID 0000.0001) %MON forcing_fv_mean              =  -6.3653356424171E-03
(PID.TID 0000.0001) %MON forcing_fv_sd                =   4.5157892194461E-02
(PID.TID 0000.0001) %MON forcing_fv_del2              =   4.4595114894327E-04
(PID.TID 0000.0001) %MON advcfl_uvel_max              =   4.3816507395192E-02
(PID.TID 0000.0001) %MON advcfl_vvel_max              =   2.5827526129666E-02
(PID.TID 0000.0001) %MON advcfl_wvel_max              =   1.9834590426872E-02
(PID.TID 0000.0001) %MON advcfl_W_hf_max              =   2.3800095105191E-02
(PID.TID 0000.0001) %MON pe_b_mean                    =   4.7905978297824E-04
(PID.TID 0000.0001) %MON ke_max                       =   1.8569411716297E-02
(PID.TID 0000.0001) %MON ke_mean                      =   8.6597859868390E-05
(PID.TID 0000.0001) %MON ke_vol                       =   1.3226782436728E+18
(PID.TID 0000.0001) %MON vort_r_min                   =  -4.0013149786576E-07
(PID.TID 0000.0001) %MON vort_r_max                   =   4.6497885763236E-07
(PID.TID 0000.0001) %MON vort_a_mean                  =  -2.5274807088691E-05
(PID.TID 0000.0001) %MON vort_a_sd                    =   7.3604636879556E-05
(PID.TID 0000.0001) %MON vort_p_mean                  =  -3.1845610913360E-05
(PID.TID 0000.0001) %MON vort_p_sd                    =   1.3163812455975E-04
(PID.TID 0000.0001) %MON surfExpan_theta_mean         =   6.8736916327743E-08
(PID.TID 0000.0001) %MON surfExpan_salt_mean          =   1.2740192531647E-08
(PID.TID 0000.0001) // =======================================================
(PID.TID 0000.0001) // End MONITOR dynamic field statistics
(PID.TID 0000.0001) // =======================================================
 EXTERNAL_FIELDS_LOAD,     36001 : iP,iLd,i0,i1=   12    1   12    1 ; Wght=  0.4666666667  0.5333333333
 cg2d: Sum(rhs),rhsMax =   6.89776363194333E-03  2.75584598415417E+00
(PID.TID 0000.0001)                    cg2d_init_res =    2.52342365918529E-02
(PID.TID 0000.0001)                       cg2d_iters =   122
(PID.TID 0000.0001)                         cg2d_res =    8.70614660833491E-14
(PID.TID 0000.0001) // =======================================================
(PID.TID 0000.0001) // Begin MONITOR dynamic field statistics
(PID.TID 0000.0001) // =======================================================
(PID.TID 0000.0001) %MON time_tsnumber                =                 36002
(PID.TID 0000.0001) %MON time_secondsf                =   3.1105728000000E+09
(PID.TID 0000.0001) %MON dynstat_eta_max              =   9.6642830776883E-01
(PID.TID 0000.0001) %MON dynstat_eta_min              =  -1.6641680315496E+00
(PID.TID 0000.0001) %MON dynstat_eta_mean             =  -1.3043743564789E-04
(PID.TID 0000.0001) %MON dynstat_eta_sd               =   6.1190813329775E-01
(PID.TID 0000.0001) %MON dynstat_eta_del2             =   2.6583303975747E-03
(PID.TID 0000.0001) %MON dynstat_uvel_max             =   1.4442080524946E-01
(PID.TID 0000.0001) %MON dynstat_uvel_min             =  -1.9187641064164E-01
(PID.TID 0000.0001) %MON dynstat_uvel_mean            =   2.1597415210442E-03
(PID.TID 0000.0001) %MON dynstat_uvel_sd              =   1.2217274320411E-02
(PID.TID 0000.0001) %MON dynstat_uvel_del2            =   7.5274821702428E-05
(PID.TID 0000.0001) %MON dynstat_vvel_max             =   1.2230639227686E-01
(PID.TID 0000.0001) %MON dynstat_vvel_min             =  -1.3265383556818E-01
(PID.TID 0000.0001) %MON dynstat_vvel_mean            =   5.5658960809721E-07
(PID.TID 0000.0001) %MON dynstat_vvel_sd              =   6.0732371369508E-03
(PID.TID 0000.0001) %MON dynstat_vvel_del2            =   5.6144508691726E-05
(PID.TID 0000.0001) %MON dynstat_wvel_max             =   2.3603648718353E-05
(PID.TID 0000.0001) %MON dynstat_wvel_min             =  -4.8966024788368E-05
(PID.TID 0000.0001) %MON dynstat_wvel_mean            =   4.4270201384494E-10
(PID.TID 0000.0001) %MON dynstat_wvel_sd              =   1.6894960018675E-06
(PID.TID 0000.0001) %MON dynstat_wvel_del2            =   1.9992205488881E-08
(PID.TID 0000.0001) %MON dynstat_theta_max            =   3.0440968540006E+01
(PID.TID 0000.0001) %MON dynstat_theta_min            =  -2.6412623753579E+00
(PID.TID 0000.0001) %MON dynstat_theta_mean           =   3.9389823676874E+00
(PID.TID 0000.0001) %MON dynstat_theta_sd             =   4.5462824565104E+00
(PID.TID 0000.0001) %MON dynstat_theta_del2           =   5.6655456376899E-03
(PID.TID 0000.0001) %MON dynstat_salt_max             =   3.7496552608274E+01
(PID.TID 0000.0001) %MON dynstat_salt_min             =   2.9583511493357E+01
(PID.TID 0000.0001) %MON dynstat_salt_mean            =   3.4731870914939E+01
(PID.TID 0000.0001) %MON dynstat_salt_sd              =   2.9657150378283E-01
(PID.TID 0000.0001) %MON dynstat_salt_del2            =   1.0350850288909E-03
(PID.TID 0000.0001) %MON forcing_qnet_max             =   4.2693899536133E+02
(PID.TID 0000.0001) %MON forcing_qnet_min             =  -1.8655982259115E+02
(PID.TID 0000.0001) %MON forcing_qnet_mean            =  -1.6687693382567E+01
(PID.TID 0000.0001) %MON forcing_qnet_sd              =   1.1263946608433E+02
(PID.TID 0000.0001) %MON forcing_qnet_del2            =   9.9183674388333E-01
(PID.TID 0000.0001) %MON forcing_qsw_max              =   0.0000000000000E+00
(PID.TID 0000.0001) %MON forcing_qsw_min              =   0.0000000000000E+00
(PID.TID 0000.0001) %MON forcing_qsw_mean             =   0.0000000000000E+00
(PID.TID 0000.0001) %MON forcing_qsw_sd               =   0.0000000000000E+00
(PID.TID 0000.0001) %MON forcing_qsw_del2             =   0.0000000000000E+00
(PID.TID 0000.0001) %MON forcing_empmr_max            =   8.2987928351486E-05
(PID.TID 0000.0001) %MON forcing_empmr_min            =  -7.3906322484163E-05
(PID.TID 0000.0001) %MON forcing_empmr_mean           =   7.8616045367356E-07
(PID.TID 0000.0001) %MON forcing_empmr_sd             =   2.7832317986922E-05
(PID.TID 0000.0001) %MON forcing_empmr_del2           =   3.6378785899555E-07
(PID.TID 0000.0001) %MON forcing_fu_max               =   2.7403144240379E-01
(PID.TID 0000.0001) %MON forcing_fu_min               =  -1.5949268937111E-01
(PID.TID 0000.0001) %MON forcing_fu_mean              =   1.6109434647086E-02
(PID.TID 0000.0001) %MON forcing_fu_sd                =   9.0138031840955E-02
(PID.TID 0000.0001) %MON forcing_fu_del2              =   6.5488191036968E-04
(PID.TID 0000.0001) %MON forcing_fv_max               =   2.0882657567660E-01
(PID.TID 0000.0001) %MON forcing_fv_min               =  -1.8632210493088E-01
(PID.TID 0000.0001) %MON forcing_fv_mean              =  -6.2915731155563E-03
(PID.TID 0000.0001) %MON forcing_fv_sd                =   4.5261152700224E-02
(PID.TID 0000.0001) %MON forcing_fv_del2              =   4.4588571962377E-04
(PID.TID 0000.0001) %MON advcfl_uvel_max              =   4.3811374700164E-02
(PID.TID 0000.0001) %MON advcfl_vvel_max              =   2.5772512739157E-02
(PID.TID 0000.0001) %MON advcfl_wvel_max              =   1.9593431658422E-02
(PID.TID 0000.0001) %MON advcfl_W_hf_max              =   2.3510725738240E-02
(PID.TID 0000.0001) %MON pe_b_mean                    =   4.7913034678970E-04
(PID.TID 0000.0001) %MON ke_max                       =   1.8409137195294E-02
(PID.TID 0000.0001) %MON ke_mean                      =   8.6489978343122E-05
(PID.TID 0000.0001) %MON ke_vol                       =   1.3226782213088E+18
(PID.TID 0000.0001) %MON vort_r_min                   =  -3.9878053517985E-07
(PID.TID 0000.0001) %MON vort_r_max                   =   4.6237562195834E-07
(PID.TID 0000.0001) %MON vort_a_mean                  =  -2.5274807089431E-05
(PID.TID 0000.0001) %MON vort_a_sd                    =   7.3604636677335E-05
(PID.TID 0000.0001) %MON vort_p_mean                  =  -3.1845611416726E-05
(PID.TID 0000.0001) %MON vort_p_sd                    =   1.3163812918197E-04
(PID.TID 0000.0001) %MON surfExpan_theta_mean         =   6.1944521005796E-08
(PID.TID 0000.0001) %MON surfExpan_salt_mean          =   1.2637899431517E-08
(PID.TID 0000.0001) // =======================================================
(PID.TID 0000.0001) // End MONITOR dynamic field statistics
(PID.TID 0000.0001) // =======================================================
 EXTERNAL_FIELDS_LOAD,     36002 : iP,iLd,i0,i1=   12    1   12    1 ; Wght=  0.4333333333  0.5666666667
 cg2d: Sum(rhs),rhsMax =   1.04119888307703E-02  2.75568504609656E+00
(PID.TID 0000.0001)                    cg2d_init_res =    1.75829710021992E-02
(PID.TID 0000.0001)                       cg2d_iters =   119
(PID.TID 0000.0001)                         cg2d_res =    8.97705393624166E-14
(PID.TID 0000.0001) // =======================================================
(PID.TID 0000.0001) // Begin MONITOR dynamic field statistics
(PID.TID 0000.0001) // =======================================================
(PID.TID 0000.0001) %MON time_tsnumber                =                 36003
(PID.TID 0000.0001) %MON time_secondsf                =   3.1106592000000E+09
(PID.TID 0000.0001) %MON dynstat_eta_max              =   9.6534382266981E-01
(PID.TID 0000.0001) %MON dynstat_eta_min              =  -1.6633997182250E+00
(PID.TID 0000.0001) %MON dynstat_eta_mean             =  -1.9688030547036E-04
(PID.TID 0000.0001) %MON dynstat_eta_sd               =   6.1179350568674E-01
(PID.TID 0000.0001) %MON dynstat_eta_del2             =   2.6576615551273E-03
(PID.TID 0000.0001) %MON dynstat_uvel_max             =   1.4420436335381E-01
(PID.TID 0000.0001) %MON dynstat_uvel_min             =  -1.9111855327231E-01
(PID.TID 0000.0001) %MON dynstat_uvel_mean            =   2.1577509870243E-03
(PID.TID 0000.0001) %MON dynstat_uvel_sd              =   1.2208626396448E-02
(PID.TID 0000.0001) %MON dynstat_uvel_del2            =   7.5207978287833E-05
(PID.TID 0000.0001) %MON dynstat_vvel_max             =   1.2226946691237E-01
(PID.TID 0000.0001) %MON dynstat_vvel_min             =  -1.3234894731278E-01
(PID.TID 0000.0001) %MON dynstat_vvel_mean            =  -1.2871398239709E-07
(PID.TID 0000.0001) %MON dynstat_vvel_sd              =   6.0686508564904E-03
(PID.TID 0000.0001) %MON dynstat_vvel_del2            =   5.6066838732107E-05
(PID.TID 0000.0001) %MON dynstat_wvel_max             =   2.3671819793822E-05
(PID.TID 0000.0001) %MON dynstat_wvel_min             =  -4.8783035644000E-05
(PID.TID 0000.0001) %MON dynstat_wvel_mean            =   4.0673267688329E-10
(PID.TID 0000.0001) %MON dynstat_wvel_sd              =   1.6989420536254E-06
(PID.TID 0000.0001) %MON dynstat_wvel_del2            =   2.0136133030998E-08
(PID.TID 0000.0001) %MON dynstat_theta_max            =   3.0442634176642E+01
(PID.TID 0000.0001) %MON dynstat_theta_min            =  -2.6414832749000E+00
(PID.TID 0000.0001) %MON dynstat_theta_mean           =   3.9390712723510E+00
(PID.TID 0000.0001) %MON dynstat_theta_sd             =   4.5463530287303E+00
(PID.TID 0000.0001) %MON dynstat_theta_del2           =   5.6625033773895E-03
(PID.TID 0000.0001) %MON dynstat_salt_max             =   3.7495823376537E+01
(PID.TID 0000.0001) %MON dynstat_salt_min             =   2.9585051790519E+01
(PID.TID 0000.0001) %MON dynstat_salt_mean            =   3.4731872414465E+01
(PID.TID 0000.0001) %MON dynstat_salt_sd              =   2.9656458799426E-01
(PID.TID 0000.0001) %MON dynstat_salt_del2            =   1.0340836456151E-03
(PID.TID 0000.0001) %MON forcing_qnet_max             =   4.2798718261719E+02
(PID.TID 0000.0001) %MON forcing_qnet_min             =  -1.8609266001383E+02
(PID.TID 0000.0001) %MON forcing_qnet_mean            =  -1.6675181426744E+01
(PID.TID 0000.0001) %MON forcing_qnet_sd              =   1.1242481361476E+02
(PID.TID 0000.0001) %MON forcing_qnet_del2            =   9.9305199082959E-01
(PID.TID 0000.0001) %MON forcing_qsw_max              =   0.0000000000000E+00
(PID.TID 0000.0001) %MON forcing_qsw_min              =   0.0000000000000E+00
(PID.TID 0000.0001) %MON forcing_qsw_mean             =   0.0000000000000E+00
(PID.TID 0000.0001) %MON forcing_qsw_sd               =   0.0000000000000E+00
(PID.TID 0000.0001) %MON forcing_qsw_del2             =   0.0000000000000E+00
(PID.TID 0000.0001) %MON forcing_empmr_max            =   8.2732094597304E-05
(PID.TID 0000.0001) %MON forcing_empmr_min            =  -7.3643138875923E-05
(PID.TID 0000.0001) %MON forcing_empmr_mean           =   7.9593021141906E-07
(PID.TID 0000.0001) %MON forcing_empmr_sd             =   2.7874041013016E-05
(PID.TID 0000.0001) %MON forcing_empmr_del2           =   3.6331922792719E-07
(PID.TID 0000.0001) %MON forcing_fu_max               =   2.7317289412022E-01
(PID.TID 0000.0001) %MON forcing_fu_min               =  -1.6030610948801E-01
(PID.TID 0000.0001) %MON forcing_fu_mean              =   1.6101741826049E-02
(PID.TID 0000.0001) %MON forcing_fu_sd                =   9.0133772222350E-02
(PID.TID 0000.0001) %MON forcing_fu_del2              =   6.5664222090357E-04
(PID.TID 0000.0001) %MON forcing_fv_max               =   2.0930016835531E-01
(PID.TID 0000.0001) %MON forcing_fv_min               =  -1.8573744744062E-01
(PID.TID 0000.0001) %MON forcing_fv_mean              =  -6.2178105886955E-03
(PID.TID 0000.0001) %MON forcing_fv_sd                =   4.5379778517573E-02
(PID.TID 0000.0001) %MON forcing_fv_del2              =   4.4636987924417E-04
(PID.TID 0000.0001) %MON advcfl_uvel_max              =   4.3791499178955E-02
(PID.TID 0000.0001) %MON advcfl_vvel_max              =   2.5713277840951E-02
(PID.TID 0000.0001) %MON advcfl_wvel_max              =   1.9393978267158E-02
(PID.TID 0000.0001) %MON advcfl_W_hf_max              =   2.3215401104547E-02
(PID.TID 0000.0001) %MON pe_b_mean                    =   4.7895089044950E-04
(PID.TID 0000.0001) %MON ke_max                       =   1.8246881749468E-02
(PID.TID 0000.0001) %MON ke_mean                      =   8.6365107187868E-05
(PID.TID 0000.0001) %MON ke_vol                       =   1.3226781986633E+18
(PID.TID 0000.0001) %MON vort_r_min                   =  -3.9740206086880E-07
(PID.TID 0000.0001) %MON vort_r_max                   =   4.5974451259748E-07
(PID.TID 0000.0001) %MON vort_a_mean                  =  -2.5274807089260E-05
(PID.TID 0000.0001) %MON vort_a_sd                    =   7.3604636578674E-05
(PID.TID 0000.0001) %MON vort_p_mean                  =  -3.1845611994624E-05
(PID.TID 0000.0001) %MON vort_p_sd                    =   1.3163812897413E-04
(PID.TID 0000.0001) %MON surfExpan_theta_mean         =   5.9031777370824E-08
(PID.TID 0000.0001) %MON surfExpan_salt_mean          =   1.2513130375568E-08
(PID.TID 0000.0001) // =======================================================
(PID.TID 0000.0001) // End MONITOR dynamic field statistics
(PID.TID 0000.0001) // =======================================================
 EXTERNAL_FIELDS_LOAD,     36003 : iP,iLd,i0,i1=   12    1   12    1 ; Wght=  0.4000000000  0.6000000000
 cg2d: Sum(rhs),rhsMax =   1.39670064958057E-02  2.75606693880286E+00
(PID.TID 0000.0001)                    cg2d_init_res =    1.59468242299662E-02
(PID.TID 0000.0001)                       cg2d_iters =   118
(PID.TID 0000.0001)                         cg2d_res =    9.50995105462741E-14
(PID.TID 0000.0001) // =======================================================
(PID.TID 0000.0001) // Begin MONITOR dynamic field statistics
(PID.TID 0000.0001) // =======================================================
(PID.TID 0000.0001) %MON time_tsnumber                =                 36004
(PID.TID 0000.0001) %MON time_secondsf                =   3.1107456000000E+09
(PID.TID 0000.0001) %MON dynstat_eta_max              =   9.6441146058483E-01
(PID.TID 0000.0001) %MON dynstat_eta_min              =  -1.6625903217997E+00
(PID.TID 0000.0001) %MON dynstat_eta_mean             =  -2.6413873767887E-04
(PID.TID 0000.0001) %MON dynstat_eta_sd               =   6.1160553235061E-01
(PID.TID 0000.0001) %MON dynstat_eta_del2             =   2.6573599708432E-03
(PID.TID 0000.0001) %MON dynstat_uvel_max             =   1.4398552595209E-01
(PID.TID 0000.0001) %MON dynstat_uvel_min             =  -1.9034682741038E-01
(PID.TID 0000.0001) %MON dynstat_uvel_mean            =   2.1559609337776E-03
(PID.TID 0000.0001) %MON dynstat_uvel_sd              =   1.2198717041475E-02
(PID.TID 0000.0001) %MON dynstat_uvel_del2            =   7.5130309456283E-05
(PID.TID 0000.0001) %MON dynstat_vvel_max             =   1.2221179749381E-01
(PID.TID 0000.0001) %MON dynstat_vvel_min             =  -1.3202225678341E-01
(PID.TID 0000.0001) %MON dynstat_vvel_mean            =  -8.4468888664573E-07
(PID.TID 0000.0001) %MON dynstat_vvel_sd              =   6.0639998093496E-03
(PID.TID 0000.0001) %MON dynstat_vvel_del2            =   5.5986351796252E-05
(PID.TID 0000.0001) %MON dynstat_wvel_max             =   2.3753194467381E-05
(PID.TID 0000.0001) %MON dynstat_wvel_min             =  -4.8587740135268E-05
(PID.TID 0000.0001) %MON dynstat_wvel_mean            =   3.7834450253033E-10
(PID.TID 0000.0001) %MON dynstat_wvel_sd              =   1.7072676286372E-06
(PID.TID 0000.0001) %MON dynstat_wvel_del2            =   2.0246738029694E-08
(PID.TID 0000.0001) %MON dynstat_theta_max            =   3.0443778877586E+01
(PID.TID 0000.0001) %MON dynstat_theta_min            =  -2.6417096867103E+00
(PID.TID 0000.0001) %MON dynstat_theta_mean           =   3.9391604148240E+00
(PID.TID 0000.0001) %MON dynstat_theta_sd             =   4.5464282845767E+00
(PID.TID 0000.0001) %MON dynstat_theta_del2           =   5.6584397031462E-03
(PID.TID 0000.0001) %MON dynstat_salt_max             =   3.7495077736860E+01
(PID.TID 0000.0001) %MON dynstat_salt_min             =   2.9586604649414E+01
(PID.TID 0000.0001) %MON dynstat_salt_mean            =   3.4731873939823E+01
(PID.TID 0000.0001) %MON dynstat_salt_sd              =   2.9655647828669E-01
(PID.TID 0000.0001) %MON dynstat_salt_del2            =   1.0329705982270E-03
(PID.TID 0000.0001) %MON forcing_qnet_max             =   4.2903536987305E+02
(PID.TID 0000.0001) %MON forcing_qnet_min             =  -1.8562549743652E+02
(PID.TID 0000.0001) %MON forcing_qnet_mean            =  -1.6662669470921E+01
(PID.TID 0000.0001) %MON forcing_qnet_sd              =   1.1221272517031E+02
(PID.TID 0000.0001) %MON forcing_qnet_del2            =   9.9444386812388E-01
(PID.TID 0000.0001) %MON forcing_qsw_max              =   0.0000000000000E+00
(PID.TID 0000.0001) %MON forcing_qsw_min              =   0.0000000000000E+00
(PID.TID 0000.0001) %MON forcing_qsw_mean             =   0.0000000000000E+00
(PID.TID 0000.0001) %MON forcing_qsw_sd               =   0.0000000000000E+00
(PID.TID 0000.0001) %MON forcing_qsw_del2             =   0.0000000000000E+00
(PID.TID 0000.0001) %MON forcing_empmr_max            =   8.2476260843123E-05
(PID.TID 0000.0001) %MON forcing_empmr_min            =  -7.3379955267683E-05
(PID.TID 0000.0001) %MON forcing_empmr_mean           =   8.0569996916457E-07
(PID.TID 0000.0001) %MON forcing_empmr_sd             =   2.7920083767862E-05
(PID.TID 0000.0001) %MON forcing_empmr_del2           =   3.6296416696684E-07
(PID.TID 0000.0001) %MON forcing_fu_max               =   2.7231434583664E-01
(PID.TID 0000.0001) %MON forcing_fu_min               =  -1.6111952960491E-01
(PID.TID 0000.0001) %MON forcing_fu_mean              =   1.6094049005012E-02
(PID.TID 0000.0001) %MON forcing_fu_sd                =   9.0140377513934E-02
(PID.TID 0000.0001) %MON forcing_fu_del2              =   6.5893332094781E-04
(PID.TID 0000.0001) %MON forcing_fv_max               =   2.1056245863438E-01
(PID.TID 0000.0001) %MON forcing_fv_min               =  -1.8515278995037E-01
(PID.TID 0000.0001) %MON forcing_fv_mean              =  -6.1440480618347E-03
(PID.TID 0000.0001) %MON forcing_fv_sd                =   4.5513649503191E-02
(PID.TID 0000.0001) %MON forcing_fv_del2              =   4.4740184358134E-04
(PID.TID 0000.0001) %MON advcfl_uvel_max              =   4.3759360219834E-02
(PID.TID 0000.0001) %MON advcfl_vvel_max              =   2.5649807110582E-02
(PID.TID 0000.0001) %MON advcfl_wvel_max              =   1.9333610936698E-02
(PID.TID 0000.0001) %MON advcfl_W_hf_max              =   2.2914673326540E-02
(PID.TID 0000.0001) %MON pe_b_mean                    =   4.7865666868859E-04
(PID.TID 0000.0001) %MON ke_max                       =   1.8082855123512E-02
(PID.TID 0000.0001) %MON ke_mean                      =   8.6226384491806E-05
(PID.TID 0000.0001) %MON ke_vol                       =   1.3226781757365E+18
(PID.TID 0000.0001) %MON vort_r_min                   =  -3.9597424111753E-07
(PID.TID 0000.0001) %MON vort_r_max                   =   4.5708927298224E-07
(PID.TID 0000.0001) %MON vort_a_mean                  =  -2.5274807090352E-05
(PID.TID 0000.0001) %MON vort_a_sd                    =   7.3604636518289E-05
(PID.TID 0000.0001) %MON vort_p_mean                  =  -3.1845612572121E-05
(PID.TID 0000.0001) %MON vort_p_sd                    =   1.3163812416867E-04
(PID.TID 0000.0001) %MON surfExpan_theta_mean         =   5.7172679926194E-08
(PID.TID 0000.0001) %MON surfExpan_salt_mean          =   1.2360872055473E-08
(PID.TID 0000.0001) // =======================================================
(PID.TID 0000.0001) // End MONITOR dynamic field statistics
(PID.TID 0000.0001) // =======================================================
 EXTERNAL_FIELDS_LOAD,     36004 : iP,iLd,i0,i1=   12    1   12    1 ; Wght=  0.3666666667  0.6333333333
 cg2d: Sum(rhs),rhsMax =   1.75642501539814E-02  2.75643437826392E+00
(PID.TID 0000.0001)                    cg2d_init_res =    1.62062610176531E-02
(PID.TID 0000.0001)                       cg2d_iters =   118
(PID.TID 0000.0001)                         cg2d_res =    9.31683515672399E-14
(PID.TID 0000.0001) // =======================================================
(PID.TID 0000.0001) // Begin MONITOR dynamic field statistics
(PID.TID 0000.0001) // =======================================================
(PID.TID 0000.0001) %MON time_tsnumber                =                 36005
(PID.TID 0000.0001) %MON time_secondsf                =   3.1108320000000E+09
(PID.TID 0000.0001) %MON dynstat_eta_max              =   9.6339503227159E-01
(PID.TID 0000.0001) %MON dynstat_eta_min              =  -1.6617195199218E+00
(PID.TID 0000.0001) %MON dynstat_eta_mean             =  -3.3221273227319E-04
(PID.TID 0000.0001) %MON dynstat_eta_sd               =   6.1139996000419E-01
(PID.TID 0000.0001) %MON dynstat_eta_del2             =   2.6572612067181E-03
(PID.TID 0000.0001) %MON dynstat_uvel_max             =   1.4376792648247E-01
(PID.TID 0000.0001) %MON dynstat_uvel_min             =  -1.8956172837581E-01
(PID.TID 0000.0001) %MON dynstat_uvel_mean            =   2.1542608825622E-03
(PID.TID 0000.0001) %MON dynstat_uvel_sd              =   1.2187872553716E-02
(PID.TID 0000.0001) %MON dynstat_uvel_del2            =   7.5043813058184E-05
(PID.TID 0000.0001) %MON dynstat_vvel_max             =   1.2213418337844E-01
(PID.TID 0000.0001) %MON dynstat_vvel_min             =  -1.3167309073571E-01
(PID.TID 0000.0001) %MON dynstat_vvel_mean            =  -1.4645891327256E-06
(PID.TID 0000.0001) %MON dynstat_vvel_sd              =   6.0593184148245E-03
(PID.TID 0000.0001) %MON dynstat_vvel_del2            =   5.5903040603486E-05
(PID.TID 0000.0001) %MON dynstat_wvel_max             =   2.3844908083341E-05
(PID.TID 0000.0001) %MON dynstat_wvel_min             =  -4.8377373022940E-05
(PID.TID 0000.0001) %MON dynstat_wvel_mean            =   3.6067227864965E-10
(PID.TID 0000.0001) %MON dynstat_wvel_sd              =   1.7132724685551E-06
(PID.TID 0000.0001) %MON dynstat_wvel_del2            =   2.0303699257375E-08
(PID.TID 0000.0001) %MON dynstat_theta_max            =   3.0444405977319E+01
(PID.TID 0000.0001) %MON dynstat_theta_min            =  -2.6441284319645E+00
(PID.TID 0000.0001) %MON dynstat_theta_mean           =   3.9392498497026E+00
(PID.TID 0000.0001) %MON dynstat_theta_sd             =   4.5465081631724E+00
(PID.TID 0000.0001) %MON dynstat_theta_del2           =   5.6560930201074E-03
(PID.TID 0000.0001) %MON dynstat_salt_max             =   3.7494318811331E+01
(PID.TID 0000.0001) %MON dynstat_salt_min             =   2.9588170397018E+01
(PID.TID 0000.0001) %MON dynstat_salt_mean            =   3.4731875490631E+01
(PID.TID 0000.0001) %MON dynstat_salt_sd              =   2.9654697449554E-01
(PID.TID 0000.0001) %MON dynstat_salt_del2            =   1.0321402308439E-03
(PID.TID 0000.0001) %MON forcing_qnet_max             =   4.3008355712891E+02
(PID.TID 0000.0001) %MON forcing_qnet_min             =  -1.8515833485921E+02
(PID.TID 0000.0001) %MON forcing_qnet_mean            =  -1.6650157515098E+01
(PID.TID 0000.0001) %MON forcing_qnet_sd              =   1.1200321531664E+02
(PID.TID 0000.0001) %MON forcing_qnet_del2            =   9.9601163526981E-01
(PID.TID 0000.0001) %MON forcing_qsw_max              =   0.0000000000000E+00
(PID.TID 0000.0001) %MON forcing_qsw_min              =   0.0000000000000E+00
(PID.TID 0000.0001) %MON forcing_qsw_mean             =   0.0000000000000E+00
(PID.TID 0000.0001) %MON forcing_qsw_sd               =   0.0000000000000E+00
(PID.TID 0000.0001) %MON forcing_qsw_del2             =   0.0000000000000E+00
(PID.TID 0000.0001) %MON forcing_empmr_max            =   8.2220427088942E-05
(PID.TID 0000.0001) %MON forcing_empmr_min            =  -7.3116771659443E-05
(PID.TID 0000.0001) %MON forcing_empmr_mean           =   8.1546972691007E-07
(PID.TID 0000.0001) %MON forcing_empmr_sd             =   2.7970424919056E-05
(PID.TID 0000.0001) %MON forcing_empmr_del2           =   3.6272300962791E-07
(PID.TID 0000.0001) %MON forcing_fu_max               =   2.7145579755306E-01
(PID.TID 0000.0001) %MON forcing_fu_min               =  -1.6193294972181E-01
(PID.TID 0000.0001) %MON forcing_fu_mean              =   1.6086356183975E-02
(PID.TID 0000.0001) %MON forcing_fu_sd                =   9.0157845327697E-02
(PID.TID 0000.0001) %MON forcing_fu_del2              =   6.6174969745051E-04
(PID.TID 0000.0001) %MON forcing_fv_max               =   2.1244236379862E-01
(PID.TID 0000.0001) %MON forcing_fv_min               =  -1.8456813246012E-01
(PID.TID 0000.0001) %MON forcing_fv_mean              =  -6.0702855349739E-03
(PID.TID 0000.0001) %MON forcing_fv_sd                =   4.5662631572644E-02
(PID.TID 0000.0001) %MON forcing_fv_del2              =   4.4897783530480E-04
(PID.TID 0000.0001) %MON advcfl_uvel_max              =   4.3716331566809E-02
(PID.TID 0000.0001) %MON advcfl_vvel_max              =   2.5581969747464E-02
(PID.TID 0000.0001) %MON advcfl_wvel_max              =   1.9284981077061E-02
(PID.TID 0000.0001) %MON advcfl_W_hf_max              =   2.2608850585782E-02
(PID.TID 0000.0001) %MON pe_b_mean                    =   4.7833501179761E-04
(PID.TID 0000.0001) %MON ke_max                       =   1.7917263226018E-02
(PID.TID 0000.0001) %MON ke_mean                      =   8.6077428506343E-05
(PID.TID 0000.0001) %MON ke_vol                       =   1.3226781525282E+18
(PID.TID 0000.0001) %MON vort_r_min                   =  -3.9450333332946E-07
(PID.TID 0000.0001) %MON vort_r_max                   =   4.5793247435311E-07
(PID.TID 0000.0001) %MON vort_a_mean                  =  -2.5274807088589E-05
(PID.TID 0000.0001) %MON vort_a_sd                    =   7.3604636517109E-05
(PID.TID 0000.0001) %MON vort_p_mean                  =  -3.1845613134912E-05
(PID.TID 0000.0001) %MON vort_p_sd                    =   1.3163811948864E-04
(PID.TID 0000.0001) %MON surfExpan_theta_mean         =   5.6206331329680E-08
(PID.TID 0000.0001) %MON surfExpan_salt_mean          =   1.2249998843447E-08
(PID.TID 0000.0001) // =======================================================
(PID.TID 0000.0001) // End MONITOR dynamic field statistics
(PID.TID 0000.0001) // =======================================================
 EXTERNAL_FIELDS_LOAD,     36005 : iP,iLd,i0,i1=   12    1   12    1 ; Wght=  0.3333333333  0.6666666667
 cg2d: Sum(rhs),rhsMax =   2.12025119697400E-02  2.75694957049550E+00
(PID.TID 0000.0001)                    cg2d_init_res =    1.64846817088774E-02
(PID.TID 0000.0001)                       cg2d_iters =   119
(PID.TID 0000.0001)                         cg2d_res =    8.05893919727660E-14
(PID.TID 0000.0001) // =======================================================
(PID.TID 0000.0001) // Begin MONITOR dynamic field statistics
(PID.TID 0000.0001) // =======================================================
(PID.TID 0000.0001) %MON time_tsnumber                =                 36006
(PID.TID 0000.0001) %MON time_secondsf                =   3.1109184000000E+09
(PID.TID 0000.0001) %MON dynstat_eta_max              =   9.6227578217003E-01
(PID.TID 0000.0001) %MON dynstat_eta_min              =  -1.6608557825131E+00
(PID.TID 0000.0001) %MON dynstat_eta_mean             =  -4.0110228925307E-04
(PID.TID 0000.0001) %MON dynstat_eta_sd               =   6.1119965519310E-01
(PID.TID 0000.0001) %MON dynstat_eta_del2             =   2.6571527633632E-03
(PID.TID 0000.0001) %MON dynstat_uvel_max             =   1.4355474110201E-01
(PID.TID 0000.0001) %MON dynstat_uvel_min             =  -1.8876377520839E-01
(PID.TID 0000.0001) %MON dynstat_uvel_mean            =   2.1525950124394E-03
(PID.TID 0000.0001) %MON dynstat_uvel_sd              =   1.2176478836150E-02
(PID.TID 0000.0001) %MON dynstat_uvel_del2            =   7.4950292110192E-05
(PID.TID 0000.0001) %MON dynstat_vvel_max             =   1.2203881955311E-01
(PID.TID 0000.0001) %MON dynstat_vvel_min             =  -1.3130114474743E-01
(PID.TID 0000.0001) %MON dynstat_vvel_mean            =  -1.9093989687946E-06
(PID.TID 0000.0001) %MON dynstat_vvel_sd              =   6.0546596207075E-03
(PID.TID 0000.0001) %MON dynstat_vvel_del2            =   5.5818702096340E-05
(PID.TID 0000.0001) %MON dynstat_wvel_max             =   2.3934082658606E-05
(PID.TID 0000.0001) %MON dynstat_wvel_min             =  -4.8167835969756E-05
(PID.TID 0000.0001) %MON dynstat_wvel_mean            =   3.5033468340780E-10
(PID.TID 0000.0001) %MON dynstat_wvel_sd              =   1.7161067196230E-06
(PID.TID 0000.0001) %MON dynstat_wvel_del2            =   2.0304967407525E-08
(PID.TID 0000.0001) %MON dynstat_theta_max            =   3.0444517653838E+01
(PID.TID 0000.0001) %MON dynstat_theta_min            =  -2.6443214991717E+00
(PID.TID 0000.0001) %MON dynstat_theta_mean           =   3.9393395388864E+00
(PID.TID 0000.0001) %MON dynstat_theta_sd             =   4.5465933835161E+00
(PID.TID 0000.0001) %MON dynstat_theta_del2           =   5.6523218060111E-03
(PID.TID 0000.0001) %MON dynstat_salt_max             =   3.7493549800038E+01
(PID.TID 0000.0001) %MON dynstat_salt_min             =   2.9589749326634E+01
(PID.TID 0000.0001) %MON dynstat_salt_mean            =   3.4731877071346E+01
(PID.TID 0000.0001) %MON dynstat_salt_sd              =   2.9653670475520E-01
(PID.TID 0000.0001) %MON dynstat_salt_del2            =   1.0307981304076E-03
(PID.TID 0000.0001) %MON forcing_qnet_max             =   4.3113174438477E+02
(PID.TID 0000.0001) %MON forcing_qnet_min             =  -1.8469117228190E+02
(PID.TID 0000.0001) %MON forcing_qnet_mean            =  -1.6637645559275E+01
(PID.TID 0000.0001) %MON forcing_qnet_sd              =   1.1179629855085E+02
(PID.TID 0000.0001) %MON forcing_qnet_del2            =   9.9775446314289E-01
(PID.TID 0000.0001) %MON forcing_qsw_max              =   0.0000000000000E+00
(PID.TID 0000.0001) %MON forcing_qsw_min              =   0.0000000000000E+00
(PID.TID 0000.0001) %MON forcing_qsw_mean             =   0.0000000000000E+00
(PID.TID 0000.0001) %MON forcing_qsw_sd               =   0.0000000000000E+00
(PID.TID 0000.0001) %MON forcing_qsw_del2             =   0.0000000000000E+00
(PID.TID 0000.0001) %MON forcing_empmr_max            =   8.1964593334760E-05
(PID.TID 0000.0001) %MON forcing_empmr_min            =  -7.2853588051203E-05
(PID.TID 0000.0001) %MON forcing_empmr_mean           =   8.2523948465558E-07
(PID.TID 0000.0001) %MON forcing_empmr_sd             =   2.8025041303087E-05
(PID.TID 0000.0001) %MON forcing_empmr_del2           =   3.6259598317743E-07
(PID.TID 0000.0001) %MON forcing_fu_max               =   2.7059724926949E-01
(PID.TID 0000.0001) %MON forcing_fu_min               =  -1.6274636983871E-01
(PID.TID 0000.0001) %MON forcing_fu_mean              =   1.6078663362938E-02
(PID.TID 0000.0001) %MON forcing_fu_sd                =   9.0186169351879E-02
(PID.TID 0000.0001) %MON forcing_fu_del2              =   6.6508467741693E-04
(PID.TID 0000.0001) %MON forcing_fv_max               =   2.1432226896286E-01
(PID.TID 0000.0001) %MON forcing_fv_min               =  -1.8398347496986E-01
(PID.TID 0000.0001) %MON forcing_fv_mean              =  -5.9965230081131E-03
(PID.TID 0000.0001) %MON forcing_fv_sd                =   4.5826577347902E-02
(PID.TID 0000.0001) %MON forcing_fv_del2              =   4.5109215240509E-04
(PID.TID 0000.0001) %MON advcfl_uvel_max              =   4.3664379393415E-02
(PID.TID 0000.0001) %MON advcfl_vvel_max              =   2.5509706607237E-02
(PID.TID 0000.0001) %MON advcfl_wvel_max              =   1.9250244948386E-02
(PID.TID 0000.0001) %MON advcfl_W_hf_max              =   2.2298213618918E-02
(PID.TID 0000.0001) %MON pe_b_mean                    =   4.7802171532880E-04
(PID.TID 0000.0001) %MON ke_max                       =   1.7750304869523E-02
(PID.TID 0000.0001) %MON ke_mean                      =   8.5922714719804E-05
(PID.TID 0000.0001) %MON ke_vol                       =   1.3226781290385E+18
(PID.TID 0000.0001) %MON vort_r_min                   =  -3.9300019374005E-07
(PID.TID 0000.0001) %MON vort_r_max                   =   4.5951717072175E-07
(PID.TID 0000.0001) %MON vort_a_mean                  =  -2.5274807090624E-05
(PID.TID 0000.0001) %MON vort_a_sd                    =   7.3604636489240E-05
(PID.TID 0000.0001) %MON vort_p_mean                  =  -3.1845613690487E-05
(PID.TID 0000.0001) %MON vort_p_sd                    =   1.3163811319071E-04
(PID.TID 0000.0001) %MON surfExpan_theta_mean         =   5.5865801370675E-08
(PID.TID 0000.0001) %MON surfExpan_salt_mean          =   1.2195515669027E-08
(PID.TID 0000.0001) // =======================================================
(PID.TID 0000.0001) // End MONITOR dynamic field statistics
(PID.TID 0000.0001) // =======================================================
 EXTERNAL_FIELDS_LOAD,     36006 : iP,iLd,i0,i1=   12    1   12    1 ; Wght=  0.3000000000  0.7000000000
 cg2d: Sum(rhs),rhsMax =   2.48814327685709E-02  2.75758495991033E+00
(PID.TID 0000.0001)                    cg2d_init_res =    1.70613041850447E-02
(PID.TID 0000.0001)                       cg2d_iters =   119
(PID.TID 0000.0001)                         cg2d_res =    8.27691777417970E-14
(PID.TID 0000.0001) // =======================================================
(PID.TID 0000.0001) // Begin MONITOR dynamic field statistics
(PID.TID 0000.0001) // =======================================================
(PID.TID 0000.0001) %MON time_tsnumber                =                 36007
(PID.TID 0000.0001) %MON time_secondsf                =   3.1110048000000E+09
(PID.TID 0000.0001) %MON dynstat_eta_max              =   9.6105867067350E-01
(PID.TID 0000.0001) %MON dynstat_eta_min              =  -1.6600069010764E+00
(PID.TID 0000.0001) %MON dynstat_eta_mean             =  -4.7080740861903E-04
(PID.TID 0000.0001) %MON dynstat_eta_sd               =   6.1100946277067E-01
(PID.TID 0000.0001) %MON dynstat_eta_del2             =   2.6570691132677E-03
(PID.TID 0000.0001) %MON dynstat_uvel_max             =   1.4334898940804E-01
(PID.TID 0000.0001) %MON dynstat_uvel_min             =  -1.8795347237464E-01
(PID.TID 0000.0001) %MON dynstat_uvel_mean            =   2.1509211169312E-03
(PID.TID 0000.0001) %MON dynstat_uvel_sd              =   1.2164941886905E-02
(PID.TID 0000.0001) %MON dynstat_uvel_del2            =   7.4852128903764E-05
(PID.TID 0000.0001) %MON dynstat_vvel_max             =   1.2192896887421E-01
(PID.TID 0000.0001) %MON dynstat_vvel_min             =  -1.3090671497446E-01
(PID.TID 0000.0001) %MON dynstat_vvel_mean            =  -2.1441749636396E-06
(PID.TID 0000.0001) %MON dynstat_vvel_sd              =   6.0500851801234E-03
(PID.TID 0000.0001) %MON dynstat_vvel_del2            =   5.5733941456941E-05
(PID.TID 0000.0001) %MON dynstat_wvel_max             =   2.4011127349748E-05
(PID.TID 0000.0001) %MON dynstat_wvel_min             =  -4.7964317950725E-05
(PID.TID 0000.0001) %MON dynstat_wvel_mean            =   3.4194705551479E-10
(PID.TID 0000.0001) %MON dynstat_wvel_sd              =   1.7159349310801E-06
(PID.TID 0000.0001) %MON dynstat_wvel_del2            =   2.0262770106888E-08
(PID.TID 0000.0001) %MON dynstat_theta_max            =   3.0444116524464E+01
(PID.TID 0000.0001) %MON dynstat_theta_min            =  -2.6431923743782E+00
(PID.TID 0000.0001) %MON dynstat_theta_mean           =   3.9394293647320E+00
(PID.TID 0000.0001) %MON dynstat_theta_sd             =   4.5466825903153E+00
(PID.TID 0000.0001) %MON dynstat_theta_del2           =   5.6496515508903E-03
(PID.TID 0000.0001) %MON dynstat_salt_max             =   3.7492773880851E+01
(PID.TID 0000.0001) %MON dynstat_salt_min             =   2.9591341711503E+01
(PID.TID 0000.0001) %MON dynstat_salt_mean            =   3.4731878666934E+01
(PID.TID 0000.0001) %MON dynstat_salt_sd              =   2.9652434852715E-01
(PID.TID 0000.0001) %MON dynstat_salt_del2            =   1.0300602002249E-03
(PID.TID 0000.0001) %MON forcing_qnet_max             =   4.3217993164063E+02
(PID.TID 0000.0001) %MON forcing_qnet_min             =  -1.8422400970459E+02
(PID.TID 0000.0001) %MON forcing_qnet_mean            =  -1.6625133603452E+01
(PID.TID 0000.0001) %MON forcing_qnet_sd              =   1.1159198929743E+02
(PID.TID 0000.0001) %MON forcing_qnet_del2            =   9.9967143614056E-01
(PID.TID 0000.0001) %MON forcing_qsw_max              =   0.0000000000000E+00
(PID.TID 0000.0001) %MON forcing_qsw_min              =   0.0000000000000E+00
(PID.TID 0000.0001) %MON forcing_qsw_mean             =   0.0000000000000E+00
(PID.TID 0000.0001) %MON forcing_qsw_sd               =   0.0000000000000E+00
(PID.TID 0000.0001) %MON forcing_qsw_del2             =   0.0000000000000E+00
(PID.TID 0000.0001) %MON forcing_empmr_max            =   8.1887607450426E-05
(PID.TID 0000.0001) %MON forcing_empmr_min            =  -7.2590404442963E-05
(PID.TID 0000.0001) %MON forcing_empmr_mean           =   8.3500924240108E-07
(PID.TID 0000.0001) %MON forcing_empmr_sd             =   2.8083907977094E-05
(PID.TID 0000.0001) %MON forcing_empmr_del2           =   3.6258320756835E-07
(PID.TID 0000.0001) %MON forcing_fu_max               =   2.6977391839027E-01
(PID.TID 0000.0001) %MON forcing_fu_min               =  -1.6355978995562E-01
(PID.TID 0000.0001) %MON forcing_fu_mean              =   1.6070970541901E-02
(PID.TID 0000.0001) %MON forcing_fu_sd                =   9.0225339362360E-02
(PID.TID 0000.0001) %MON forcing_fu_del2              =   6.6893050433667E-04
(PID.TID 0000.0001) %MON forcing_fv_max               =   2.1620217412710E-01
(PID.TID 0000.0001) %MON forcing_fv_min               =  -1.8339881747961E-01
(PID.TID 0000.0001) %MON forcing_fv_mean              =  -5.9227604812523E-03
(PID.TID 0000.0001) %MON forcing_fv_sd                =   4.6005326854092E-02
(PID.TID 0000.0001) %MON forcing_fv_del2              =   4.5373726950670E-04
(PID.TID 0000.0001) %MON advcfl_uvel_max              =   4.3605806887405E-02
(PID.TID 0000.0001) %MON advcfl_vvel_max              =   2.5433075228243E-02
(PID.TID 0000.0001) %MON advcfl_wvel_max              =   1.9228954792603E-02
(PID.TID 0000.0001) %MON advcfl_W_hf_max              =   2.1983031162771E-02
(PID.TID 0000.0001) %MON pe_b_mean                    =   4.7772434758017E-04
(PID.TID 0000.0001) %MON ke_max                       =   1.7582156000938E-02
(PID.TID 0000.0001) %MON ke_mean                      =   8.5767000023662E-05
(PID.TID 0000.0001) %MON ke_vol                       =   1.3226781052673E+18
(PID.TID 0000.0001) %MON vort_r_min                   =  -3.9146790521131E-07
(PID.TID 0000.0001) %MON vort_r_max                   =   4.6112150729687E-07
(PID.TID 0000.0001) %MON vort_a_mean                  =  -2.5274807087161E-05
(PID.TID 0000.0001) %MON vort_a_sd                    =   7.3604636517053E-05
(PID.TID 0000.0001) %MON vort_p_mean                  =  -3.1845614231494E-05
(PID.TID 0000.0001) %MON vort_p_sd                    =   1.3163811037820E-04
(PID.TID 0000.0001) %MON surfExpan_theta_mean         =   5.5853653020577E-08
(PID.TID 0000.0001) %MON surfExpan_salt_mean          =   1.2177035870922E-08
(PID.TID 0000.0001) // =======================================================
(PID.TID 0000.0001) // End MONITOR dynamic field statistics
(PID.TID 0000.0001) // =======================================================
 EXTERNAL_FIELDS_LOAD,     36007 : iP,iLd,i0,i1=   12    1   12    1 ; Wght=  0.2666666667  0.7333333333
 cg2d: Sum(rhs),rhsMax =   2.86009717110094E-02  2.75829539274514E+00
(PID.TID 0000.0001)                    cg2d_init_res =    1.73695807366025E-02
(PID.TID 0000.0001)                       cg2d_iters =   119
(PID.TID 0000.0001)                         cg2d_res =    9.60170171545207E-14
(PID.TID 0000.0001) // =======================================================
(PID.TID 0000.0001) // Begin MONITOR dynamic field statistics
(PID.TID 0000.0001) // =======================================================
(PID.TID 0000.0001) %MON time_tsnumber                =                 36008
(PID.TID 0000.0001) %MON time_secondsf                =   3.1110912000000E+09
(PID.TID 0000.0001) %MON dynstat_eta_max              =   9.5976340942192E-01
(PID.TID 0000.0001) %MON dynstat_eta_min              =  -1.6591671103062E+00
(PID.TID 0000.0001) %MON dynstat_eta_mean             =  -5.4132809037017E-04
(PID.TID 0000.0001) %MON dynstat_eta_sd               =   6.1082709045355E-01
(PID.TID 0000.0001) %MON dynstat_eta_del2             =   2.6569577605803E-03
(PID.TID 0000.0001) %MON dynstat_uvel_max             =   1.4315337278240E-01
(PID.TID 0000.0001) %MON dynstat_uvel_min             =  -1.8713122512794E-01
(PID.TID 0000.0001) %MON dynstat_uvel_mean            =   2.1492014758273E-03
(PID.TID 0000.0001) %MON dynstat_uvel_sd              =   1.2153655207090E-02
(PID.TID 0000.0001) %MON dynstat_uvel_del2            =   7.4751629662544E-05
(PID.TID 0000.0001) %MON dynstat_vvel_max             =   1.2180882136688E-01
(PID.TID 0000.0001) %MON dynstat_vvel_min             =  -1.3049048728643E-01
(PID.TID 0000.0001) %MON dynstat_vvel_mean            =  -2.1890409411700E-06
(PID.TID 0000.0001) %MON dynstat_vvel_sd              =   6.0456605383527E-03
(PID.TID 0000.0001) %MON dynstat_vvel_del2            =   5.5649803904614E-05
(PID.TID 0000.0001) %MON dynstat_wvel_max             =   2.4067173230395E-05
(PID.TID 0000.0001) %MON dynstat_wvel_min             =  -4.7826967401041E-05
(PID.TID 0000.0001) %MON dynstat_wvel_mean            =   3.3429591629341E-10
(PID.TID 0000.0001) %MON dynstat_wvel_sd              =   1.7130330298145E-06
(PID.TID 0000.0001) %MON dynstat_wvel_del2            =   2.0200132813686E-08
(PID.TID 0000.0001) %MON dynstat_theta_max            =   3.0443205690565E+01
(PID.TID 0000.0001) %MON dynstat_theta_min            =  -2.6430609322625E+00
(PID.TID 0000.0001) %MON dynstat_theta_mean           =   3.9395193721555E+00
(PID.TID 0000.0001) %MON dynstat_theta_sd             =   4.5467753588980E+00
(PID.TID 0000.0001) %MON dynstat_theta_del2           =   5.6494919189244E-03
(PID.TID 0000.0001) %MON dynstat_salt_max             =   3.7491994196477E+01
(PID.TID 0000.0001) %MON dynstat_salt_min             =   2.9592947783791E+01
(PID.TID 0000.0001) %MON dynstat_salt_mean            =   3.4731880289111E+01
(PID.TID 0000.0001) %MON dynstat_salt_sd              =   2.9650967036691E-01
(PID.TID 0000.0001) %MON dynstat_salt_del2            =   1.0332938568999E-03
(PID.TID 0000.0001) %MON forcing_qnet_max             =   4.3322811889648E+02
(PID.TID 0000.0001) %MON forcing_qnet_min             =  -1.8375684712728E+02
(PID.TID 0000.0001) %MON forcing_qnet_mean            =  -1.6612621647628E+01
(PID.TID 0000.0001) %MON forcing_qnet_sd              =   1.1139030190430E+02
(PID.TID 0000.0001) %MON forcing_qnet_del2            =   1.0017615545299E+00
(PID.TID 0000.0001) %MON forcing_qsw_max              =   0.0000000000000E+00
(PID.TID 0000.0001) %MON forcing_qsw_min              =   0.0000000000000E+00
(PID.TID 0000.0001) %MON forcing_qsw_mean             =   0.0000000000000E+00
(PID.TID 0000.0001) %MON forcing_qsw_sd               =   0.0000000000000E+00
(PID.TID 0000.0001) %MON forcing_qsw_del2             =   0.0000000000000E+00
(PID.TID 0000.0001) %MON forcing_empmr_max            =   8.1889273909989E-05
(PID.TID 0000.0001) %MON forcing_empmr_min            =  -7.2333472189712E-05
(PID.TID 0000.0001) %MON forcing_empmr_mean           =   8.4477900014658E-07
(PID.TID 0000.0001) %MON forcing_empmr_sd             =   2.8146998273902E-05
(PID.TID 0000.0001) %MON forcing_empmr_del2           =   3.6268469487418E-07
(PID.TID 0000.0001) %MON forcing_fu_max               =   2.6985520720482E-01
(PID.TID 0000.0001) %MON forcing_fu_min               =  -1.6437321007252E-01
(PID.TID 0000.0001) %MON forcing_fu_mean              =   1.6063277720863E-02
(PID.TID 0000.0001) %MON forcing_fu_sd                =   9.0275341241088E-02
(PID.TID 0000.0001) %MON forcing_fu_del2              =   6.7327842425542E-04
(PID.TID 0000.0001) %MON forcing_fv_max               =   2.1808207929134E-01
(PID.TID 0000.0001) %MON forcing_fv_min               =  -1.8281415998936E-01
(PID.TID 0000.0001) %MON forcing_fv_mean              =  -5.8489979543915E-03
(PID.TID 0000.0001) %MON forcing_fv_sd                =   4.6198708258185E-02
(PID.TID 0000.0001) %MON forcing_fv_del2              =   4.5690396795039E-04
(PID.TID 0000.0001) %MON advcfl_uvel_max              =   4.3543313151565E-02
(PID.TID 0000.0001) %MON advcfl_vvel_max              =   2.5352208863947E-02
(PID.TID 0000.0001) %MON advcfl_wvel_max              =   1.9219767364883E-02
(PID.TID 0000.0001) %MON advcfl_W_hf_max              =   2.1760113248891E-02
(PID.TID 0000.0001) %MON pe_b_mean                    =   4.7743931079452E-04
(PID.TID 0000.0001) %MON ke_max                       =   1.7412957669735E-02
(PID.TID 0000.0001) %MON ke_mean                      =   8.5614914834515E-05
(PID.TID 0000.0001) %MON ke_vol                       =   1.3226780812148E+18
(PID.TID 0000.0001) %MON vort_r_min                   =  -3.8990428255974E-07
(PID.TID 0000.0001) %MON vort_r_max                   =   4.6274477455547E-07
(PID.TID 0000.0001) %MON vort_a_mean                  =  -2.5274807090671E-05
(PID.TID 0000.0001) %MON vort_a_sd                    =   7.3604636458513E-05
(PID.TID 0000.0001) %MON vort_p_mean                  =  -3.1845614778999E-05
(PID.TID 0000.0001) %MON vort_p_sd                    =   1.3163810632382E-04
(PID.TID 0000.0001) %MON surfExpan_theta_mean         =   5.5922617693284E-08
(PID.TID 0000.0001) %MON surfExpan_salt_mean          =   1.2171138959711E-08
(PID.TID 0000.0001) // =======================================================
(PID.TID 0000.0001) // End MONITOR dynamic field statistics
(PID.TID 0000.0001) // =======================================================
 EXTERNAL_FIELDS_LOAD,     36008 : iP,iLd,i0,i1=   12    1   12    1 ; Wght=  0.2333333333  0.7666666667
 cg2d: Sum(rhs),rhsMax =   3.23613522803281E-02  2.75903326411657E+00
(PID.TID 0000.0001)                    cg2d_init_res =    2.00910086923892E-02
(PID.TID 0000.0001)                       cg2d_iters =   121
(PID.TID 0000.0001)                         cg2d_res =    7.81062413171642E-14
(PID.TID 0000.0001) // =======================================================
(PID.TID 0000.0001) // Begin MONITOR dynamic field statistics
(PID.TID 0000.0001) // =======================================================
(PID.TID 0000.0001) %MON time_tsnumber                =                 36009
(PID.TID 0000.0001) %MON time_secondsf                =   3.1111776000000E+09
(PID.TID 0000.0001) %MON dynstat_eta_max              =   9.5841458718931E-01
(PID.TID 0000.0001) %MON dynstat_eta_min              =  -1.6583352460502E+00
(PID.TID 0000.0001) %MON dynstat_eta_mean             =  -6.1266433450738E-04
(PID.TID 0000.0001) %MON dynstat_eta_sd               =   6.1064950813157E-01
(PID.TID 0000.0001) %MON dynstat_eta_del2             =   2.6569060966360E-03
(PID.TID 0000.0001) %MON dynstat_uvel_max             =   1.4297018527712E-01
(PID.TID 0000.0001) %MON dynstat_uvel_min             =  -1.8629729309614E-01
(PID.TID 0000.0001) %MON dynstat_uvel_mean            =   2.1474113139593E-03
(PID.TID 0000.0001) %MON dynstat_uvel_sd              =   1.2142981756371E-02
(PID.TID 0000.0001) %MON dynstat_uvel_del2            =   7.4651151981956E-05
(PID.TID 0000.0001) %MON dynstat_vvel_max             =   1.2168304902251E-01
(PID.TID 0000.0001) %MON dynstat_vvel_min             =  -1.3005319779692E-01
(PID.TID 0000.0001) %MON dynstat_vvel_mean            =  -2.0961195639314E-06
(PID.TID 0000.0001) %MON dynstat_vvel_sd              =   6.0414551657649E-03
(PID.TID 0000.0001) %MON dynstat_vvel_del2            =   5.5566702417806E-05
(PID.TID 0000.0001) %MON dynstat_wvel_max             =   2.4094887617563E-05
(PID.TID 0000.0001) %MON dynstat_wvel_min             =  -4.7829004612104E-05
(PID.TID 0000.0001) %MON dynstat_wvel_mean            =   3.2742061511200E-10
(PID.TID 0000.0001) %MON dynstat_wvel_sd              =   1.7082768621477E-06
(PID.TID 0000.0001) %MON dynstat_wvel_del2            =   2.0129345942541E-08
(PID.TID 0000.0001) %MON dynstat_theta_max            =   3.0441788777893E+01
(PID.TID 0000.0001) %MON dynstat_theta_min            =  -2.6433674461810E+00
(PID.TID 0000.0001) %MON dynstat_theta_mean           =   3.9396093932852E+00
(PID.TID 0000.0001) %MON dynstat_theta_sd             =   4.5468768396656E+00
(PID.TID 0000.0001) %MON dynstat_theta_del2           =   5.6527759111936E-03
(PID.TID 0000.0001) %MON dynstat_salt_max             =   3.7491213856915E+01
(PID.TID 0000.0001) %MON dynstat_salt_min             =   2.9594567703716E+01
(PID.TID 0000.0001) %MON dynstat_salt_mean            =   3.4731881923350E+01
(PID.TID 0000.0001) %MON dynstat_salt_sd              =   2.9649877883699E-01
(PID.TID 0000.0001) %MON dynstat_salt_del2            =   1.0360939656600E-03
(PID.TID 0000.0001) %MON forcing_qnet_max             =   4.3427630615234E+02
(PID.TID 0000.0001) %MON forcing_qnet_min             =  -1.8328968454997E+02
(PID.TID 0000.0001) %MON forcing_qnet_mean            =  -1.6600109691805E+01
(PID.TID 0000.0001) %MON forcing_qnet_sd              =   1.1119125063866E+02
(PID.TID 0000.0001) %MON forcing_qnet_del2            =   1.0040237369794E+00
(PID.TID 0000.0001) %MON forcing_qsw_max              =   0.0000000000000E+00
(PID.TID 0000.0001) %MON forcing_qsw_min              =   0.0000000000000E+00
(PID.TID 0000.0001) %MON forcing_qsw_mean             =   0.0000000000000E+00
(PID.TID 0000.0001) %MON forcing_qsw_sd               =   0.0000000000000E+00
(PID.TID 0000.0001) %MON forcing_qsw_del2             =   0.0000000000000E+00
(PID.TID 0000.0001) %MON forcing_empmr_max            =   8.1890940369552E-05
(PID.TID 0000.0001) %MON forcing_empmr_min            =  -7.2715819499081E-05
(PID.TID 0000.0001) %MON forcing_empmr_mean           =   8.5454875789209E-07
(PID.TID 0000.0001) %MON forcing_empmr_sd             =   2.8214283860046E-05
(PID.TID 0000.0001) %MON forcing_empmr_del2           =   3.6290034923196E-07
(PID.TID 0000.0001) %MON forcing_fu_max               =   2.6993649601936E-01
(PID.TID 0000.0001) %MON forcing_fu_min               =  -1.6518663018942E-01
(PID.TID 0000.0001) %MON forcing_fu_mean              =   1.6055584899826E-02
(PID.TID 0000.0001) %MON forcing_fu_sd                =   9.0336157001452E-02
(PID.TID 0000.0001) %MON forcing_fu_del2              =   6.7811877937571E-04
(PID.TID 0000.0001) %MON forcing_fv_max               =   2.1996198445559E-01
(PID.TID 0000.0001) %MON forcing_fv_min               =  -1.8222950249910E-01
(PID.TID 0000.0001) %MON forcing_fv_mean              =  -5.7752354275307E-03
(PID.TID 0000.0001) %MON forcing_fv_sd                =   4.6406538642117E-02
(PID.TID 0000.0001) %MON forcing_fv_del2              =   4.6058148956476E-04
(PID.TID 0000.0001) %MON advcfl_uvel_max              =   4.3479672394862E-02
(PID.TID 0000.0001) %MON advcfl_vvel_max              =   2.5267250529416E-02
(PID.TID 0000.0001) %MON advcfl_wvel_max              =   1.9220586039469E-02
(PID.TID 0000.0001) %MON advcfl_W_hf_max              =   2.1761055140192E-02
(PID.TID 0000.0001) %MON pe_b_mean                    =   4.7716185899772E-04
(PID.TID 0000.0001) %MON ke_max                       =   1.7242809777773E-02
(PID.TID 0000.0001) %MON ke_mean                      =   8.5470783096011E-05
(PID.TID 0000.0001) %MON ke_vol                       =   1.3226780568808E+18
(PID.TID 0000.0001) %MON vort_r_min                   =  -3.8830756719532E-07
(PID.TID 0000.0001) %MON vort_r_max                   =   4.6438528036421E-07
(PID.TID 0000.0001) %MON vort_a_mean                  =  -2.5274807084937E-05
(PID.TID 0000.0001) %MON vort_a_sd                    =   7.3604636472858E-05
(PID.TID 0000.0001) %MON vort_p_mean                  =  -3.1845615315884E-05
(PID.TID 0000.0001) %MON vort_p_sd                    =   1.3163810690532E-04
(PID.TID 0000.0001) %MON surfExpan_theta_mean         =   5.6036185040741E-08
(PID.TID 0000.0001) %MON surfExpan_salt_mean          =   1.2168521515741E-08
(PID.TID 0000.0001) // =======================================================
(PID.TID 0000.0001) // End MONITOR dynamic field statistics
(PID.TID 0000.0001) // =======================================================
 EXTERNAL_FIELDS_LOAD,     36009 : iP,iLd,i0,i1=   12    1   12    1 ; Wght=  0.2000000000  0.8000000000
 cg2d: Sum(rhs),rhsMax =   3.61627910508603E-02  2.75977098634926E+00
(PID.TID 0000.0001)                    cg2d_init_res =    1.66786723208724E-02
(PID.TID 0000.0001)                       cg2d_iters =   121
(PID.TID 0000.0001)                         cg2d_res =    7.77246561586993E-14
(PID.TID 0000.0001) // =======================================================
(PID.TID 0000.0001) // Begin MONITOR dynamic field statistics
(PID.TID 0000.0001) // =======================================================
(PID.TID 0000.0001) %MON time_tsnumber                =                 36010
(PID.TID 0000.0001) %MON time_secondsf                =   3.1112640000000E+09
(PID.TID 0000.0001) %MON dynstat_eta_max              =   9.5703334087259E-01
(PID.TID 0000.0001) %MON dynstat_eta_min              =  -1.6575137710898E+00
(PID.TID 0000.0001) %MON dynstat_eta_mean             =  -6.8481614103024E-04
(PID.TID 0000.0001) %MON dynstat_eta_sd               =   6.1047248700493E-01
(PID.TID 0000.0001) %MON dynstat_eta_del2             =   2.6566765455289E-03
(PID.TID 0000.0001) %MON dynstat_uvel_max             =   1.4280120648696E-01
(PID.TID 0000.0001) %MON dynstat_uvel_min             =  -1.8545185596232E-01
(PID.TID 0000.0001) %MON dynstat_uvel_mean            =   2.1455460493643E-03
(PID.TID 0000.0001) %MON dynstat_uvel_sd              =   1.2133243270586E-02
(PID.TID 0000.0001) %MON dynstat_uvel_del2            =   7.4552771291612E-05
(PID.TID 0000.0001) %MON dynstat_vvel_max             =   1.2155638218234E-01
(PID.TID 0000.0001) %MON dynstat_vvel_min             =  -1.2959543555120E-01
(PID.TID 0000.0001) %MON dynstat_vvel_mean            =  -1.9077167954597E-06
(PID.TID 0000.0001) %MON dynstat_vvel_sd              =   6.0375358183424E-03
(PID.TID 0000.0001) %MON dynstat_vvel_del2            =   5.5485623104897E-05
(PID.TID 0000.0001) %MON dynstat_wvel_max             =   2.4089107950293E-05
(PID.TID 0000.0001) %MON dynstat_wvel_min             =  -4.7849401832473E-05
(PID.TID 0000.0001) %MON dynstat_wvel_mean            =   3.2610385964451E-10
(PID.TID 0000.0001) %MON dynstat_wvel_sd              =   1.7023918390959E-06
(PID.TID 0000.0001) %MON dynstat_wvel_del2            =   2.0079075359825E-08
(PID.TID 0000.0001) %MON dynstat_theta_max            =   3.0439870022003E+01
(PID.TID 0000.0001) %MON dynstat_theta_min            =  -2.6441706734800E+00
(PID.TID 0000.0001) %MON dynstat_theta_mean           =   3.9396996843324E+00
(PID.TID 0000.0001) %MON dynstat_theta_sd             =   4.5469848377803E+00
(PID.TID 0000.0001) %MON dynstat_theta_del2           =   5.6515281857168E-03
(PID.TID 0000.0001) %MON dynstat_salt_max             =   3.7490435968197E+01
(PID.TID 0000.0001) %MON dynstat_salt_min             =   2.9596201604869E+01
(PID.TID 0000.0001) %MON dynstat_salt_mean            =   3.4731883598466E+01
(PID.TID 0000.0001) %MON dynstat_salt_sd              =   2.9648890233405E-01
(PID.TID 0000.0001) %MON dynstat_salt_del2            =   1.0363153725254E-03
(PID.TID 0000.0001) %MON forcing_qnet_max             =   4.3532449340820E+02
(PID.TID 0000.0001) %MON forcing_qnet_min             =  -1.8282252197266E+02
(PID.TID 0000.0001) %MON forcing_qnet_mean            =  -1.6587597735982E+01
(PID.TID 0000.0001) %MON forcing_qnet_sd              =   1.1099484968290E+02
(PID.TID 0000.0001) %MON forcing_qnet_del2            =   1.0064568232602E+00
(PID.TID 0000.0001) %MON forcing_qsw_max              =   0.0000000000000E+00
(PID.TID 0000.0001) %MON forcing_qsw_min              =   0.0000000000000E+00
(PID.TID 0000.0001) %MON forcing_qsw_mean             =   0.0000000000000E+00
(PID.TID 0000.0001) %MON forcing_qsw_sd               =   0.0000000000000E+00
(PID.TID 0000.0001) %MON forcing_qsw_del2             =   0.0000000000000E+00
(PID.TID 0000.0001) %MON forcing_empmr_max            =   8.1892606829115E-05
(PID.TID 0000.0001) %MON forcing_empmr_min            =  -7.3098166808450E-05
(PID.TID 0000.0001) %MON forcing_empmr_mean           =   8.6431851563759E-07
(PID.TID 0000.0001) %MON forcing_empmr_sd             =   2.8285734796509E-05
(PID.TID 0000.0001) %MON forcing_empmr_del2           =   3.6322996729435E-07
(PID.TID 0000.0001) %MON forcing_fu_max               =   2.7001778483391E-01
(PID.TID 0000.0001) %MON forcing_fu_min               =  -1.6600005030632E-01
(PID.TID 0000.0001) %MON forcing_fu_mean              =   1.6047892078789E-02
(PID.TID 0000.0001) %MON forcing_fu_sd                =   9.0407764820515E-02
(PID.TID 0000.0001) %MON forcing_fu_del2              =   6.8344110701255E-04
(PID.TID 0000.0001) %MON forcing_fv_max               =   2.2184188961983E-01
(PID.TID 0000.0001) %MON forcing_fv_min               =  -1.8164484500885E-01
(PID.TID 0000.0001) %MON forcing_fv_mean              =  -5.7014729006699E-03
(PID.TID 0000.0001) %MON forcing_fv_sd                =   4.6628624802842E-02
(PID.TID 0000.0001) %MON forcing_fv_del2              =   4.6475770842672E-04
(PID.TID 0000.0001) %MON advcfl_uvel_max              =   4.3417624778226E-02
(PID.TID 0000.0001) %MON advcfl_vvel_max              =   2.5178314666697E-02
(PID.TID 0000.0001) %MON advcfl_wvel_max              =   1.9228782875933E-02
(PID.TID 0000.0001) %MON advcfl_W_hf_max              =   2.1770350443190E-02
(PID.TID 0000.0001) %MON pe_b_mean                    =   4.7688537923240E-04
(PID.TID 0000.0001) %MON ke_max                       =   1.7071791477406E-02
(PID.TID 0000.0001) %MON ke_mean                      =   8.5338484848450E-05
(PID.TID 0000.0001) %MON ke_vol                       =   1.3226780322654E+18
(PID.TID 0000.0001) %MON vort_r_min                   =  -3.8667831677320E-07
(PID.TID 0000.0001) %MON vort_r_max                   =   4.6604096088820E-07
(PID.TID 0000.0001) %MON vort_a_mean                  =  -2.5274807090746E-05
(PID.TID 0000.0001) %MON vort_a_sd                    =   7.3604636342405E-05
(PID.TID 0000.0001) %MON vort_p_mean                  =  -3.1845615871161E-05
(PID.TID 0000.0001) %MON vort_p_sd                    =   1.3163810491180E-04
(PID.TID 0000.0001) %MON surfExpan_theta_mean         =   5.6156516607165E-08
(PID.TID 0000.0001) %MON surfExpan_salt_mean          =   1.2165831795352E-08
(PID.TID 0000.0001) // =======================================================
(PID.TID 0000.0001) // End MONITOR dynamic field statistics
(PID.TID 0000.0001) // =======================================================
 Computing Diagnostic #     23  ETAN         Counter:      10   Parms: SM      M1      
 Computing Diagnostic #     24  ETANSQ       Counter:      10   Parms: SM P    M1      
 Computing Diagnostic #     25  DETADT2      Counter:      10   Parms: SM      M1      
 Computing Diagnostic #     69  PHIBOT       Counter:      10   Parms: SM      M1      
 Computing Diagnostic #     70  PHIBOTSQ     Counter:      10   Parms: SM P    M1      
 Computing Diagnostic #     45  UVELMASS     Counter:      10   Parms: UUr     MR      
           Vector  Mate for  UVELMASS     Diagnostic #     46  VVELMASS exists 
 Computing Diagnostic #     46  VVELMASS     Counter:      10   Parms: VVr     MR      
           Vector  Mate for  VVELMASS     Diagnostic #     45  UVELMASS exists 
 Computing Diagnostic #     32  WVEL         Counter:      10   Parms: WM      LR      
 Computing Diagnostic #     26  THETA        Counter:      10   Parms: SMR     MR      
 Computing Diagnostic #     27  SALT         Counter:      10   Parms: SMR     MR      
 Computing Diagnostic #     38  WVELSQ       Counter:      10   Parms: WM P    LR      
 Computing Diagnostic #     62  RHOAnoma     Counter:      10   Parms: SMR     MR      
 Computing Diagnostic #     72  DRHODR       Counter:      10   Parms: SM      LR      
 Computing Diagnostic #     73  CONVADJ      Counter:      10   Parms: SMR     LR      
 Computing Diagnostic #    181  GM_Kwx       Counter:      10   Parms: UM      LR      
           Vector  Mate for  GM_Kwx       Diagnostic #    182  GM_Kwy   exists 
 Computing Diagnostic #    182  GM_Kwy       Counter:      10   Parms: VM      LR      
           Vector  Mate for  GM_Kwy       Diagnostic #    181  GM_Kwx   exists 
 Computing Diagnostic #    183  GM_Kwz       Counter:      10   Parms: WM P    LR      
(PID.TID 0000.0001) %CHECKPOINT     36010 ckptA
(PID.TID 0000.0001)   Seconds in section "ALL                    [THE_MODEL_MAIN]":
(PID.TID 0000.0001)           User time:   13.340000000000000
(PID.TID 0000.0001)         System time:  0.14999999999999999
(PID.TID 0000.0001)     Wall clock time:   28.646275043487549
(PID.TID 0000.0001)          No. starts:           1
(PID.TID 0000.0001)           No. stops:           1
(PID.TID 0000.0001)   Seconds in section "INITIALISE_FIXED       [THE_MODEL_MAIN]":
(PID.TID 0000.0001)           User time:  0.45000000000000001
(PID.TID 0000.0001)         System time:  5.99999999999999978E-002
(PID.TID 0000.0001)     Wall clock time:   6.5065710544586182
(PID.TID 0000.0001)          No. starts:           1
(PID.TID 0000.0001)           No. stops:           1
(PID.TID 0000.0001)   Seconds in section "THE_MAIN_LOOP          [THE_MODEL_MAIN]":
(PID.TID 0000.0001)           User time:   12.880000000000001
(PID.TID 0000.0001)         System time:  8.99999999999999967E-002
(PID.TID 0000.0001)     Wall clock time:   22.135882854461670
(PID.TID 0000.0001)          No. starts:           1
(PID.TID 0000.0001)           No. stops:           1
(PID.TID 0000.0001)   Seconds in section "INITIALISE_VARIA    [THE_MAIN_LOOP]":
(PID.TID 0000.0001)           User time:  0.38999999999999996
(PID.TID 0000.0001)         System time:  2.99999999999999989E-002
(PID.TID 0000.0001)     Wall clock time:   2.3301250934600830
(PID.TID 0000.0001)          No. starts:           1
(PID.TID 0000.0001)           No. stops:           1
(PID.TID 0000.0001)   Seconds in section "MAIN LOOP           [THE_MAIN_LOOP]":
(PID.TID 0000.0001)           User time:   12.490000000000000
(PID.TID 0000.0001)         System time:  5.99999999999999978E-002
(PID.TID 0000.0001)     Wall clock time:   19.805720090866089
(PID.TID 0000.0001)          No. starts:           1
(PID.TID 0000.0001)           No. stops:           1
(PID.TID 0000.0001)   Seconds in section "FORWARD_STEP        [THE_MAIN_LOOP]":
(PID.TID 0000.0001)           User time:   12.489999999999998
(PID.TID 0000.0001)         System time:  5.99999999999999978E-002
(PID.TID 0000.0001)     Wall clock time:   19.805617570877075
(PID.TID 0000.0001)          No. starts:          10
(PID.TID 0000.0001)           No. stops:          10
(PID.TID 0000.0001)   Seconds in section "UPDATE_R_STAR       [FORWARD_STEP]":
(PID.TID 0000.0001)           User time:  0.28000000000000291
(PID.TID 0000.0001)         System time:   0.0000000000000000
(PID.TID 0000.0001)     Wall clock time:  0.26519966125488281
(PID.TID 0000.0001)          No. starts:          20
(PID.TID 0000.0001)           No. stops:          20
(PID.TID 0000.0001)   Seconds in section "DO_STATEVARS_DIAGS  [FORWARD_STEP]":
(PID.TID 0000.0001)           User time:  0.22000000000000064
(PID.TID 0000.0001)         System time:   0.0000000000000000
(PID.TID 0000.0001)     Wall clock time:  0.21881055831909180
(PID.TID 0000.0001)          No. starts:          20
(PID.TID 0000.0001)           No. stops:          20
(PID.TID 0000.0001)   Seconds in section "LOAD_FIELDS_DRIVER  [FORWARD_STEP]":
(PID.TID 0000.0001)           User time:  1.99999999999995737E-002
(PID.TID 0000.0001)         System time:  1.00000000000000089E-002
(PID.TID 0000.0001)     Wall clock time:  1.85153484344482422E-002
(PID.TID 0000.0001)          No. starts:          10
(PID.TID 0000.0001)           No. stops:          10
(PID.TID 0000.0001)   Seconds in section "EXTERNAL_FLDS_LOAD [LOAD_FLDS_DRIVER]":
(PID.TID 0000.0001)           User time:  1.99999999999995737E-002
(PID.TID 0000.0001)         System time:  1.00000000000000089E-002
(PID.TID 0000.0001)     Wall clock time:  1.83150768280029297E-002
(PID.TID 0000.0001)          No. starts:          10
(PID.TID 0000.0001)           No. stops:          10
(PID.TID 0000.0001)   Seconds in section "DO_ATMOSPHERIC_PHYS [FORWARD_STEP]":
(PID.TID 0000.0001)           User time:   0.0000000000000000
(PID.TID 0000.0001)         System time:   0.0000000000000000
(PID.TID 0000.0001)     Wall clock time:  9.75131988525390625E-005
(PID.TID 0000.0001)          No. starts:          10
(PID.TID 0000.0001)           No. stops:          10
(PID.TID 0000.0001)   Seconds in section "DO_OCEANIC_PHYS     [FORWARD_STEP]":
(PID.TID 0000.0001)           User time:   1.2000000000000011
(PID.TID 0000.0001)         System time:   0.0000000000000000
(PID.TID 0000.0001)     Wall clock time:   1.2151410579681396
(PID.TID 0000.0001)          No. starts:          10
(PID.TID 0000.0001)           No. stops:          10
(PID.TID 0000.0001)   Seconds in section "THERMODYNAMICS      [FORWARD_STEP]":
(PID.TID 0000.0001)           User time:   2.3700000000000010
(PID.TID 0000.0001)         System time:   0.0000000000000000
(PID.TID 0000.0001)     Wall clock time:   2.3678603172302246
(PID.TID 0000.0001)          No. starts:          10
(PID.TID 0000.0001)           No. stops:          10
(PID.TID 0000.0001)   Seconds in section "DYNAMICS            [FORWARD_STEP]":
(PID.TID 0000.0001)           User time:   4.4199999999999946
(PID.TID 0000.0001)         System time:   0.0000000000000000
(PID.TID 0000.0001)     Wall clock time:   4.4313139915466309
(PID.TID 0000.0001)          No. starts:          10
(PID.TID 0000.0001)           No. stops:          10
(PID.TID 0000.0001)   Seconds in section "UPDATE_CG2D         [FORWARD_STEP]":
(PID.TID 0000.0001)           User time:  7.99999999999982947E-002
(PID.TID 0000.0001)         System time:   0.0000000000000000
(PID.TID 0000.0001)     Wall clock time:  6.64477348327636719E-002
(PID.TID 0000.0001)          No. starts:          10
(PID.TID 0000.0001)           No. stops:          10
(PID.TID 0000.0001)   Seconds in section "SOLVE_FOR_PRESSURE  [FORWARD_STEP]":
(PID.TID 0000.0001)           User time:   1.8399999999999999
(PID.TID 0000.0001)         System time:   0.0000000000000000
(PID.TID 0000.0001)     Wall clock time:   1.8509814739227295
(PID.TID 0000.0001)          No. starts:          10
(PID.TID 0000.0001)           No. stops:          10
(PID.TID 0000.0001)   Seconds in section "MOM_CORRECTION_STEP [FORWARD_STEP]":
(PID.TID 0000.0001)           User time:  0.28000000000000114
(PID.TID 0000.0001)         System time:   0.0000000000000000
(PID.TID 0000.0001)     Wall clock time:  0.27141618728637695
(PID.TID 0000.0001)          No. starts:          10
(PID.TID 0000.0001)           No. stops:          10
(PID.TID 0000.0001)   Seconds in section "UPDATE_ETAH         [FORWARD_STEP]":
(PID.TID 0000.0001)           User time:   0.0000000000000000
(PID.TID 0000.0001)         System time:   0.0000000000000000
(PID.TID 0000.0001)     Wall clock time:  2.06041336059570313E-003
(PID.TID 0000.0001)          No. starts:          10
(PID.TID 0000.0001)           No. stops:          10
(PID.TID 0000.0001)   Seconds in section "CALC_R_STAR         [FORWARD_STEP]":
(PID.TID 0000.0001)           User time:  1.99999999999995737E-002
(PID.TID 0000.0001)         System time:   0.0000000000000000
(PID.TID 0000.0001)     Wall clock time:  2.48053073883056641E-002
(PID.TID 0000.0001)          No. starts:          10
(PID.TID 0000.0001)           No. stops:          10
(PID.TID 0000.0001)   Seconds in section "TRC_CORRECTION_STEP [FORWARD_STEP]":
(PID.TID 0000.0001)           User time:  1.99999999999995737E-002
(PID.TID 0000.0001)         System time:   0.0000000000000000
(PID.TID 0000.0001)     Wall clock time:  3.59606742858886719E-002
(PID.TID 0000.0001)          No. starts:          10
(PID.TID 0000.0001)           No. stops:          10
(PID.TID 0000.0001)   Seconds in section "BLOCKING_EXCHANGES  [FORWARD_STEP]":
(PID.TID 0000.0001)           User time:  8.99999999999998579E-002
(PID.TID 0000.0001)         System time:   0.0000000000000000
(PID.TID 0000.0001)     Wall clock time:  9.61992740631103516E-002
(PID.TID 0000.0001)          No. starts:          10
(PID.TID 0000.0001)           No. stops:          10
(PID.TID 0000.0001)   Seconds in section "MONITOR             [FORWARD_STEP]":
(PID.TID 0000.0001)           User time:  0.90000000000000036
(PID.TID 0000.0001)         System time:   0.0000000000000000
(PID.TID 0000.0001)     Wall clock time:  0.87787890434265137
(PID.TID 0000.0001)          No. starts:          10
(PID.TID 0000.0001)           No. stops:          10
(PID.TID 0000.0001)   Seconds in section "DO_THE_MODEL_IO     [FORWARD_STEP]":
(PID.TID 0000.0001)           User time:  0.70999999999999908
(PID.TID 0000.0001)         System time:  4.00000000000000078E-002
(PID.TID 0000.0001)     Wall clock time:   8.0058789253234863
(PID.TID 0000.0001)          No. starts:          10
(PID.TID 0000.0001)           No. stops:          10
(PID.TID 0000.0001)   Seconds in section "DO_WRITE_PICKUP     [FORWARD_STEP]":
(PID.TID 0000.0001)           User time:  3.99999999999991473E-002
(PID.TID 0000.0001)         System time:  9.99999999999998113E-003
(PID.TID 0000.0001)     Wall clock time:  5.49786090850830078E-002
(PID.TID 0000.0001)          No. starts:          10
(PID.TID 0000.0001)           No. stops:          10
(PID.TID 0000.0001) // ======================================================
(PID.TID 0000.0001) // Tile <-> Tile communication statistics
(PID.TID 0000.0001) // ======================================================
(PID.TID 0000.0001) // o Tile number: 000001
(PID.TID 0000.0001) //         No. X exchanges =              0
(PID.TID 0000.0001) //            Max. X spins =              0
(PID.TID 0000.0001) //            Min. X spins =     1000000000
(PID.TID 0000.0001) //          Total. X spins =              0
(PID.TID 0000.0001) //            Avg. X spins =       0.00E+00
(PID.TID 0000.0001) //         No. Y exchanges =              0
(PID.TID 0000.0001) //            Max. Y spins =              0
(PID.TID 0000.0001) //            Min. Y spins =     1000000000
(PID.TID 0000.0001) //          Total. Y spins =              0
(PID.TID 0000.0001) //            Avg. Y spins =       0.00E+00
(PID.TID 0000.0001) // o Tile number: 000002
(PID.TID 0000.0001) //         No. X exchanges =              0
(PID.TID 0000.0001) //            Max. X spins =              0
(PID.TID 0000.0001) //            Min. X spins =     1000000000
(PID.TID 0000.0001) //          Total. X spins =              0
(PID.TID 0000.0001) //            Avg. X spins =       0.00E+00
(PID.TID 0000.0001) //         No. Y exchanges =              0
(PID.TID 0000.0001) //            Max. Y spins =              0
(PID.TID 0000.0001) //            Min. Y spins =     1000000000
(PID.TID 0000.0001) //          Total. Y spins =              0
(PID.TID 0000.0001) //            Avg. Y spins =       0.00E+00
(PID.TID 0000.0001) // o Tile number: 000003
(PID.TID 0000.0001) //         No. X exchanges =              0
(PID.TID 0000.0001) //            Max. X spins =              0
(PID.TID 0000.0001) //            Min. X spins =     1000000000
(PID.TID 0000.0001) //          Total. X spins =              0
(PID.TID 0000.0001) //            Avg. X spins =       0.00E+00
(PID.TID 0000.0001) //         No. Y exchanges =              0
(PID.TID 0000.0001) //            Max. Y spins =              0
(PID.TID 0000.0001) //            Min. Y spins =     1000000000
(PID.TID 0000.0001) //          Total. Y spins =              0
(PID.TID 0000.0001) //            Avg. Y spins =       0.00E+00
(PID.TID 0000.0001) // o Tile number: 000004
(PID.TID 0000.0001) //         No. X exchanges =              0
(PID.TID 0000.0001) //            Max. X spins =              0
(PID.TID 0000.0001) //            Min. X spins =     1000000000
(PID.TID 0000.0001) //          Total. X spins =              0
(PID.TID 0000.0001) //            Avg. X spins =       0.00E+00
(PID.TID 0000.0001) //         No. Y exchanges =              0
(PID.TID 0000.0001) //            Max. Y spins =              0
(PID.TID 0000.0001) //            Min. Y spins =     1000000000
(PID.TID 0000.0001) //          Total. Y spins =              0
(PID.TID 0000.0001) //            Avg. Y spins =       0.00E+00
(PID.TID 0000.0001) // o Thread number: 000001
(PID.TID 0000.0001) //            No. barriers =          10026
(PID.TID 0000.0001) //      Max. barrier spins =              1
(PID.TID 0000.0001) //      Min. barrier spins =              1
(PID.TID 0000.0001) //     Total barrier spins =          10026
(PID.TID 0000.0001) //      Avg. barrier spins =       1.00E+00
PROGRAM MAIN: Execution ended Normally
