(PID.TID 0000.0001) 
(PID.TID 0000.0001) // ======================================================
(PID.TID 0000.0001) //                      MITgcm UV
(PID.TID 0000.0001) //                      =========
(PID.TID 0000.0001) // ======================================================
(PID.TID 0000.0001) // execution environment starting up...
(PID.TID 0000.0001) 
(PID.TID 0000.0001) // MITgcmUV version:  checkpoint57c_pre
(PID.TID 0000.0001) // Build user:        jmc
(PID.TID 0000.0001) // Build host:        faulks
(PID.TID 0000.0001) // Build date:        Thu Jan 27 09:46:28 EST 2005
(PID.TID 0000.0001) 
(PID.TID 0000.0001) // =======================================================
(PID.TID 0000.0001) // Execution Environment parameter file "eedata"
(PID.TID 0000.0001) // =======================================================
(PID.TID 0000.0001) ># Example "eedata" file
(PID.TID 0000.0001) ># Lines beginning "#" are comments
(PID.TID 0000.0001) ># nTx - No. threads per process in X
(PID.TID 0000.0001) ># nTy - No. threads per process in Y
(PID.TID 0000.0001) > &EEPARMS
(PID.TID 0000.0001) > nTx=1,nTy=1
(PID.TID 0000.0001) > &
(PID.TID 0000.0001) ># Note: Some systems use & as the
(PID.TID 0000.0001) ># namelist terminator. Other systems
(PID.TID 0000.0001) ># use a / character (as shown here).
(PID.TID 0000.0001) 
(PID.TID 0000.0001) // =======================================================
(PID.TID 0000.0001) // Computational Grid Specification ( see files "SIZE.h" )
(PID.TID 0000.0001) //                                  ( and "eedata"       )
(PID.TID 0000.0001) // =======================================================
(PID.TID 0000.0001)      nPx =    1 ; /* No. processes in X */
(PID.TID 0000.0001)      nPy =    1 ; /* No. processes in Y */
(PID.TID 0000.0001)      nSx =    2 ; /* No. tiles in X per process */
(PID.TID 0000.0001)      nSy =    1 ; /* No. tiles in Y per process */
(PID.TID 0000.0001)      sNx =   45 ; /* Tile size in X */
(PID.TID 0000.0001)      sNy =   40 ; /* Tile size in Y */
(PID.TID 0000.0001)      OLx =    2 ; /* Tile overlap distance in X */
(PID.TID 0000.0001)      OLy =    2 ; /* Tile overlap distance in Y */
(PID.TID 0000.0001)      nTx =    1 ; /* No. threads in X per process */
(PID.TID 0000.0001)      nTy =    1 ; /* No. threads in Y per process */
(PID.TID 0000.0001)       Nr =   15 ; /* No. levels in the vertical   */
(PID.TID 0000.0001)       nX =   90 ; /* Total domain size in X ( = nPx*nSx*sNx ) */
(PID.TID 0000.0001)       nY =   40 ; /* Total domain size in Y ( = nPy*nSy*sNy ) */
(PID.TID 0000.0001)   nTiles =    2 ; /* Total no. tiles per process ( = nSx*nSy ) */
(PID.TID 0000.0001)   nProcs =    1 ; /* Total no. processes ( = nPx*nPy ) */
(PID.TID 0000.0001) nThreads =    1 ; /* Total no. threads per process ( = nTx*nTy ) */
(PID.TID 0000.0001) usingMPI =    F ; /* Flag used to control whether MPI is in use */
(PID.TID 0000.0001)                   /*  note: To execute a program with MPI calls */
(PID.TID 0000.0001)                   /*  it must be launched appropriately e.g     */
(PID.TID 0000.0001)                   /*  "mpirun -np 64 ......"                    */
(PID.TID 0000.0001) useCoupler=   F ; /* Flag used to control communications with */
(PID.TID 0000.0001)                   /*  other model components, through a coupler */
(PID.TID 0000.0001) 
(PID.TID 0000.0001) // ======================================================
(PID.TID 0000.0001) // Mapping of tiles to threads
(PID.TID 0000.0001) // ======================================================
(PID.TID 0000.0001) // -o- Thread   1, tiles (   1:   2,   1:   1)
(PID.TID 0000.0001) 
(PID.TID 0000.0001) // ======================================================
(PID.TID 0000.0001) // Tile <-> Tile connectvity table
(PID.TID 0000.0001) // ======================================================
(PID.TID 0000.0001) // Tile number: 000001 (process no. = 000001)
(PID.TID 0000.0001) //        WEST: Tile = 000002, Process = 000001, Comm = put
(PID.TID 0000.0001) //                bi = 000002, bj = 000001
(PID.TID 0000.0001) //        EAST: Tile = 000002, Process = 000001, Comm = put
(PID.TID 0000.0001) //                bi = 000002, bj = 000001
(PID.TID 0000.0001) //       SOUTH: Tile = 000001, Process = 000001, Comm = put
(PID.TID 0000.0001) //                bi = 000001, bj = 000001
(PID.TID 0000.0001) //       NORTH: Tile = 000001, Process = 000001, Comm = put
(PID.TID 0000.0001) //                bi = 000001, bj = 000001
(PID.TID 0000.0001) // Tile number: 000002 (process no. = 000001)
(PID.TID 0000.0001) //        WEST: Tile = 000001, Process = 000001, Comm = put
(PID.TID 0000.0001) //                bi = 000001, bj = 000001
(PID.TID 0000.0001) //        EAST: Tile = 000001, Process = 000001, Comm = put
(PID.TID 0000.0001) //                bi = 000001, bj = 000001
(PID.TID 0000.0001) //       SOUTH: Tile = 000002, Process = 000001, Comm = put
(PID.TID 0000.0001) //                bi = 000002, bj = 000001
(PID.TID 0000.0001) //       NORTH: Tile = 000002, Process = 000001, Comm = put
(PID.TID 0000.0001) //                bi = 000002, bj = 000001
(PID.TID 0000.0001) 
(PID.TID 0000.0001) // =======================================================
(PID.TID 0000.0001) // Model parameter file "data"
(PID.TID 0000.0001) // =======================================================
(PID.TID 0000.0001) ># ====================
(PID.TID 0000.0001) ># | Model parameters |
(PID.TID 0000.0001) ># ====================
(PID.TID 0000.0001) >#
(PID.TID 0000.0001) ># Continuous equation parameters
(PID.TID 0000.0001) > &PARM01
(PID.TID 0000.0001) > tRef = 15*20.,
(PID.TID 0000.0001) > sRef = 15*35.,
(PID.TID 0000.0001) > viscAr=1.E-3,
(PID.TID 0000.0001) > viscAh=5.E5,
(PID.TID 0000.0001) > diffKhT=0.0,
(PID.TID 0000.0001) > diffKrT=3.E-5,
(PID.TID 0000.0001) > diffKhS=0.0,
(PID.TID 0000.0001) > diffKrS=3.E-5,
(PID.TID 0000.0001) > rhonil=1035.,
(PID.TID 0000.0001) > gravity=9.81,
(PID.TID 0000.0001) > eosType = 'POLY3',
(PID.TID 0000.0001) > ivdc_kappa=100.,
(PID.TID 0000.0001) > implicitDiffusion=.TRUE.,
(PID.TID 0000.0001) > useOldFreezing=.TRUE.,
(PID.TID 0000.0001) > useRealFreshWaterFlux=.TRUE.,
(PID.TID 0000.0001) > useCDscheme=.TRUE.,
(PID.TID 0000.0001) > useNHMTerms=.TRUE.,
(PID.TID 0000.0001) ># turn on looped cells
(PID.TID 0000.0001) > hFacMin=.05,
(PID.TID 0000.0001) > hFacMindr=50.,
(PID.TID 0000.0001) ># set precision of data files
(PID.TID 0000.0001) > readBinaryPrec=32,
(PID.TID 0000.0001) > &
(PID.TID 0000.0001) >
(PID.TID 0000.0001) ># Elliptic solver parameters
(PID.TID 0000.0001) > &PARM02
(PID.TID 0000.0001) > cg2dMaxIters=500,
(PID.TID 0000.0001) > cg2dTargetResidual=1.E-13,
(PID.TID 0000.0001) > &
(PID.TID 0000.0001) >
(PID.TID 0000.0001) ># Time stepping parameters
(PID.TID 0000.0001) > &PARM03
(PID.TID 0000.0001) > nIter0 =      0,
(PID.TID 0000.0001) > nTimeSteps = 20,
(PID.TID 0000.0001) ># 100 years of integration will yield a reasonable flow field
(PID.TID 0000.0001) ># startTime  =          0.,
(PID.TID 0000.0001) ># endTime    = 3110400000.,
(PID.TID 0000.0001) > deltaTmom = 1200.0,
(PID.TID 0000.0001) > tauCD =     321428.,
(PID.TID 0000.0001) > deltaTtracer= 43200.0,
(PID.TID 0000.0001) > deltaTClock = 43200.0,
(PID.TID 0000.0001) ># if you are using a version later than checkpoint45d on the main branch
(PID.TID 0000.0001) ># you can uncomment the following line and increase the time step
(PID.TID 0000.0001) ># deltaTtracer and deltaTClock to 172800.0 as well to speed up the
(PID.TID 0000.0001) ># asynchronous time stepping
(PID.TID 0000.0001) ># deltaTfreesurf = 172800.0,
(PID.TID 0000.0001) > abEps = 0.1,
(PID.TID 0000.0001) > pChkptFreq= 311040000.,
(PID.TID 0000.0001) > dumpFreq=   311040000.,
(PID.TID 0000.0001) > dumpFreq=   864000.,
(PID.TID 0000.0001) > taveFreq=   311040000.,
(PID.TID 0000.0001) > taveFreq=   216000.,
(PID.TID 0000.0001) >#monitorFreq=31104000.,
(PID.TID 0000.0001) > monitorFreq=1.,
(PID.TID 0000.0001) ># 2 months restoring timescale for temperature
(PID.TID 0000.0001) > tauThetaClimRelax =  5184000.0,
(PID.TID 0000.0001) ># 6 months restoring timescale for salinity
(PID.TID 0000.0001) > tauSaltClimRelax = 15552000.0,
(PID.TID 0000.0001) > periodicExternalForcing=.TRUE.,
(PID.TID 0000.0001) > externForcingPeriod=2592000.,
(PID.TID 0000.0001) > externForcingCycle=31104000.,
(PID.TID 0000.0001) > &
(PID.TID 0000.0001) >
(PID.TID 0000.0001) ># Gridding parameters
(PID.TID 0000.0001) > &PARM04
(PID.TID 0000.0001) > usingCartesianGrid=.FALSE.,
(PID.TID 0000.0001) > usingSphericalPolarGrid=.TRUE.,
(PID.TID 0000.0001) > delR= 50., 70., 100., 140., 190.,
(PID.TID 0000.0001) >       240., 290., 340., 390., 440.,
(PID.TID 0000.0001) >       490., 540., 590., 640., 690.,
(PID.TID 0000.0001) > phiMin=-80.,
(PID.TID 0000.0001) > dySpacing=4.,
(PID.TID 0000.0001) > dxSpacing=4.,
(PID.TID 0000.0001) > &
(PID.TID 0000.0001) >
(PID.TID 0000.0001) ># Input datasets
(PID.TID 0000.0001) > &PARM05
(PID.TID 0000.0001) > bathyFile=      'bathymetry.bin',
(PID.TID 0000.0001) > hydrogThetaFile='lev_t.bin',
(PID.TID 0000.0001) > hydrogSaltFile= 'lev_s.bin',
(PID.TID 0000.0001) > zonalWindFile=  'trenberth_taux.bin',
(PID.TID 0000.0001) > meridWindFile=  'trenberth_tauy.bin',
(PID.TID 0000.0001) > thetaClimFile=  'lev_sst.bin',
(PID.TID 0000.0001) > saltClimFile=   'lev_sss.bin',
(PID.TID 0000.0001) > surfQFile=      'ncep_qnet.bin',
(PID.TID 0000.0001) > the_run_name=   'global_ocean.90x40x15',
(PID.TID 0000.0001) ># fresh water flux is turned off, uncomment next line to turn on
(PID.TID 0000.0001) ># (not recommened together with surface salinity restoring)
(PID.TID 0000.0001) ># EmPmRFile=      'ncep_emp.bin',
(PID.TID 0000.0001) > &
(PID.TID 0000.0001) 
(PID.TID 0000.0001) S/R INI_PARMS ; starts to read PARM01
(PID.TID 0000.0001) S/R INI_PARMS ; read PARM01 : OK
(PID.TID 0000.0001) S/R INI_PARMS ; starts to read PARM02
(PID.TID 0000.0001) S/R INI_PARMS ; read PARM02 : OK
(PID.TID 0000.0001) S/R INI_PARMS ; starts to read PARM03
(PID.TID 0000.0001) S/R INI_PARMS ; read PARM03 : OK
(PID.TID 0000.0001) S/R INI_PARMS ; starts to read PARM04
(PID.TID 0000.0001) S/R INI_PARMS ; read PARM04 : OK
(PID.TID 0000.0001) S/R INI_PARMS ; starts to read PARM05
(PID.TID 0000.0001) S/R INI_PARMS ; read PARM05 : OK
(PID.TID 0000.0001)  PACKAGES_BOOT: opening data.pkg
(PID.TID 0000.0001)  OPEN_COPY_DATA_FILE: opening file data.pkg
(PID.TID 0000.0001) // =======================================================
(PID.TID 0000.0001) // Parameter file "data.pkg"
(PID.TID 0000.0001) // =======================================================
(PID.TID 0000.0001) ># Packages
(PID.TID 0000.0001) > &PACKAGES
(PID.TID 0000.0001) > useGMRedi=.TRUE.,
(PID.TID 0000.0001) > usePTRACERS=.TRUE.,
(PID.TID 0000.0001) > useMNC=.TRUE.,
(PID.TID 0000.0001) > &
(PID.TID 0000.0001) >
(PID.TID 0000.0001) 
(PID.TID 0000.0001)  PACKAGES_BOOT: finished reading data.pkg
(PID.TID 0000.0001)  MNC_READPARMS: opening file 'data.mnc'
(PID.TID 0000.0001) // =======================================================
(PID.TID 0000.0001) // Parameter file "data.mnc"
(PID.TID 0000.0001) // =======================================================
(PID.TID 0000.0001) ># Example "data.mnc" file
(PID.TID 0000.0001) ># Lines beginning "#" are comments
(PID.TID 0000.0001) > &MNC_01
(PID.TID 0000.0001) ># mnc_echo_gvtypes=.FALSE.,
(PID.TID 0000.0001) ># mnc_use_indir=.FALSE.,
(PID.TID 0000.0001) > mnc_use_outdir=.TRUE.,
(PID.TID 0000.0001) > mnc_outdir_str='mnc_test_',
(PID.TID 0000.0001) > mnc_outdir_date=.TRUE.,
(PID.TID 0000.0001) ># monitor_mnc=.FALSE.,
(PID.TID 0000.0001) > timeave_mnc=.TRUE.,
(PID.TID 0000.0001) > snapshot_mnc=.TRUE.,
(PID.TID 0000.0001) ># pickup_write_mnc=.TRUE.,
(PID.TID 0000.0001) > &
(PID.TID 0000.0001) ># Note: Some systems use & as the
(PID.TID 0000.0001) ># namelist terminator. Other systems
(PID.TID 0000.0001) ># use a / character (as shown here).
(PID.TID 0000.0001) 
(PID.TID 0000.0001)  MNC_READPARMS: finished reading data.mnc
(PID.TID 0000.0001)  GM_READPARMS: opening data.gmredi
(PID.TID 0000.0001)  OPEN_COPY_DATA_FILE: opening file data.gmredi
(PID.TID 0000.0001) // =======================================================
(PID.TID 0000.0001) // Parameter file "data.gmredi"
(PID.TID 0000.0001) // =======================================================
(PID.TID 0000.0001) ># GM+Redi package parameters:
(PID.TID 0000.0001) >
(PID.TID 0000.0001) >#-from MOM :
(PID.TID 0000.0001) ># GM_background_K: 	G & Mc.W  diffusion coefficient
(PID.TID 0000.0001) ># GM_maxSlope    :	max slope of isopycnals
(PID.TID 0000.0001) ># GM_Scrit       :	transition for scaling diffusion coefficient
(PID.TID 0000.0001) ># GM_Sd          :	half width scaling for diffusion coefficient
(PID.TID 0000.0001) ># GM_taper_scheme:	slope clipping or one of the tapering schemes
(PID.TID 0000.0001) ># GM_Kmin_horiz  :	horizontal diffusion minimum value
(PID.TID 0000.0001) >
(PID.TID 0000.0001) >#-Option parameters (needs to "define" options in GMREDI_OPTIONS.h")
(PID.TID 0000.0001) ># GM_isopycK     :	isopycnal diffusion coefficient (default=GM_background_K)
(PID.TID 0000.0001) ># GM_AdvForm     :	turn on GM Advective form       (default=Skew flux form)
(PID.TID 0000.0001) >
(PID.TID 0000.0001) > &GM_PARM01
(PID.TID 0000.0001) >  GM_background_K    = 1.e+3,
(PID.TID 0000.0001) >  GM_taper_scheme    = 'gkw91',
(PID.TID 0000.0001) >  GM_maxSlope        = 1.e-2,
(PID.TID 0000.0001) >  GM_Kmin_horiz      = 50.,
(PID.TID 0000.0001) >  GM_Scrit           = 4.e-3,
(PID.TID 0000.0001) >  GM_Sd              = 1.e-3,
(PID.TID 0000.0001) ># GM_Visbeck_alpha   = 0.,
(PID.TID 0000.0001) ># GM_Visbeck_length  = 2.e+5,
(PID.TID 0000.0001) ># GM_Visbeck_depth   = 1.e+3,
(PID.TID 0000.0001) ># GM_Visbeck_maxval_K= 2.5e+3,
(PID.TID 0000.0001) > &end
(PID.TID 0000.0001) >
(PID.TID 0000.0001) >
(PID.TID 0000.0001) 
(PID.TID 0000.0001)  GM_READPARMS: finished reading data.gmredi
(PID.TID 0000.0001)  PTRACERS_READPARMS: opening data.ptracers
(PID.TID 0000.0001)  OPEN_COPY_DATA_FILE: opening file data.ptracers
(PID.TID 0000.0001) // =======================================================
(PID.TID 0000.0001) // Parameter file "data.ptracers"
(PID.TID 0000.0001) // =======================================================
(PID.TID 0000.0001) ># This set-up makes is supposed to immitate salt. That is, PTRACER(:,:,:,1)
(PID.TID 0000.0001) ># should look exactly like S(:,:,:).
(PID.TID 0000.0001) > &PTRACERS_PARM01
(PID.TID 0000.0001) > PTRACERS_numInUse=1,
(PID.TID 0000.0001) > PTRACERS_advScheme=2,
(PID.TID 0000.0001) > PTRACERS_diffKh=0.E3,
(PID.TID 0000.0001) > PTRACERS_diffKr=3.E-5,
(PID.TID 0000.0001) > PTRACERS_initialFile='lev_s.bin',
(PID.TID 0000.0001) >#EH3 added for MNC
(PID.TID 0000.0001) > PTRACERS_write_mnc=.TRUE.,
(PID.TID 0000.0001) > PTRACERS_names(1)='salt_mimic',
(PID.TID 0000.0001) > &
(PID.TID 0000.0001) 
(PID.TID 0000.0001)  PTRACERS_READPARMS: finished reading data.ptracers
(PID.TID 0000.0001) // ===================================
(PID.TID 0000.0001) // PTRACERS parameters
(PID.TID 0000.0001) // ===================================
(PID.TID 0000.0001) PTRACERS_numInUse = /* number of tracers */
(PID.TID 0000.0001)                       1
(PID.TID 0000.0001)     ;
(PID.TID 0000.0001) PTRACERS_dumpFreq = /* Frequency^-1 for snapshot output (s) */
(PID.TID 0000.0001)                 8.640000000000000E+05
(PID.TID 0000.0001)     ;
(PID.TID 0000.0001) PTRACERS_taveFreq = /* Frequency^-1 for time-Aver. output (s) */
(PID.TID 0000.0001)                 2.160000000000000E+05
(PID.TID 0000.0001)     ;
(PID.TID 0000.0001) PTRACERS_useRecords = /* all tracers in 1 file */
(PID.TID 0000.0001)                   F
(PID.TID 0000.0001)     ;
(PID.TID 0000.0001) PTRACERS_write_mdsio = /* write mdsio files */
(PID.TID 0000.0001)                   F
(PID.TID 0000.0001)     ;
(PID.TID 0000.0001) PTRACERS_write_mnc = /* write mnc files */
(PID.TID 0000.0001)                   T
(PID.TID 0000.0001)     ;
(PID.TID 0000.0001)  -----------------------------------
(PID.TID 0000.0001)  tracer number :    1
(PID.TID 0000.0001) PTRACERS_advScheme = /* Advection Scheme */
(PID.TID 0000.0001)                       2
(PID.TID 0000.0001)     ;
(PID.TID 0000.0001) PTRACERS_ImplVertAdv = /* implicit vert. advection flag */
(PID.TID 0000.0001)                   F
(PID.TID 0000.0001)     ;
(PID.TID 0000.0001) PTRACERS_diffKh = /* Laplacian Diffusivity */
(PID.TID 0000.0001)                 0.000000000000000E+00
(PID.TID 0000.0001)     ;
(PID.TID 0000.0001) PTRACERS_diffK4 = /* Biharmonic Diffusivity */
(PID.TID 0000.0001)                 0.000000000000000E+00
(PID.TID 0000.0001)     ;
(PID.TID 0000.0001) PTRACERS_diffKrNr = /* Vertical Diffusivity */
(PID.TID 0000.0001)    15 @  3.000000000000000E-05              /* K =  1: 15 */
(PID.TID 0000.0001)     ;
(PID.TID 0000.0001) PTRACERS_useGMRedi = /* apply GM-Redi */
(PID.TID 0000.0001)                   T
(PID.TID 0000.0001)     ;
(PID.TID 0000.0001) PTRACERS_useKPP = /* apply KPP scheme */
(PID.TID 0000.0001)                   F
(PID.TID 0000.0001)     ;
(PID.TID 0000.0001)  -----------------------------------
(PID.TID 0000.0001) %MON XC_max                       =   3.5800000000000E+02
(PID.TID 0000.0001) %MON XC_min                       =   2.0000000000000E+00
(PID.TID 0000.0001) %MON XC_mean                      =   1.8000000000000E+02
(PID.TID 0000.0001) %MON XC_sd                        =   1.0391663325314E+02
(PID.TID 0000.0001) %MON XG_max                       =   3.5600000000000E+02
(PID.TID 0000.0001) %MON XG_min                       =   4.0000000000000E+00
(PID.TID 0000.0001) %MON XG_mean                      =   1.8000000000000E+02
(PID.TID 0000.0001) %MON XG_sd                        =   1.0276186062932E+02
(PID.TID 0000.0001) %MON DXC_max                      =   4.4443898815675E+05
(PID.TID 0000.0001) %MON DXC_min                      =   9.2460385861875E+04
(PID.TID 0000.0001) %MON DXC_mean                     =   3.1372497618153E+05
(PID.TID 0000.0001) %MON DXC_sd                       =   1.1216447457560E+05
(PID.TID 0000.0001) %MON DXF_max                      =   4.4443898815675E+05
(PID.TID 0000.0001) %MON DXF_min                      =   9.2460385861875E+04
(PID.TID 0000.0001) %MON DXF_mean                     =   3.1372497618153E+05
(PID.TID 0000.0001) %MON DXF_sd                       =   1.1216447457560E+05
(PID.TID 0000.0001) %MON DXG_max                      =   4.4470989340816E+05
(PID.TID 0000.0001) %MON DXG_min                      =   7.7223062580781E+04
(PID.TID 0000.0001) %MON DXG_mean                     =   3.1353386340261E+05
(PID.TID 0000.0001) %MON DXG_sd                       =   1.1256651772502E+05
(PID.TID 0000.0001) %MON DXV_max                      =   4.4470989340816E+05
(PID.TID 0000.0001) %MON DXV_min                      =   7.7223062580781E+04
(PID.TID 0000.0001) %MON DXV_mean                     =   3.1353386340261E+05
(PID.TID 0000.0001) %MON DXV_sd                       =   1.1256651772502E+05
(PID.TID 0000.0001) %MON YC_max                       =   7.8000000000000E+01
(PID.TID 0000.0001) %MON YC_min                       =  -7.8000000000000E+01
(PID.TID 0000.0001) %MON YC_mean                      =   0.0000000000000E+00
(PID.TID 0000.0001) %MON YC_sd                        =   4.6173585522461E+01
(PID.TID 0000.0001) %MON YG_max                       =   7.6000000000000E+01
(PID.TID 0000.0001) %MON YG_min                       =  -8.0000000000000E+01
(PID.TID 0000.0001) %MON YG_mean                      =  -2.0512820512821E+00
(PID.TID 0000.0001) %MON YG_sd                        =   4.6760682979564E+01
(PID.TID 0000.0001) %MON DYC_max                      =   4.4470989340816E+05
(PID.TID 0000.0001) %MON DYC_min                      =   4.4470989340816E+05
(PID.TID 0000.0001) %MON DYC_mean                     =   4.4470989340817E+05
(PID.TID 0000.0001) %MON DYC_sd                       =   1.4668330550194E-08
(PID.TID 0000.0001) %MON DYF_max                      =   4.4470989340816E+05
(PID.TID 0000.0001) %MON DYF_min                      =   4.4470989340816E+05
(PID.TID 0000.0001) %MON DYF_mean                     =   4.4470989340817E+05
(PID.TID 0000.0001) %MON DYF_sd                       =   1.4668330550194E-08
(PID.TID 0000.0001) %MON DYG_max                      =   4.4470989340816E+05
(PID.TID 0000.0001) %MON DYG_min                      =   4.4470989340816E+05
(PID.TID 0000.0001) %MON DYG_mean                     =   4.4470989340817E+05
(PID.TID 0000.0001) %MON DYG_sd                       =   1.4668330550194E-08
(PID.TID 0000.0001) %MON DYU_max                      =   4.4470989340816E+05
(PID.TID 0000.0001) %MON DYU_min                      =   4.4470989340816E+05
(PID.TID 0000.0001) %MON DYU_mean                     =   4.4470989340817E+05
(PID.TID 0000.0001) %MON DYU_sd                       =   1.4668330550194E-08
(PID.TID 0000.0001) %MON RA_max                       =   1.9760627980089E+11
(PID.TID 0000.0001) %MON RA_min                       =   4.1109698667290E+10
(PID.TID 0000.0001) %MON RA_mean                      =   1.3948826965196E+11
(PID.TID 0000.0001) %MON RA_sd                        =   4.9870522472902E+10
(PID.TID 0000.0001) %MON RAW_max                      =   1.9760627980089E+11
(PID.TID 0000.0001) %MON RAW_min                      =   4.1109698667290E+10
(PID.TID 0000.0001) %MON RAW_mean                     =   1.3948826965196E+11
(PID.TID 0000.0001) %MON RAW_sd                       =   4.9870522472902E+10
(PID.TID 0000.0001) %MON RAS_max                      =   1.9772672958215E+11
(PID.TID 0000.0001) %MON RAS_min                      =   3.4334886267983E+10
(PID.TID 0000.0001) %MON RAS_mean                     =   1.3940329716694E+11
(PID.TID 0000.0001) %MON RAS_sd                       =   5.0049278732353E+10
(PID.TID 0000.0001) %MON RAZ_max                      =   1.9772672958215E+11
(PID.TID 0000.0001) %MON RAZ_min                      =   3.4334886267983E+10
(PID.TID 0000.0001) %MON RAZ_mean                     =   1.3940329716694E+11
(PID.TID 0000.0001) %MON RAZ_sd                       =   5.0049278732353E+10
(PID.TID 0000.0001)  MDSREADFIELD: opening global file: bathymetry.bin
(PID.TID 0000.0001) // =======================================================
(PID.TID 0000.0001) // Field Model R_low (ini_masks_etc) at iteration          1
(PID.TID 0000.0001) // CMIN =         -5.200000000000000E+03
(PID.TID 0000.0001) // CMAX =         -1.200000000000000E+02
(PID.TID 0000.0001) // CINT =          1.881481481481482E+02
(PID.TID 0000.0001) // SYMBOLS (CMIN->CMAX): -abcdefghijklmnopqrstuvwxyz+
(PID.TID 0000.0001) //                  0.0: .
(PID.TID 0000.0001) // RANGE I (Lo:Hi:Step):(  -1:  92:   1)
(PID.TID 0000.0001) // RANGE J (Lo:Hi:Step):(  42:  -1:  -1)
(PID.TID 0000.0001) // RANGE K (Lo:Hi:Step):(   1:   1:   1)
(PID.TID 0000.0001) // =======================================================
(PID.TID 0000.0001) K =   1
(PID.TID 0000.0001) //                I=8       I=18      I=28      I=38      I=44      I=54      I=64      I=74      I=84
(PID.TID 0000.0001) // |--J--|*01234567|901234567|901234567|901234567|901234567|567890123|567890123|567890123|567890123|56789012
(PID.TID 0000.0001) //     42 ............................................zyxxmyxxmgfeeefefgimnpwwwy..+zyy.....yyyyoiiihhz+.....
(PID.TID 0000.0001) //     41 ..................................................................................................
(PID.TID 0000.0001) //     40 qlloqz+.++++zzz++++++......................................................................+++qllo
(PID.TID 0000.0001) //     39 slloorzzzzzzzzz+...++.........................................................yxxz........+zvusllo
(PID.TID 0000.0001) //     38 mqpporzzzzzz+++...............................................................zxxy+......zyyvsmqpp
(PID.TID 0000.0001) //     37 mmmuz......................................................................++...zy+...yttyy.+smmmu
(PID.TID 0000.0001) //     36 utt+.........................................mm++mm++....................+++++++znmm.yoowssvuyutt+
(PID.TID 0000.0001) //     35 ++++.................................+zzz..rrmmkkmmkk+...+gghn...........+++....+nmiijlsoopuww++++
(PID.TID 0000.0001) //     34 .....................................+vvy.ggqyxv+yxv+y.ccdffhim..................+nihhikkihhm+....
(PID.TID 0000.0001) //     33 +.....................................uuz---h----------aaabdefin+.................zqvddflifffw+...
(PID.TID 0000.0001) //     32 +.....................................+t----h-------------acdfgnn................+++gdffkofffm+...
(PID.TID 0000.0001) //     31 ......................................-----ad------------abddegil..............qbaafccdhqqgddm....
(PID.TID 0000.0001) //     30 .....................................f----b--b---b------------abd............zfbb--fbcdosjfddi....
(PID.TID 0000.0001) //     29 ...................................tu----e---fjg-fjg----------abdf...........eaac--abfmijaadgi....
(PID.TID 0000.0001) //     28 .................................+xfl-----------------------bdedefi.........qbaa---aemfbbaaejz....
(PID.TID 0000.0001) //     27 ................xx..............+wfgfpf--------ea--eallc---bbbccefgi...+++x.qb-----akfa---ah......
(PID.TID 0000.0001) //     26 ................xnn...........+vd---dna------a--aa--aicfna---aabdfghku.++xssuy-----bgca---ci......
(PID.TID 0000.0001) //     25 ................iiik...oo+...+ivd---doaa-bc--ilglilglf--aa---aabcghhkll...ssum+xaaacjbaabdjk......
(PID.TID 0000.0001) //     24 ..............xnheeft.kkk+...uii.aagdm----aa---------a-------bbbcdefjljjju.zummwwbbchba--abi......
(PID.TID 0000.0001) //     23 ..............xgheefp.iikw...uuw..fihi----fed---------eaaa--bbbbcdfflkjiiiq....zykccefa--abd......
(PID.TID 0000.0001) //     22 uss...........bbelffslffkk...zz.wqkeeqoheccdfa---a-----egabaabcdddegghliiiqq......xeeehheehccquss.
(PID.TID 0000.0001) //     21 bbeir........nbbcdjhqdddiiz.....wqfeelgghmedea---a-----bibbcddddddefghklnqoo........ieeflhgcccbbei
(PID.TID 0000.0001) //     20 bbder.......ldcccdgkccccidd......z.vkkktqqhegg---g----aaacddddddddefghkiiijl.........nhfa--gfcbbde
(PID.TID 0000.0001) //     19 cdaaf.......kddosggpaaaibbccx...+z+.....r+nlec---c---agaaabcddccddefikfgffff...........d---cjhcdaa
(PID.TID 0000.0001) //     18 d---d.......kglggvliaaaibbcaaeaiv++...qqzolhecccfcccfdgkaabcdfccdeeikgfgffdd+..........d---djhd---
(PID.TID 0000.0001) //     17 c---c.......l.feewlfaaaoaa----aiv.....qqnllslmlofmlofcdbaacceffffhhligfigeddj.........hd---ckhc---
(PID.TID 0000.0001) //     16 ba--c......tn.ddgnlfdaaqa-----lv.......vnllvllnwvlnwv--accivomfffhilhgfffeddjf........re--aeigba--
(PID.TID 0000.0001) //     15 b--dpz....+ll.ccdfhmdddlc----av.........otsxoomv-omv---abccddfihgijkhgfffeejfff......+fd---ckfb--d
(PID.TID 0000.0001) //     14 c--mcl....weeqbaafilkfend--eagy.........hhstofft-fft----aacdheefijkmjhhjijiffff.....zlfdaaadlfc--m
(PID.TID 0000.0001) //     13 cclbbg....nccobaaiddgkffqrqeaal.........eeutqfft-fft------aaceeffhijlkjhhigfffq....+jgfodccflhcclb
(PID.TID 0000.0001) //     12 hgaaacw+iiicclemhdddfliigfdcaabfaaaz....ccsurqpc-qpc--------abcifffikiiihhggff.....kbbbdfffglhhgaa
(PID.TID 0000.0001) //     11 gcaaacbbifccennhbbdefnihgfdccaaaa----..dcccnt.nca.ncab-------aabcdfilhggjiggff....l---abcefjlkgcaa
(PID.TID 0000.0001) //     10 fcaaccbdaacfrllfbbdegkmmljhfdddba----d.dcccfx.nyr.nyrebaba----abcdgilhfeegijgi..+w--aa-abcfilkfcaa
(PID.TID 0000.0001) //      9 ffcdcccaaaoqsolfdeehikihhlllgfedcccccdmdcccf.vyfavyfaaaaaaaa--abdehmjhfeeefglv.++w-----abcdfklffcd
(PID.TID 0000.0001) //      8 iffjklcaafddffeeccvznkfffhhhlkjifgjkkfeeddfsyvcaavcaaaaaaccdcccdfgjligedbbceg+.++xffn--cfddefliffj
(PID.TID 0000.0001) //      7 mqnnbbkkf--bmbaabbgtykfddeffeeddccdfhlffeelfbaaaaaaaaaacddeghgjgjlligeddaaabedfiiiiiisvkfkecchmqnn
(PID.TID 0000.0001) //      6 ca-------------aabcelttdddedddddccccdfkkiiffbaaaaaaaabcdgimmkmefecaaabbbaaabbdfiiiiispmmregifcca--
(PID.TID 0000.0001) //      5 -------a-------aaccehhhiddeddddddcccdfiikomodddefddefffmlmigedccaaaaaaaababbbdfiijsqgeccccbaa-----
(PID.TID 0000.0001) //      4 -ahebaabbbbbeihffgijiiiijpywnnpokkomkiiijmmmolkomlkommmgffeeedccaaaaaabbcccefhmz..yjgeccccbaa--ahe
(PID.TID 0000.0001) //      3 ffhhrpjiiwyy............................yxotmjjjjjjjjgfeeeeeeddeffffheddeghjkyy..yqjgeddccdbbgffhh
(PID.TID 0000.0001) //      2 ............................................zyxxmyxxmgfeeefefgimnpwwwy..+zyy.....yyyyoiiihhz+.....
(PID.TID 0000.0001) //      1 ..................................................................................................
(PID.TID 0000.0001) //      0 qlloqz+.++++zzz++++++......................................................................+++qllo
(PID.TID 0000.0001) //     -1 slloorzzzzzzzzz+...++.........................................................yxxz........+zvusllo
(PID.TID 0000.0001) // =======================================================
(PID.TID 0000.0001) // END OF FIELD                                          =
(PID.TID 0000.0001) // =======================================================
(PID.TID 0000.0001) 
(PID.TID 0000.0001) // =======================================================
(PID.TID 0000.0001) // Field Model Ro_surf (ini_masks_etc) at iteration          1
(PID.TID 0000.0001) // CMIN =          1.000000000000000E+32
(PID.TID 0000.0001) // CMAX =         -1.000000000000000E+32
(PID.TID 0000.0001) // CINT =          0.000000000000000E+00
(PID.TID 0000.0001) // SYMBOLS (CMIN->CMAX): -abcdefghijklmnopqrstuvwxyz+
(PID.TID 0000.0001) //                  0.0: .
(PID.TID 0000.0001) // RANGE I (Lo:Hi:Step):(  -1:  92:   1)
(PID.TID 0000.0001) // RANGE J (Lo:Hi:Step):(  42:  -1:  -1)
(PID.TID 0000.0001) // RANGE K (Lo:Hi:Step):(   1:   1:   1)
(PID.TID 0000.0001) // =======================================================
(PID.TID 0000.0001) // =======================================================
(PID.TID 0000.0001) // END OF FIELD                                          =
(PID.TID 0000.0001) // =======================================================
(PID.TID 0000.0001) 
(PID.TID 0000.0001) // =======================================================
(PID.TID 0000.0001) // Field hFacC at iteration          1
(PID.TID 0000.0001) // CMIN =          1.000000000000000E+00
(PID.TID 0000.0001) // CMAX =          1.000000000000000E+00
(PID.TID 0000.0001) // CINT =          0.000000000000000E+00
(PID.TID 0000.0001) // SYMBOLS (CMIN->CMAX): -abcdefghijklmnopqrstuvwxyz+
(PID.TID 0000.0001) //                  0.0: .
(PID.TID 0000.0001) // RANGE I (Lo:Hi:Step):(  -1:  92:   1)
(PID.TID 0000.0001) // RANGE J (Lo:Hi:Step):(  42:  -1:  -1)
(PID.TID 0000.0001) // RANGE K (Lo:Hi:Step):(   1:   1:   1)
(PID.TID 0000.0001) // =======================================================
(PID.TID 0000.0001) // =======================================================
(PID.TID 0000.0001) // END OF FIELD                                          =
(PID.TID 0000.0001) // =======================================================
(PID.TID 0000.0001) 
(PID.TID 0000.0001) // =======================================================
(PID.TID 0000.0001) // Field hFacW at iteration          1
(PID.TID 0000.0001) // CMIN =          1.000000000000000E+00
(PID.TID 0000.0001) // CMAX =          1.000000000000000E+00
(PID.TID 0000.0001) // CINT =          0.000000000000000E+00
(PID.TID 0000.0001) // SYMBOLS (CMIN->CMAX): -abcdefghijklmnopqrstuvwxyz+
(PID.TID 0000.0001) //                  0.0: .
(PID.TID 0000.0001) // RANGE I (Lo:Hi:Step):(  -1:  92:   1)
(PID.TID 0000.0001) // RANGE J (Lo:Hi:Step):(  42:  -1:  -1)
(PID.TID 0000.0001) // RANGE K (Lo:Hi:Step):(   1:   1:   1)
(PID.TID 0000.0001) // =======================================================
(PID.TID 0000.0001) // =======================================================
(PID.TID 0000.0001) // END OF FIELD                                          =
(PID.TID 0000.0001) // =======================================================
(PID.TID 0000.0001) 
(PID.TID 0000.0001) // =======================================================
(PID.TID 0000.0001) // Field hFacS at iteration          1
(PID.TID 0000.0001) // CMIN =          1.000000000000000E+00
(PID.TID 0000.0001) // CMAX =          1.000000000000000E+00
(PID.TID 0000.0001) // CINT =          0.000000000000000E+00
(PID.TID 0000.0001) // SYMBOLS (CMIN->CMAX): -abcdefghijklmnopqrstuvwxyz+
(PID.TID 0000.0001) //                  0.0: .
(PID.TID 0000.0001) // RANGE I (Lo:Hi:Step):(  -1:  92:   1)
(PID.TID 0000.0001) // RANGE J (Lo:Hi:Step):(  42:  -1:  -1)
(PID.TID 0000.0001) // RANGE K (Lo:Hi:Step):(   1:   1:   1)
(PID.TID 0000.0001) // =======================================================
(PID.TID 0000.0001) // =======================================================
(PID.TID 0000.0001) // END OF FIELD                                          =
(PID.TID 0000.0001) // =======================================================
(PID.TID 0000.0001) 
(PID.TID 0000.0001) 
(PID.TID 0000.0001) // ===================================
(PID.TID 0000.0001) // GAD parameters :
(PID.TID 0000.0001) // ===================================
(PID.TID 0000.0001) tempAdvScheme =   /* Temp. Horiz.Advection scheme selector */
(PID.TID 0000.0001)                       2
(PID.TID 0000.0001)     ;
(PID.TID 0000.0001) tempVertAdvScheme =   /* Temp. Vert. Advection scheme selector */
(PID.TID 0000.0001)                       2
(PID.TID 0000.0001)     ;
(PID.TID 0000.0001) tempMultiDimAdvec =   /* use Muti-Dim Advec method for Temp */
(PID.TID 0000.0001)                   F
(PID.TID 0000.0001)     ;
(PID.TID 0000.0001) tempAdamsBashforth =   /* use Adams-Bashforth time-stepping for Temp */
(PID.TID 0000.0001)                   T
(PID.TID 0000.0001)     ;
(PID.TID 0000.0001) saltAdvScheme =   /* Salt. Horiz.advection scheme selector */
(PID.TID 0000.0001)                       2
(PID.TID 0000.0001)     ;
(PID.TID 0000.0001) saltVertAdvScheme =   /* Salt. Vert. Advection scheme selector */
(PID.TID 0000.0001)                       2
(PID.TID 0000.0001)     ;
(PID.TID 0000.0001) saltMultiDimAdvec =   /* use Muti-Dim Advec method for Salt */
(PID.TID 0000.0001)                   F
(PID.TID 0000.0001)     ;
(PID.TID 0000.0001) saltAdamsBashforth =   /* use Adams-Bashforth time-stepping for Salt */
(PID.TID 0000.0001)                   T
(PID.TID 0000.0001)     ;
(PID.TID 0000.0001) // ===================================
(PID.TID 0000.0001) GMREDI_CHECK: #define GMREDI
(PID.TID 0000.0001) GM_AdvForm =  /* if FALSE => use SkewFlux Form */
(PID.TID 0000.0001)                   F
(PID.TID 0000.0001)     ;
(PID.TID 0000.0001) GM_AdvSeparate = /* Calc Bolus & Euler Adv. separately */
(PID.TID 0000.0001)                   F
(PID.TID 0000.0001)     ;
(PID.TID 0000.0001) GM_ExtraDiag =  /* Tensor Extra Diag (line 1&2) non 0 */
(PID.TID 0000.0001)                   F
(PID.TID 0000.0001)     ;
(PID.TID 0000.0001) GM_isopycK =   /* Background Isopyc. Diffusivity ( m^2/s ) */
(PID.TID 0000.0001)                 1.000000000000000E+03
(PID.TID 0000.0001)     ;
(PID.TID 0000.0001)  GM_skewflx*K =   /* Background GM_SkewFlx Diffusivity ( m^2/s ) */
(PID.TID 0000.0001)                 1.000000000000000E+03
(PID.TID 0000.0001)     ;
(PID.TID 0000.0001)  GM_advec*K =   /* Backg. GM-Advec(=Bolus) Diffusivity ( m^2/s ) */
(PID.TID 0000.0001)                 0.000000000000000E+00
(PID.TID 0000.0001)     ;
(PID.TID 0000.0001)  GM_Visbeck_alpha =   /* Visbeck alpha coeff. ( ) */
(PID.TID 0000.0001)                 0.000000000000000E+00
(PID.TID 0000.0001)     ;
(PID.TID 0000.0001)  Tapering/Cliping : gkw91
(PID.TID 0000.0001)  GM_Small_Number =  /* epsilon used in slope calc */
(PID.TID 0000.0001)                 1.000000000000000E-12
(PID.TID 0000.0001)     ;
(PID.TID 0000.0001)  GM_slopeSqCutoff =  /* Slope^2 cut-off value */
(PID.TID 0000.0001)                 1.000000000000000E+48
(PID.TID 0000.0001)     ;
(PID.TID 0000.0001) %MON fCori_max                    =   1.4226580169407E-04
(PID.TID 0000.0001) %MON fCori_min                    =  -1.4226580169407E-04
(PID.TID 0000.0001) %MON fCori_mean                   =   1.5961865317148E-21
(PID.TID 0000.0001) %MON fCori_sd                     =   9.6335367303779E-05
(PID.TID 0000.0001) %MON fCoriG_max                   =   1.4112379284621E-04
(PID.TID 0000.0001) %MON fCoriG_min                   =  -1.4323448157692E-04
(PID.TID 0000.0001) %MON fCoriG_mean                  =  -3.6726790147928E-06
(PID.TID 0000.0001) %MON fCoriG_sd                    =   9.7510077443651E-05
(PID.TID 0000.0001) %MON fCoriCos_max                 =   1.4535550371427E-04
(PID.TID 0000.0001) %MON fCoriCos_min                 =   3.0239529651320E-05
(PID.TID 0000.0001) %MON fCoriCos_mean                =   1.0260497651149E-04
(PID.TID 0000.0001) %MON fCoriCos_sd                  =   3.6683828681187E-05
(PID.TID 0000.0001) // CG2D normalisation factor =          0.6568267742571170272718184E-04
(PID.TID 0000.0001) 
(PID.TID 0000.0001) CONFIG_CHECK: OK
(PID.TID 0000.0001) // =======================================================
(PID.TID 0000.0001) // Model configuration
(PID.TID 0000.0001) // =======================================================
(PID.TID 0000.0001) //
(PID.TID 0000.0001) // "Physical" paramters ( PARM01 in namelist )
(PID.TID 0000.0001) //
(PID.TID 0000.0001) buoyancyRelation = OCEANIC
(PID.TID 0000.0001) fluidIsAir  =  /* fluid major constituent is Air */
(PID.TID 0000.0001)                   F
(PID.TID 0000.0001)     ;
(PID.TID 0000.0001) fluidIsWater=  /* fuild major constituent is Water */
(PID.TID 0000.0001)                   T
(PID.TID 0000.0001)     ;
(PID.TID 0000.0001) usingPCoords =  /* use p (or p*) vertical coordinate */
(PID.TID 0000.0001)                   F
(PID.TID 0000.0001)     ;
(PID.TID 0000.0001) usingZCoords =  /* use z (or z*) vertical coordinate */
(PID.TID 0000.0001)                   T
(PID.TID 0000.0001)     ;
(PID.TID 0000.0001) tRef =   /* Reference temperature profile ( oC or oK ) */
(PID.TID 0000.0001)    15 @  2.000000000000000E+01              /* K =  1: 15 */
(PID.TID 0000.0001)     ;
(PID.TID 0000.0001) sRef =   /* Reference salinity profile ( ppt ) */
(PID.TID 0000.0001)    15 @  3.500000000000000E+01              /* K =  1: 15 */
(PID.TID 0000.0001)     ;
(PID.TID 0000.0001) viscAh =   /* Lateral eddy viscosity ( m^2/s ) */
(PID.TID 0000.0001)                 5.000000000000000E+05
(PID.TID 0000.0001)     ;
(PID.TID 0000.0001) viscAhMax =   /* Maximum lateral eddy viscosity ( m^2/s ) */
(PID.TID 0000.0001)                 1.000000000000000E+21
(PID.TID 0000.0001)     ;
(PID.TID 0000.0001) viscAhGrid =   /* Grid dependent lateral eddy viscosity ( non-dim. ) */
(PID.TID 0000.0001)                 0.000000000000000E+00
(PID.TID 0000.0001)     ;
(PID.TID 0000.0001) viscC2leith =   /* Leith harmonic viscosity factor ( non-dom. ) */
(PID.TID 0000.0001)                 0.000000000000000E+00
(PID.TID 0000.0001)     ;
(PID.TID 0000.0001) viscA4 =   /* Lateral biharmonic viscosity ( m^4/s ) */
(PID.TID 0000.0001)                 0.000000000000000E+00
(PID.TID 0000.0001)     ;
(PID.TID 0000.0001) viscA4Max =   /* Maximum biharmonic viscosity ( m^2/s ) */
(PID.TID 0000.0001)                 1.000000000000000E+21
(PID.TID 0000.0001)     ;
(PID.TID 0000.0001) viscA4Grid =   /* Grid dependent biharmonic viscosity ( non-dim. ) */
(PID.TID 0000.0001)                 0.000000000000000E+00
(PID.TID 0000.0001)     ;
(PID.TID 0000.0001) viscC4leith =   /* Leith biharmonic viscosity factor ( non-dom. ) */
(PID.TID 0000.0001)                 0.000000000000000E+00
(PID.TID 0000.0001)     ;
(PID.TID 0000.0001) no_slip_sides =  /* Viscous BCs: No-slip sides */
(PID.TID 0000.0001)                   T
(PID.TID 0000.0001)     ;
(PID.TID 0000.0001) viscAr =   /* Vertical eddy viscosity ( units of r^2/s ) */
(PID.TID 0000.0001)                 1.000000000000000E-03
(PID.TID 0000.0001)     ;
(PID.TID 0000.0001) no_slip_bottom =  /* Viscous BCs: No-slip bottom */
(PID.TID 0000.0001)                   T
(PID.TID 0000.0001)     ;
(PID.TID 0000.0001) diffKhT =   /* Laplacian diffusion of heat laterally ( m^2/s ) */
(PID.TID 0000.0001)                 0.000000000000000E+00
(PID.TID 0000.0001)     ;
(PID.TID 0000.0001) diffK4T =   /* Bihaarmonic diffusion of heat laterally ( m^4/s ) */
(PID.TID 0000.0001)                 0.000000000000000E+00
(PID.TID 0000.0001)     ;
(PID.TID 0000.0001) diffKhS =   /* Laplacian diffusion of salt laterally ( m^2/s ) */
(PID.TID 0000.0001)                 0.000000000000000E+00
(PID.TID 0000.0001)     ;
(PID.TID 0000.0001) diffK4S =   /* Bihaarmonic diffusion of salt laterally ( m^4/s ) */
(PID.TID 0000.0001)                 0.000000000000000E+00
(PID.TID 0000.0001)     ;
(PID.TID 0000.0001) diffKrNrT = /* vertical profile of vertical diffusion of Temp ( m^2/s )*/
(PID.TID 0000.0001)    15 @  3.000000000000000E-05              /* K =  1: 15 */
(PID.TID 0000.0001)     ;
(PID.TID 0000.0001) diffKrNrS = /* vertical profile of vertical diffusion of Salt ( m^2/s )*/
(PID.TID 0000.0001)    15 @  3.000000000000000E-05              /* K =  1: 15 */
(PID.TID 0000.0001)     ;
(PID.TID 0000.0001) diffKrBL79surf =   /* Surface diffusion for Bryan and Lewis 1979 ( m^2/s ) */
(PID.TID 0000.0001)                 0.000000000000000E+00
(PID.TID 0000.0001)     ;
(PID.TID 0000.0001) diffKrBL79deep =   /* Deep diffusion for Bryan and Lewis 1979 ( m^2/s ) */
(PID.TID 0000.0001)                 0.000000000000000E+00
(PID.TID 0000.0001)     ;
(PID.TID 0000.0001) diffKrBL79scl =   /* Depth scale for Bryan and Lewis 1979 ( m ) */
(PID.TID 0000.0001)                 2.000000000000000E+02
(PID.TID 0000.0001)     ;
(PID.TID 0000.0001) diffKrBL79Ho =   /* Turning depth for Bryan and Lewis 1979 ( m ) */
(PID.TID 0000.0001)                -2.000000000000000E+03
(PID.TID 0000.0001)     ;
(PID.TID 0000.0001)  Equation of State : eosType = POLY3
(PID.TID 0000.0001) tAlpha =   /* Linear EOS thermal expansion coefficient ( 1/degree ) */
(PID.TID 0000.0001)                 1.234567000000000E+05
(PID.TID 0000.0001)     ;
(PID.TID 0000.0001) sBeta =   /* Linear EOS haline contraction coefficient ( 1/ppt ) */
(PID.TID 0000.0001)                 1.234567000000000E+05
(PID.TID 0000.0001)     ;
(PID.TID 0000.0001)   1  13.497  32.600  24.548  -0.202   0.773  -0.005  -0.002   0.000   0.000   0.000   0.000   0.000
(PID.TID 0000.0001)   2  13.488  32.600  24.819  -0.204   0.773  -0.005  -0.002   0.000   0.000   0.000   0.000   0.000
(PID.TID 0000.0001)   3  13.476  32.600  25.201  -0.205   0.772  -0.005  -0.002   0.000   0.000   0.000   0.000   0.000
(PID.TID 0000.0001)   4   8.469  35.150  28.642  -0.163   0.784  -0.005  -0.002   0.000   0.000   0.000   0.000   0.000
(PID.TID 0000.0001)   5   8.451  35.150  29.393  -0.167   0.782  -0.005  -0.002   0.000   0.000   0.000   0.000   0.000
(PID.TID 0000.0001)   6   5.940  34.900  30.563  -0.144   0.786  -0.005  -0.002  -0.001   0.000   0.000   0.000   0.000
(PID.TID 0000.0001)   7   4.425  34.900  31.985  -0.134   0.788  -0.005  -0.003   0.000   0.000   0.000   0.000   0.000
(PID.TID 0000.0001)   8   2.911  34.750  33.505  -0.125   0.789  -0.006  -0.003   0.000   0.000   0.000   0.000   0.000
(PID.TID 0000.0001)   9   1.893  34.800  35.341  -0.123   0.789  -0.006  -0.003   0.000   0.000   0.000   0.000   0.000
(PID.TID 0000.0001)  10   1.367  34.800  37.299  -0.129   0.787  -0.006  -0.003   0.000   0.000   0.000   0.000   0.000
(PID.TID 0000.0001)  11   1.327  34.800  39.405  -0.141   0.783  -0.005  -0.003   0.000   0.000   0.000   0.000   0.000
(PID.TID 0000.0001)  12   0.791  34.800  41.788  -0.149   0.780  -0.005  -0.003   0.000   0.000   0.000   0.000   0.000
(PID.TID 0000.0001)  13   0.736  34.750  44.259  -0.164   0.776  -0.005  -0.002   0.000   0.000   0.000   0.000   0.000
(PID.TID 0000.0001)  14   0.186  34.750  47.044  -0.175   0.773  -0.005  -0.002   0.000   0.000   0.000   0.000   0.000
(PID.TID 0000.0001)  15   0.595  34.750  49.835  -0.196   0.767  -0.004  -0.002   0.000   0.000   0.000   0.000   0.000
(PID.TID 0000.0001) rhonil =   /* Reference density ( kg/m^3 ) */
(PID.TID 0000.0001)                 1.035000000000000E+03
(PID.TID 0000.0001)     ;
(PID.TID 0000.0001) rhoConst =   /* Reference density ( kg/m^3 ) */
(PID.TID 0000.0001)                 1.035000000000000E+03
(PID.TID 0000.0001)     ;
(PID.TID 0000.0001) rhoConstFresh =   /* Reference density ( kg/m^3 ) */
(PID.TID 0000.0001)                 1.035000000000000E+03
(PID.TID 0000.0001)     ;
(PID.TID 0000.0001) gravity =   /* Gravitational acceleration ( m/s^2 ) */
(PID.TID 0000.0001)                 9.810000000000000E+00
(PID.TID 0000.0001)     ;
(PID.TID 0000.0001) gBaro =   /* Barotropic gravity ( m/s^2 ) */
(PID.TID 0000.0001)                 9.810000000000000E+00
(PID.TID 0000.0001)     ;
(PID.TID 0000.0001) rotationPeriod =   /* Rotation Period ( s ) */
(PID.TID 0000.0001)                 8.640000000000000E+04
(PID.TID 0000.0001)     ;
(PID.TID 0000.0001) omega =   /* Angular velocity ( rad/s ) */
(PID.TID 0000.0001)                 7.272205216643040E-05
(PID.TID 0000.0001)     ;
(PID.TID 0000.0001) f0 =   /* Reference coriolis parameter ( 1/s ) */
(PID.TID 0000.0001)                 1.000000000000000E-04
(PID.TID 0000.0001)     ;
(PID.TID 0000.0001) beta =   /* Beta ( 1/(m.s) ) */
(PID.TID 0000.0001)                 9.999999999999999E-12
(PID.TID 0000.0001)     ;
(PID.TID 0000.0001) freeSurfFac =   /* Implicit free surface factor */
(PID.TID 0000.0001)                 1.000000000000000E+00
(PID.TID 0000.0001)     ;
(PID.TID 0000.0001) implicitFreeSurface =   /* Implicit free surface on/off flag */
(PID.TID 0000.0001)                   T
(PID.TID 0000.0001)     ;
(PID.TID 0000.0001) rigidLid =   /* Rigid lid on/off flag */
(PID.TID 0000.0001)                   F
(PID.TID 0000.0001)     ;
(PID.TID 0000.0001) implicSurfPress =   /* Surface Pressure implicit factor (0-1)*/
(PID.TID 0000.0001)                 1.000000000000000E+00
(PID.TID 0000.0001)     ;
(PID.TID 0000.0001) implicDiv2Dflow =   /* Barot. Flow Div. implicit factor (0-1)*/
(PID.TID 0000.0001)                 1.000000000000000E+00
(PID.TID 0000.0001)     ;
(PID.TID 0000.0001) exactConserv =   /* Exact Volume Conservation on/off flag*/
(PID.TID 0000.0001)                   F
(PID.TID 0000.0001)     ;
(PID.TID 0000.0001) uniformLin_PhiSurf =   /* use uniform Bo_surf on/off flag*/
(PID.TID 0000.0001)                   T
(PID.TID 0000.0001)     ;
(PID.TID 0000.0001) nonlinFreeSurf =   /* Non-linear Free Surf. options (-1,0,1,2,3)*/
(PID.TID 0000.0001)                       0
(PID.TID 0000.0001)     ;
(PID.TID 0000.0001)      -1,0= Off ; 1,2,3= On, 2=+rescale gU,gV, 3=+update cg2d solv.
(PID.TID 0000.0001) hFacInf =   /* lower threshold for hFac (nonlinFreeSurf only)*/
(PID.TID 0000.0001)                 2.000000000000000E-01
(PID.TID 0000.0001)     ;
(PID.TID 0000.0001) hFacSup =   /* upper threshold for hFac (nonlinFreeSurf only)*/
(PID.TID 0000.0001)                 2.000000000000000E+00
(PID.TID 0000.0001)     ;
(PID.TID 0000.0001) select_rStar =   /* r* Coordinate options (not yet implemented)*/
(PID.TID 0000.0001)                       0
(PID.TID 0000.0001)     ;
(PID.TID 0000.0001) useRealFreshWaterFlux =   /* Real Fresh Water Flux on/off flag*/
(PID.TID 0000.0001)                   T
(PID.TID 0000.0001)     ;
(PID.TID 0000.0001) convertFW2Salt = /* convert F.W. Flux to Salt Flux (-1=use local S)(ppt)*/
(PID.TID 0000.0001)                -1.000000000000000E+00
(PID.TID 0000.0001)     ;
(PID.TID 0000.0001) nonHydrostatic =  /* Non-Hydrostatic on/off flag */
(PID.TID 0000.0001)                   F
(PID.TID 0000.0001)     ;
(PID.TID 0000.0001) momStepping =  /* Momentum equation on/off flag */
(PID.TID 0000.0001)                   T
(PID.TID 0000.0001)     ;
(PID.TID 0000.0001) momAdvection =  /* Momentum advection on/off flag */
(PID.TID 0000.0001)                   T
(PID.TID 0000.0001)     ;
(PID.TID 0000.0001) momViscosity =  /* Momentum viscosity on/off flag */
(PID.TID 0000.0001)                   T
(PID.TID 0000.0001)     ;
(PID.TID 0000.0001) momImplVertAdv =/* Momentum implicit vert. advection on/off*/
(PID.TID 0000.0001)                   F
(PID.TID 0000.0001)     ;
(PID.TID 0000.0001) implicitViscosity = /* Implicit viscosity on/off flag */
(PID.TID 0000.0001)                   F
(PID.TID 0000.0001)     ;
(PID.TID 0000.0001) useCoriolis =  /* Coriolis on/off flag */
(PID.TID 0000.0001)                   T
(PID.TID 0000.0001)     ;
(PID.TID 0000.0001) useCDscheme =  /* CD scheme on/off flag */
(PID.TID 0000.0001)                   T
(PID.TID 0000.0001)     ;
(PID.TID 0000.0001) useJamartWetPoints= /* Coriolis WetPoints method flag */
(PID.TID 0000.0001)                   F
(PID.TID 0000.0001)     ;
(PID.TID 0000.0001) useJamartMomAdv= /* V.I. Non-linear terms Jamart flag */
(PID.TID 0000.0001)                   F
(PID.TID 0000.0001)     ;
(PID.TID 0000.0001) SadournyCoriolis= /* Sadourny Coriolis discr. flag */
(PID.TID 0000.0001)                   F
(PID.TID 0000.0001)     ;
(PID.TID 0000.0001) upwindVorticity= /* Upwind bias vorticity flag */
(PID.TID 0000.0001)                   F
(PID.TID 0000.0001)     ;
(PID.TID 0000.0001) useAbsVorticity= /* Work with f+zeta in Coriolis */
(PID.TID 0000.0001)                   F
(PID.TID 0000.0001)     ;
(PID.TID 0000.0001) highOrderVorticity= /* High order interp. of vort. flag */
(PID.TID 0000.0001)                   F
(PID.TID 0000.0001)     ;
(PID.TID 0000.0001) momForcing =  /* Momentum forcing on/off flag */
(PID.TID 0000.0001)                   T
(PID.TID 0000.0001)     ;
(PID.TID 0000.0001) momPressureForcing =  /* Momentum pressure term on/off flag */
(PID.TID 0000.0001)                   T
(PID.TID 0000.0001)     ;
(PID.TID 0000.0001) staggerTimeStep =   /* Stagger time stepping on/off flag */
(PID.TID 0000.0001)                   F
(PID.TID 0000.0001)     ;
(PID.TID 0000.0001) multiDimAdvection =   /* enable/disable Multi-Dim Advection */
(PID.TID 0000.0001)                   T
(PID.TID 0000.0001)     ;
(PID.TID 0000.0001) useMultiDimAdvec =   /* Multi-Dim Advection is/is-not used */
(PID.TID 0000.0001)                   F
(PID.TID 0000.0001)     ;
(PID.TID 0000.0001) implicitDiffusion =/* Implicit Diffusion on/off flag */
(PID.TID 0000.0001)                   T
(PID.TID 0000.0001)     ;
(PID.TID 0000.0001) tempStepping =  /* Temperature equation on/off flag */
(PID.TID 0000.0001)                   T
(PID.TID 0000.0001)     ;
(PID.TID 0000.0001) tempAdvection=  /* Temperature advection on/off flag */
(PID.TID 0000.0001)                   T
(PID.TID 0000.0001)     ;
(PID.TID 0000.0001) tempImplVertAdv =/* Temp. implicit vert. advection on/off */
(PID.TID 0000.0001)                   F
(PID.TID 0000.0001)     ;
(PID.TID 0000.0001) tempForcing  =  /* Temperature forcing on/off flag */
(PID.TID 0000.0001)                   T
(PID.TID 0000.0001)     ;
(PID.TID 0000.0001) saltStepping =  /* Salinity equation on/off flag */
(PID.TID 0000.0001)                   T
(PID.TID 0000.0001)     ;
(PID.TID 0000.0001) saltAdvection=  /* Salinity advection on/off flag */
(PID.TID 0000.0001)                   T
(PID.TID 0000.0001)     ;
(PID.TID 0000.0001) saltImplVertAdv =/* Sali. implicit vert. advection on/off */
(PID.TID 0000.0001)                   F
(PID.TID 0000.0001)     ;
(PID.TID 0000.0001) saltForcing  =  /* Salinity forcing on/off flag */
(PID.TID 0000.0001)                   T
(PID.TID 0000.0001)     ;
(PID.TID 0000.0001) //
(PID.TID 0000.0001) // Elliptic solver(s) paramters ( PARM02 in namelist )
(PID.TID 0000.0001) //
(PID.TID 0000.0001) cg2dMaxIters =   /* Upper limit on 2d con. grad iterations  */
(PID.TID 0000.0001)                     500
(PID.TID 0000.0001)     ;
(PID.TID 0000.0001) cg2dChkResFreq =   /* 2d con. grad convergence test frequency */
(PID.TID 0000.0001)                       1
(PID.TID 0000.0001)     ;
(PID.TID 0000.0001) cg2dTargetResidual =   /* 2d con. grad target residual  */
(PID.TID 0000.0001)                 1.000000000000000E-13
(PID.TID 0000.0001)     ;
(PID.TID 0000.0001) cg2dTargetResWunit =   /* CG2d target residual [W units] */
(PID.TID 0000.0001)                -1.000000000000000E+00
(PID.TID 0000.0001)     ;
(PID.TID 0000.0001) cg2dPreCondFreq =   /* Freq. for updating cg2d preconditioner */
(PID.TID 0000.0001)                       1
(PID.TID 0000.0001)     ;
(PID.TID 0000.0001) //
(PID.TID 0000.0001) // Time stepping paramters ( PARM03 in namelist )
(PID.TID 0000.0001) //
(PID.TID 0000.0001) nIter0 =   /* Base timestep number  */
(PID.TID 0000.0001)                       0
(PID.TID 0000.0001)     ;
(PID.TID 0000.0001) nTimeSteps =   /* Number of timesteps */
(PID.TID 0000.0001)                      20
(PID.TID 0000.0001)     ;
(PID.TID 0000.0001) deltatTmom =   /* Momentum equation timestep ( s ) */
(PID.TID 0000.0001)                 1.200000000000000E+03
(PID.TID 0000.0001)     ;
(PID.TID 0000.0001) deltaTfreesurf =   /* FreeSurface equation timestep ( s ) */
(PID.TID 0000.0001)                 1.200000000000000E+03
(PID.TID 0000.0001)     ;
(PID.TID 0000.0001) dTtracerLev =   /* Tracer equation timestep ( s ) */
(PID.TID 0000.0001)    15 @  4.320000000000000E+04              /* K =  1: 15 */
(PID.TID 0000.0001)     ;
(PID.TID 0000.0001) deltatTClock  =   /* Model clock timestep ( s ) */
(PID.TID 0000.0001)                 4.320000000000000E+04
(PID.TID 0000.0001)     ;
(PID.TID 0000.0001) cAdjFreq =   /* Convective adjustment interval ( s ) */
(PID.TID 0000.0001)                 0.000000000000000E+00
(PID.TID 0000.0001)     ;
(PID.TID 0000.0001) forcing_In_AB =   /* put T,S Forcing in Adams-Bash. stepping */
(PID.TID 0000.0001)                   T
(PID.TID 0000.0001)     ;
(PID.TID 0000.0001) abeps =   /* Adams-Bashforth stabilizing weight */
(PID.TID 0000.0001)                 1.000000000000000E-01
(PID.TID 0000.0001)     ;
(PID.TID 0000.0001) tauCD =   /* CD coupling time-scale ( s ) */
(PID.TID 0000.0001)                 3.214280000000000E+05
(PID.TID 0000.0001)     ;
(PID.TID 0000.0001) rCD =   /* Normalised CD coupling parameter */
(PID.TID 0000.0001)                 9.962666600296178E-01
(PID.TID 0000.0001)     ;
(PID.TID 0000.0001) startTime =   /* Run start time ( s ). */
(PID.TID 0000.0001)                 0.000000000000000E+00
(PID.TID 0000.0001)     ;
(PID.TID 0000.0001) endTime =   /* Integration ending time ( s ). */
(PID.TID 0000.0001)                 8.640000000000000E+05
(PID.TID 0000.0001)     ;
(PID.TID 0000.0001) pChkPtFreq =   /* Permanent restart/checkpoint file interval ( s ). */
(PID.TID 0000.0001)                 3.110400000000000E+08
(PID.TID 0000.0001)     ;
(PID.TID 0000.0001) chkPtFreq =   /* Rolling restart/checkpoint file interval ( s ). */
(PID.TID 0000.0001)                 0.000000000000000E+00
(PID.TID 0000.0001)     ;
(PID.TID 0000.0001) pickup_write_mdsio =   /* Model IO flag. */
(PID.TID 0000.0001)                   T
(PID.TID 0000.0001)     ;
(PID.TID 0000.0001) pickup_read_mdsio =   /* Model IO flag. */
(PID.TID 0000.0001)                   T
(PID.TID 0000.0001)     ;
(PID.TID 0000.0001) pickup_write_mnc =   /* Model IO flag. */
(PID.TID 0000.0001)                   F
(PID.TID 0000.0001)     ;
(PID.TID 0000.0001) pickup_read_mnc =   /* Model IO flag. */
(PID.TID 0000.0001)                   F
(PID.TID 0000.0001)     ;
(PID.TID 0000.0001) pickup_write_immed =   /* Model IO flag. */
(PID.TID 0000.0001)                   F
(PID.TID 0000.0001)     ;
(PID.TID 0000.0001) dumpFreq =   /* Model state write out interval ( s ). */
(PID.TID 0000.0001)                 8.640000000000000E+05
(PID.TID 0000.0001)     ;
(PID.TID 0000.0001) snapshot_mdsio =   /* Model IO flag. */
(PID.TID 0000.0001)                   F
(PID.TID 0000.0001)     ;
(PID.TID 0000.0001) snapshot_mnc =   /* Model IO flag. */
(PID.TID 0000.0001)                   T
(PID.TID 0000.0001)     ;
(PID.TID 0000.0001) monitorFreq =   /* Monitor output interval ( s ). */
(PID.TID 0000.0001)                 1.000000000000000E+00
(PID.TID 0000.0001)     ;
(PID.TID 0000.0001) monitor_stdio =   /* Model IO flag. */
(PID.TID 0000.0001)                   T
(PID.TID 0000.0001)     ;
(PID.TID 0000.0001) monitor_mnc =   /* Model IO flag. */
(PID.TID 0000.0001)                   F
(PID.TID 0000.0001)     ;
(PID.TID 0000.0001) externForcingPeriod =   /* forcing period (s) */
(PID.TID 0000.0001)                 2.592000000000000E+06
(PID.TID 0000.0001)     ;
(PID.TID 0000.0001) externForcingCycle =   /* period of the cyle (s). */
(PID.TID 0000.0001)                 3.110400000000000E+07
(PID.TID 0000.0001)     ;
(PID.TID 0000.0001) tauThetaClimRelax =   /* relaxation time scale (s) */
(PID.TID 0000.0001)                 5.184000000000000E+06
(PID.TID 0000.0001)     ;
(PID.TID 0000.0001) tauSaltClimRelax =   /* relaxation time scale (s) */
(PID.TID 0000.0001)                 1.555200000000000E+07
(PID.TID 0000.0001)     ;
(PID.TID 0000.0001) latBandClimRelax =   /* max. Lat. where relaxation */
(PID.TID 0000.0001)                 1.800000000000000E+02
(PID.TID 0000.0001)     ;
(PID.TID 0000.0001) //
(PID.TID 0000.0001) // Gridding paramters ( PARM04 in namelist )
(PID.TID 0000.0001) //
(PID.TID 0000.0001) usingCartesianGrid =   /* Cartesian coordinates flag ( True / False ) */
(PID.TID 0000.0001)                   F
(PID.TID 0000.0001)     ;
(PID.TID 0000.0001) usingSphericalPolarGrid =   /* Spherical coordinates flag ( True / False ) */
(PID.TID 0000.0001)                   T
(PID.TID 0000.0001)     ;
(PID.TID 0000.0001) usingCylindricalGrid =   /* Spherical coordinates flag ( True / False ) */
(PID.TID 0000.0001)                   F
(PID.TID 0000.0001)     ;
(PID.TID 0000.0001) groundAtK1 =   /* Lower Boundary (ground) at the surface(k=1) ( T / F ) */
(PID.TID 0000.0001)                   F
(PID.TID 0000.0001)     ;
(PID.TID 0000.0001) Ro_SeaLevel =   /* r(1) ( units of r ) */
(PID.TID 0000.0001)                 0.000000000000000E+00
(PID.TID 0000.0001)     ;
(PID.TID 0000.0001) rkFac =   /* minus Vertical index orientation  */
(PID.TID 0000.0001)                 1.000000000000000E+00
(PID.TID 0000.0001)     ;
(PID.TID 0000.0001) horiVertRatio =   /* Ratio on units : Horiz - Vertical */
(PID.TID 0000.0001)                 1.000000000000000E+00
(PID.TID 0000.0001)     ;
(PID.TID 0000.0001) drC =   /* C spacing ( units of r ) */
(PID.TID 0000.0001)                 2.500000000000000E+01,      /* K =  1 */
(PID.TID 0000.0001)                 6.000000000000000E+01,      /* K =  2 */
(PID.TID 0000.0001)                 8.500000000000000E+01,      /* K =  3 */
(PID.TID 0000.0001)                 1.200000000000000E+02,      /* K =  4 */
(PID.TID 0000.0001)                 1.650000000000000E+02,      /* K =  5 */
(PID.TID 0000.0001)                 2.150000000000000E+02,      /* K =  6 */
(PID.TID 0000.0001)                 2.650000000000000E+02,      /* K =  7 */
(PID.TID 0000.0001)                 3.150000000000000E+02,      /* K =  8 */
(PID.TID 0000.0001)                 3.650000000000000E+02,      /* K =  9 */
(PID.TID 0000.0001)                 4.150000000000000E+02,      /* K = 10 */
(PID.TID 0000.0001)                 4.650000000000000E+02,      /* K = 11 */
(PID.TID 0000.0001)                 5.150000000000000E+02,      /* K = 12 */
(PID.TID 0000.0001)                 5.650000000000000E+02,      /* K = 13 */
(PID.TID 0000.0001)                 6.150000000000000E+02,      /* K = 14 */
(PID.TID 0000.0001)                 6.650000000000000E+02       /* K = 15 */
(PID.TID 0000.0001)     ;
(PID.TID 0000.0001) drF =   /* W spacing ( units of r ) */
(PID.TID 0000.0001)                 5.000000000000000E+01,      /* K =  1 */
(PID.TID 0000.0001)                 7.000000000000000E+01,      /* K =  2 */
(PID.TID 0000.0001)                 1.000000000000000E+02,      /* K =  3 */
(PID.TID 0000.0001)                 1.400000000000000E+02,      /* K =  4 */
(PID.TID 0000.0001)                 1.900000000000000E+02,      /* K =  5 */
(PID.TID 0000.0001)                 2.400000000000000E+02,      /* K =  6 */
(PID.TID 0000.0001)                 2.900000000000000E+02,      /* K =  7 */
(PID.TID 0000.0001)                 3.400000000000000E+02,      /* K =  8 */
(PID.TID 0000.0001)                 3.900000000000000E+02,      /* K =  9 */
(PID.TID 0000.0001)                 4.400000000000000E+02,      /* K = 10 */
(PID.TID 0000.0001)                 4.900000000000000E+02,      /* K = 11 */
(PID.TID 0000.0001)                 5.400000000000000E+02,      /* K = 12 */
(PID.TID 0000.0001)                 5.900000000000000E+02,      /* K = 13 */
(PID.TID 0000.0001)                 6.400000000000000E+02,      /* K = 14 */
(PID.TID 0000.0001)                 6.900000000000000E+02       /* K = 15 */
(PID.TID 0000.0001)     ;
(PID.TID 0000.0001) delX =   /* U spacing ( m - cartesian, degrees - spherical ) */
(PID.TID 0000.0001)    90 @  4.000000000000000E+00              /* I =  1: 90 */
(PID.TID 0000.0001)     ;
(PID.TID 0000.0001) delY =   /* V spacing ( m - cartesian, degrees - spherical ) */
(PID.TID 0000.0001)    40 @  4.000000000000000E+00              /* J =  1: 40 */
(PID.TID 0000.0001)     ;
(PID.TID 0000.0001) phiMin =    /* South edge (ignored - cartesian, degrees - spherical ) */
(PID.TID 0000.0001)                -8.000000000000000E+01
(PID.TID 0000.0001)     ;
(PID.TID 0000.0001) thetaMin =    /* West edge ( ignored - cartesian, degrees - spherical ) */
(PID.TID 0000.0001)                 0.000000000000000E+00
(PID.TID 0000.0001)     ;
(PID.TID 0000.0001) rSphere =    /* Radius ( ignored - cartesian, m - spherical ) */
(PID.TID 0000.0001)                 6.370000000000000E+06
(PID.TID 0000.0001)     ;
(PID.TID 0000.0001) xcoord =   /* P-point X coord ( m - cartesian, degrees - spherical ) */
(PID.TID 0000.0001)                 2.000000000000000E+00,      /* I =  1 */
(PID.TID 0000.0001)                 6.000000000000000E+00,      /* I =  2 */
(PID.TID 0000.0001)                 1.000000000000000E+01,      /* I =  3 */
(PID.TID 0000.0001)                 1.400000000000000E+01,      /* I =  4 */
(PID.TID 0000.0001)                 1.800000000000000E+01,      /* I =  5 */
(PID.TID 0000.0001)                 2.200000000000000E+01,      /* I =  6 */
(PID.TID 0000.0001)                 2.600000000000000E+01,      /* I =  7 */
(PID.TID 0000.0001)                 3.000000000000000E+01,      /* I =  8 */
(PID.TID 0000.0001)                 3.400000000000000E+01,      /* I =  9 */
(PID.TID 0000.0001)                 3.800000000000000E+01,      /* I = 10 */
(PID.TID 0000.0001)                 4.200000000000000E+01,      /* I = 11 */
(PID.TID 0000.0001)                 4.600000000000000E+01,      /* I = 12 */
(PID.TID 0000.0001)                 5.000000000000000E+01,      /* I = 13 */
(PID.TID 0000.0001)                 5.400000000000000E+01,      /* I = 14 */
(PID.TID 0000.0001)                 5.800000000000000E+01,      /* I = 15 */
(PID.TID 0000.0001)                 6.200000000000000E+01,      /* I = 16 */
(PID.TID 0000.0001)                 6.600000000000000E+01,      /* I = 17 */
(PID.TID 0000.0001)                 7.000000000000000E+01,      /* I = 18 */
(PID.TID 0000.0001)                 7.400000000000000E+01,      /* I = 19 */
(PID.TID 0000.0001)                 7.800000000000000E+01,      /* I = 20 */
(PID.TID 0000.0001)                 8.200000000000000E+01,      /* I = 21 */
(PID.TID 0000.0001)                 8.600000000000000E+01,      /* I = 22 */
(PID.TID 0000.0001)                 9.000000000000000E+01,      /* I = 23 */
(PID.TID 0000.0001)                 9.400000000000000E+01,      /* I = 24 */
(PID.TID 0000.0001)                 9.800000000000000E+01,      /* I = 25 */
(PID.TID 0000.0001)                 1.020000000000000E+02,      /* I = 26 */
(PID.TID 0000.0001)                 1.060000000000000E+02,      /* I = 27 */
(PID.TID 0000.0001)                 1.100000000000000E+02,      /* I = 28 */
(PID.TID 0000.0001)                 1.140000000000000E+02,      /* I = 29 */
(PID.TID 0000.0001)                 1.180000000000000E+02,      /* I = 30 */
(PID.TID 0000.0001)                 1.220000000000000E+02,      /* I = 31 */
(PID.TID 0000.0001)                 1.260000000000000E+02,      /* I = 32 */
(PID.TID 0000.0001)                 1.300000000000000E+02,      /* I = 33 */
(PID.TID 0000.0001)                 1.340000000000000E+02,      /* I = 34 */
(PID.TID 0000.0001)                 1.380000000000000E+02,      /* I = 35 */
(PID.TID 0000.0001)                 1.420000000000000E+02,      /* I = 36 */
(PID.TID 0000.0001)                 1.460000000000000E+02,      /* I = 37 */
(PID.TID 0000.0001)                 1.500000000000000E+02,      /* I = 38 */
(PID.TID 0000.0001)                 1.540000000000000E+02,      /* I = 39 */
(PID.TID 0000.0001)                 1.580000000000000E+02,      /* I = 40 */
(PID.TID 0000.0001)                 1.620000000000000E+02,      /* I = 41 */
(PID.TID 0000.0001)                 1.660000000000000E+02,      /* I = 42 */
(PID.TID 0000.0001)                 1.700000000000000E+02,      /* I = 43 */
(PID.TID 0000.0001)                 1.740000000000000E+02,      /* I = 44 */
(PID.TID 0000.0001)                 1.780000000000000E+02,      /* I = 45 */
(PID.TID 0000.0001)                 1.820000000000000E+02,      /* I = 46 */
(PID.TID 0000.0001)                 1.860000000000000E+02,      /* I = 47 */
(PID.TID 0000.0001)                 1.900000000000000E+02,      /* I = 48 */
(PID.TID 0000.0001)                 1.940000000000000E+02,      /* I = 49 */
(PID.TID 0000.0001)                 1.980000000000000E+02,      /* I = 50 */
(PID.TID 0000.0001)                 2.020000000000000E+02,      /* I = 51 */
(PID.TID 0000.0001)                 2.060000000000000E+02,      /* I = 52 */
(PID.TID 0000.0001)                 2.100000000000000E+02,      /* I = 53 */
(PID.TID 0000.0001)                 2.140000000000000E+02,      /* I = 54 */
(PID.TID 0000.0001)                 2.180000000000000E+02,      /* I = 55 */
(PID.TID 0000.0001)                 2.220000000000000E+02,      /* I = 56 */
(PID.TID 0000.0001)                 2.260000000000000E+02,      /* I = 57 */
(PID.TID 0000.0001)                 2.300000000000000E+02,      /* I = 58 */
(PID.TID 0000.0001)                 2.340000000000000E+02,      /* I = 59 */
(PID.TID 0000.0001)                 2.380000000000000E+02,      /* I = 60 */
(PID.TID 0000.0001)                 2.420000000000000E+02,      /* I = 61 */
(PID.TID 0000.0001)                 2.460000000000000E+02,      /* I = 62 */
(PID.TID 0000.0001)                 2.500000000000000E+02,      /* I = 63 */
(PID.TID 0000.0001)                 2.540000000000000E+02,      /* I = 64 */
(PID.TID 0000.0001)                 2.580000000000000E+02,      /* I = 65 */
(PID.TID 0000.0001)                 2.620000000000000E+02,      /* I = 66 */
(PID.TID 0000.0001)                 2.660000000000000E+02,      /* I = 67 */
(PID.TID 0000.0001)                 2.700000000000000E+02,      /* I = 68 */
(PID.TID 0000.0001)                 2.740000000000000E+02,      /* I = 69 */
(PID.TID 0000.0001)                 2.780000000000000E+02,      /* I = 70 */
(PID.TID 0000.0001)                 2.820000000000000E+02,      /* I = 71 */
(PID.TID 0000.0001)                 2.860000000000000E+02,      /* I = 72 */
(PID.TID 0000.0001)                 2.900000000000000E+02,      /* I = 73 */
(PID.TID 0000.0001)                 2.940000000000000E+02,      /* I = 74 */
(PID.TID 0000.0001)                 2.980000000000000E+02,      /* I = 75 */
(PID.TID 0000.0001)                 3.020000000000000E+02,      /* I = 76 */
(PID.TID 0000.0001)                 3.060000000000000E+02,      /* I = 77 */
(PID.TID 0000.0001)                 3.100000000000000E+02,      /* I = 78 */
(PID.TID 0000.0001)                 3.140000000000000E+02,      /* I = 79 */
(PID.TID 0000.0001)                 3.180000000000000E+02,      /* I = 80 */
(PID.TID 0000.0001)                 3.220000000000000E+02,      /* I = 81 */
(PID.TID 0000.0001)                 3.260000000000000E+02,      /* I = 82 */
(PID.TID 0000.0001)                 3.300000000000000E+02,      /* I = 83 */
(PID.TID 0000.0001)                 3.340000000000000E+02,      /* I = 84 */
(PID.TID 0000.0001)                 3.380000000000000E+02,      /* I = 85 */
(PID.TID 0000.0001)                 3.420000000000000E+02,      /* I = 86 */
(PID.TID 0000.0001)                 3.460000000000000E+02,      /* I = 87 */
(PID.TID 0000.0001)                 3.500000000000000E+02,      /* I = 88 */
(PID.TID 0000.0001)                 3.540000000000000E+02,      /* I = 89 */
(PID.TID 0000.0001)                 3.580000000000000E+02       /* I = 90 */
(PID.TID 0000.0001)     ;
(PID.TID 0000.0001) ycoord =   /* P-point Y coord ( m - cartesian, degrees - spherical ) */
(PID.TID 0000.0001)                -7.800000000000000E+01,      /* J =  1 */
(PID.TID 0000.0001)                -7.400000000000000E+01,      /* J =  2 */
(PID.TID 0000.0001)                -7.000000000000000E+01,      /* J =  3 */
(PID.TID 0000.0001)                -6.600000000000000E+01,      /* J =  4 */
(PID.TID 0000.0001)                -6.200000000000000E+01,      /* J =  5 */
(PID.TID 0000.0001)                -5.800000000000000E+01,      /* J =  6 */
(PID.TID 0000.0001)                -5.400000000000000E+01,      /* J =  7 */
(PID.TID 0000.0001)                -5.000000000000000E+01,      /* J =  8 */
(PID.TID 0000.0001)                -4.600000000000000E+01,      /* J =  9 */
(PID.TID 0000.0001)                -4.200000000000000E+01,      /* J = 10 */
(PID.TID 0000.0001)                -3.800000000000000E+01,      /* J = 11 */
(PID.TID 0000.0001)                -3.400000000000000E+01,      /* J = 12 */
(PID.TID 0000.0001)                -3.000000000000000E+01,      /* J = 13 */
(PID.TID 0000.0001)                -2.600000000000000E+01,      /* J = 14 */
(PID.TID 0000.0001)                -2.200000000000000E+01,      /* J = 15 */
(PID.TID 0000.0001)                -1.800000000000000E+01,      /* J = 16 */
(PID.TID 0000.0001)                -1.400000000000000E+01,      /* J = 17 */
(PID.TID 0000.0001)                -1.000000000000000E+01,      /* J = 18 */
(PID.TID 0000.0001)                -6.000000000000000E+00,      /* J = 19 */
(PID.TID 0000.0001)                -2.000000000000000E+00,      /* J = 20 */
(PID.TID 0000.0001)                 2.000000000000000E+00,      /* J = 21 */
(PID.TID 0000.0001)                 6.000000000000000E+00,      /* J = 22 */
(PID.TID 0000.0001)                 1.000000000000000E+01,      /* J = 23 */
(PID.TID 0000.0001)                 1.400000000000000E+01,      /* J = 24 */
(PID.TID 0000.0001)                 1.800000000000000E+01,      /* J = 25 */
(PID.TID 0000.0001)                 2.200000000000000E+01,      /* J = 26 */
(PID.TID 0000.0001)                 2.600000000000000E+01,      /* J = 27 */
(PID.TID 0000.0001)                 3.000000000000000E+01,      /* J = 28 */
(PID.TID 0000.0001)                 3.400000000000000E+01,      /* J = 29 */
(PID.TID 0000.0001)                 3.800000000000000E+01,      /* J = 30 */
(PID.TID 0000.0001)                 4.200000000000000E+01,      /* J = 31 */
(PID.TID 0000.0001)                 4.600000000000000E+01,      /* J = 32 */
(PID.TID 0000.0001)                 5.000000000000000E+01,      /* J = 33 */
(PID.TID 0000.0001)                 5.400000000000000E+01,      /* J = 34 */
(PID.TID 0000.0001)                 5.800000000000000E+01,      /* J = 35 */
(PID.TID 0000.0001)                 6.200000000000000E+01,      /* J = 36 */
(PID.TID 0000.0001)                 6.600000000000000E+01,      /* J = 37 */
(PID.TID 0000.0001)                 7.000000000000000E+01,      /* J = 38 */
(PID.TID 0000.0001)                 7.400000000000000E+01,      /* J = 39 */
(PID.TID 0000.0001)                 7.800000000000000E+01       /* J = 40 */
(PID.TID 0000.0001)     ;
(PID.TID 0000.0001) rcoord =   /* P-point R coordinate (  units of r ) */
(PID.TID 0000.0001)                -2.500000000000000E+01,      /* K =  1 */
(PID.TID 0000.0001)                -8.500000000000000E+01,      /* K =  2 */
(PID.TID 0000.0001)                -1.700000000000000E+02,      /* K =  3 */
(PID.TID 0000.0001)                -2.900000000000000E+02,      /* K =  4 */
(PID.TID 0000.0001)                -4.550000000000000E+02,      /* K =  5 */
(PID.TID 0000.0001)                -6.700000000000000E+02,      /* K =  6 */
(PID.TID 0000.0001)                -9.350000000000000E+02,      /* K =  7 */
(PID.TID 0000.0001)                -1.250000000000000E+03,      /* K =  8 */
(PID.TID 0000.0001)                -1.615000000000000E+03,      /* K =  9 */
(PID.TID 0000.0001)                -2.030000000000000E+03,      /* K = 10 */
(PID.TID 0000.0001)                -2.495000000000000E+03,      /* K = 11 */
(PID.TID 0000.0001)                -3.010000000000000E+03,      /* K = 12 */
(PID.TID 0000.0001)                -3.575000000000000E+03,      /* K = 13 */
(PID.TID 0000.0001)                -4.190000000000000E+03,      /* K = 14 */
(PID.TID 0000.0001)                -4.855000000000000E+03       /* K = 15 */
(PID.TID 0000.0001)     ;
(PID.TID 0000.0001) rF =   /* W-Interf. R coordinate (  units of r ) */
(PID.TID 0000.0001)                 0.000000000000000E+00,      /* K =  1 */
(PID.TID 0000.0001)                -5.000000000000000E+01,      /* K =  2 */
(PID.TID 0000.0001)                -1.200000000000000E+02,      /* K =  3 */
(PID.TID 0000.0001)                -2.200000000000000E+02,      /* K =  4 */
(PID.TID 0000.0001)                -3.600000000000000E+02,      /* K =  5 */
(PID.TID 0000.0001)                -5.500000000000000E+02,      /* K =  6 */
(PID.TID 0000.0001)                -7.900000000000000E+02,      /* K =  7 */
(PID.TID 0000.0001)                -1.080000000000000E+03,      /* K =  8 */
(PID.TID 0000.0001)                -1.420000000000000E+03,      /* K =  9 */
(PID.TID 0000.0001)                -1.810000000000000E+03,      /* K = 10 */
(PID.TID 0000.0001)                -2.250000000000000E+03,      /* K = 11 */
(PID.TID 0000.0001)                -2.740000000000000E+03,      /* K = 12 */
(PID.TID 0000.0001)                -3.280000000000000E+03,      /* K = 13 */
(PID.TID 0000.0001)                -3.870000000000000E+03,      /* K = 14 */
(PID.TID 0000.0001)                -4.510000000000000E+03,      /* K = 15 */
(PID.TID 0000.0001)                -5.200000000000000E+03       /* K = 16 */
(PID.TID 0000.0001)     ;
(PID.TID 0000.0001) dxF =  /* dxF(:,1,:,1) ( m - cartesian, degrees - spherical ) */
(PID.TID 0000.0001)    90 @  9.246038586187513E+04              /* I =  1: 90 */
(PID.TID 0000.0001)     ;
(PID.TID 0000.0001) dxF =  /* dxF(1,:,1,:) ( m - cartesian, degrees - spherical ) */
(PID.TID 0000.0001)                 9.246038586187513E+04,      /* J =  1 */
(PID.TID 0000.0001)                 1.225786591246834E+05,      /* J =  2 */
(PID.TID 0000.0001)                 1.520997414818001E+05,      /* J =  3 */
(PID.TID 0000.0001)                 1.808798091874300E+05,      /* J =  4 */
(PID.TID 0000.0001)                 2.087786486446736E+05,      /* J =  5 */
(PID.TID 0000.0001)                 2.356603395120765E+05,      /* J =  6 */
(PID.TID 0000.0001)                 2.613939168938713E+05,      /* J =  7 */
(PID.TID 0000.0001)                 2.858540093877838E+05,      /* J =  8 */
(PID.TID 0000.0001)                 3.089214498819034E+05,      /* J =  9 */
(PID.TID 0000.0001)                 3.304838561248741E+05,      /* J = 10 */
(PID.TID 0000.0001)                 3.504361782409254E+05,      /* J = 11 */
(PID.TID 0000.0001)                 3.686812105223082E+05,      /* J = 12 */
(PID.TID 0000.0001)                 3.851300650057323E+05,      /* J = 13 */
(PID.TID 0000.0001)                 3.997026045255871E+05,      /* J = 14 */
(PID.TID 0000.0001)                 4.123278331341585E+05,      /* J = 15 */
(PID.TID 0000.0001)                 4.229442419867491E+05,      /* J = 16 */
(PID.TID 0000.0001)                 4.315001090065870E+05,      /* J = 17 */
(PID.TID 0000.0001)                 4.379537508695838E+05,      /* J = 18 */
(PID.TID 0000.0001)                 4.422737260813012E+05,      /* J = 19 */
(PID.TID 0000.0001)     2 @  4.444389881567502E+05,             /* J = 20: 21 */
(PID.TID 0000.0001)                 4.422737260813012E+05,      /* J = 22 */
(PID.TID 0000.0001)                 4.379537508695838E+05,      /* J = 23 */
(PID.TID 0000.0001)                 4.315001090065870E+05,      /* J = 24 */
(PID.TID 0000.0001)                 4.229442419867491E+05,      /* J = 25 */
(PID.TID 0000.0001)                 4.123278331341585E+05,      /* J = 26 */
(PID.TID 0000.0001)                 3.997026045255871E+05,      /* J = 27 */
(PID.TID 0000.0001)                 3.851300650057323E+05,      /* J = 28 */
(PID.TID 0000.0001)                 3.686812105223082E+05,      /* J = 29 */
(PID.TID 0000.0001)                 3.504361782409254E+05,      /* J = 30 */
(PID.TID 0000.0001)                 3.304838561248741E+05,      /* J = 31 */
(PID.TID 0000.0001)                 3.089214498819034E+05,      /* J = 32 */
(PID.TID 0000.0001)                 2.858540093877838E+05,      /* J = 33 */
(PID.TID 0000.0001)                 2.613939168938713E+05,      /* J = 34 */
(PID.TID 0000.0001)                 2.356603395120765E+05,      /* J = 35 */
(PID.TID 0000.0001)                 2.087786486446736E+05,      /* J = 36 */
(PID.TID 0000.0001)                 1.808798091874300E+05,      /* J = 37 */
(PID.TID 0000.0001)                 1.520997414818001E+05,      /* J = 38 */
(PID.TID 0000.0001)                 1.225786591246834E+05,      /* J = 39 */
(PID.TID 0000.0001)                 9.246038586187513E+04       /* J = 40 */
(PID.TID 0000.0001)     ;
(PID.TID 0000.0001) dyF =  /* dyF(:,1,:,1) ( m - cartesian, degrees - spherical ) */
(PID.TID 0000.0001)    90 @  4.447098934081552E+05              /* I =  1: 90 */
(PID.TID 0000.0001)     ;
(PID.TID 0000.0001) dyF =  /* dyF(1,:,1,:) ( m - cartesian, degrees - spherical ) */
(PID.TID 0000.0001)    40 @  4.447098934081552E+05              /* J =  1: 40 */
(PID.TID 0000.0001)     ;
(PID.TID 0000.0001) dxG =  /* dxG(:,1,:,1) ( m - cartesian, degrees - spherical ) */
(PID.TID 0000.0001)    90 @  7.722306258078101E+04              /* I =  1: 90 */
(PID.TID 0000.0001)     ;
(PID.TID 0000.0001) dxG =  /* dxG(1,:,1,:) ( m - cartesian, degrees - spherical ) */
(PID.TID 0000.0001)                 7.722306258078101E+04,      /* J =  1 */
(PID.TID 0000.0001)                 1.075850604052271E+05,      /* J =  2 */
(PID.TID 0000.0001)                 1.374229146297914E+05,      /* J =  3 */
(PID.TID 0000.0001)                 1.665912582279823E+05,      /* J =  4 */
(PID.TID 0000.0001)                 1.949479859617814E+05,      /* J =  5 */
(PID.TID 0000.0001)                 2.223549467040777E+05,      /* J =  6 */
(PID.TID 0000.0001)                 2.486786164970726E+05,      /* J =  7 */
(PID.TID 0000.0001)                 2.737907490675810E+05,      /* J =  8 */
(PID.TID 0000.0001)                 2.975690006299821E+05,      /* J =  9 */
(PID.TID 0000.0001)                 3.198975259328452E+05,      /* J = 10 */
(PID.TID 0000.0001)                 3.406675426453503E+05,      /* J = 11 */
(PID.TID 0000.0001)                 3.597778613338690E+05,      /* J = 12 */
(PID.TID 0000.0001)                 3.771353784467131E+05,      /* J = 13 */
(PID.TID 0000.0001)                 3.926555299052806E+05,      /* J = 14 */
(PID.TID 0000.0001)                 4.062627030917454E+05,      /* J = 15 */
(PID.TID 0000.0001)                 4.178906052261313E+05,      /* J = 16 */
(PID.TID 0000.0001)                 4.274825863380723E+05,      /* J = 17 */
(PID.TID 0000.0001)                 4.349919152597734E+05,      /* J = 18 */
(PID.TID 0000.0001)                 4.403820072955634E+05,      /* J = 19 */
(PID.TID 0000.0001)                 4.436266024588540E+05,      /* J = 20 */
(PID.TID 0000.0001)                 4.447098934081552E+05,      /* J = 21 */
(PID.TID 0000.0001)                 4.436266024588540E+05,      /* J = 22 */
(PID.TID 0000.0001)                 4.403820072955634E+05,      /* J = 23 */
(PID.TID 0000.0001)                 4.349919152597734E+05,      /* J = 24 */
(PID.TID 0000.0001)                 4.274825863380723E+05,      /* J = 25 */
(PID.TID 0000.0001)                 4.178906052261313E+05,      /* J = 26 */
(PID.TID 0000.0001)                 4.062627030917454E+05,      /* J = 27 */
(PID.TID 0000.0001)                 3.926555299052806E+05,      /* J = 28 */
(PID.TID 0000.0001)                 3.771353784467131E+05,      /* J = 29 */
(PID.TID 0000.0001)                 3.597778613338690E+05,      /* J = 30 */
(PID.TID 0000.0001)                 3.406675426453503E+05,      /* J = 31 */
(PID.TID 0000.0001)                 3.198975259328452E+05,      /* J = 32 */
(PID.TID 0000.0001)                 2.975690006299821E+05,      /* J = 33 */
(PID.TID 0000.0001)                 2.737907490675810E+05,      /* J = 34 */
(PID.TID 0000.0001)                 2.486786164970726E+05,      /* J = 35 */
(PID.TID 0000.0001)                 2.223549467040777E+05,      /* J = 36 */
(PID.TID 0000.0001)                 1.949479859617814E+05,      /* J = 37 */
(PID.TID 0000.0001)                 1.665912582279823E+05,      /* J = 38 */
(PID.TID 0000.0001)                 1.374229146297914E+05,      /* J = 39 */
(PID.TID 0000.0001)                 1.075850604052271E+05       /* J = 40 */
(PID.TID 0000.0001)     ;
(PID.TID 0000.0001) dyG =  /* dyG(:,1,:,1) ( m - cartesian, degrees - spherical ) */
(PID.TID 0000.0001)    90 @  4.447098934081552E+05              /* I =  1: 90 */
(PID.TID 0000.0001)     ;
(PID.TID 0000.0001) dyG =  /* dyG(1,:,1,:) ( m - cartesian, degrees - spherical ) */
(PID.TID 0000.0001)    40 @  4.447098934081552E+05              /* J =  1: 40 */
(PID.TID 0000.0001)     ;
(PID.TID 0000.0001) dxC =  /* dxC(:,1,:,1) ( m - cartesian, degrees - spherical ) */
(PID.TID 0000.0001)    90 @  9.246038586187513E+04              /* I =  1: 90 */
(PID.TID 0000.0001)     ;
(PID.TID 0000.0001) dxC =  /* dxC(1,:,1,:) ( m - cartesian, degrees - spherical ) */
(PID.TID 0000.0001)                 9.246038586187513E+04,      /* J =  1 */
(PID.TID 0000.0001)                 1.225786591246834E+05,      /* J =  2 */
(PID.TID 0000.0001)                 1.520997414818001E+05,      /* J =  3 */
(PID.TID 0000.0001)                 1.808798091874300E+05,      /* J =  4 */
(PID.TID 0000.0001)                 2.087786486446736E+05,      /* J =  5 */
(PID.TID 0000.0001)                 2.356603395120765E+05,      /* J =  6 */
(PID.TID 0000.0001)                 2.613939168938713E+05,      /* J =  7 */
(PID.TID 0000.0001)                 2.858540093877838E+05,      /* J =  8 */
(PID.TID 0000.0001)                 3.089214498819034E+05,      /* J =  9 */
(PID.TID 0000.0001)                 3.304838561248741E+05,      /* J = 10 */
(PID.TID 0000.0001)                 3.504361782409254E+05,      /* J = 11 */
(PID.TID 0000.0001)                 3.686812105223082E+05,      /* J = 12 */
(PID.TID 0000.0001)                 3.851300650057323E+05,      /* J = 13 */
(PID.TID 0000.0001)                 3.997026045255871E+05,      /* J = 14 */
(PID.TID 0000.0001)                 4.123278331341585E+05,      /* J = 15 */
(PID.TID 0000.0001)                 4.229442419867491E+05,      /* J = 16 */
(PID.TID 0000.0001)                 4.315001090065870E+05,      /* J = 17 */
(PID.TID 0000.0001)                 4.379537508695838E+05,      /* J = 18 */
(PID.TID 0000.0001)                 4.422737260813012E+05,      /* J = 19 */
(PID.TID 0000.0001)     2 @  4.444389881567502E+05,             /* J = 20: 21 */
(PID.TID 0000.0001)                 4.422737260813012E+05,      /* J = 22 */
(PID.TID 0000.0001)                 4.379537508695838E+05,      /* J = 23 */
(PID.TID 0000.0001)                 4.315001090065870E+05,      /* J = 24 */
(PID.TID 0000.0001)                 4.229442419867491E+05,      /* J = 25 */
(PID.TID 0000.0001)                 4.123278331341585E+05,      /* J = 26 */
(PID.TID 0000.0001)                 3.997026045255871E+05,      /* J = 27 */
(PID.TID 0000.0001)                 3.851300650057323E+05,      /* J = 28 */
(PID.TID 0000.0001)                 3.686812105223082E+05,      /* J = 29 */
(PID.TID 0000.0001)                 3.504361782409254E+05,      /* J = 30 */
(PID.TID 0000.0001)                 3.304838561248741E+05,      /* J = 31 */
(PID.TID 0000.0001)                 3.089214498819034E+05,      /* J = 32 */
(PID.TID 0000.0001)                 2.858540093877838E+05,      /* J = 33 */
(PID.TID 0000.0001)                 2.613939168938713E+05,      /* J = 34 */
(PID.TID 0000.0001)                 2.356603395120765E+05,      /* J = 35 */
(PID.TID 0000.0001)                 2.087786486446736E+05,      /* J = 36 */
(PID.TID 0000.0001)                 1.808798091874300E+05,      /* J = 37 */
(PID.TID 0000.0001)                 1.520997414818001E+05,      /* J = 38 */
(PID.TID 0000.0001)                 1.225786591246834E+05,      /* J = 39 */
(PID.TID 0000.0001)                 9.246038586187513E+04       /* J = 40 */
(PID.TID 0000.0001)     ;
(PID.TID 0000.0001) dyC =  /* dyC(:,1,:,1) ( m - cartesian, degrees - spherical ) */
(PID.TID 0000.0001)    90 @  4.447098934081552E+05              /* I =  1: 90 */
(PID.TID 0000.0001)     ;
(PID.TID 0000.0001) dyC =  /* dyC(1,:,1,:) ( m - cartesian, degrees - spherical ) */
(PID.TID 0000.0001)    40 @  4.447098934081552E+05              /* J =  1: 40 */
(PID.TID 0000.0001)     ;
(PID.TID 0000.0001) dxV =  /* dxV(:,1,:,1) ( m - cartesian, degrees - spherical ) */
(PID.TID 0000.0001)    90 @  7.722306258078101E+04              /* I =  1: 90 */
(PID.TID 0000.0001)     ;
(PID.TID 0000.0001) dxV =  /* dxV(1,:,1,:) ( m - cartesian, degrees - spherical ) */
(PID.TID 0000.0001)                 7.722306258078101E+04,      /* J =  1 */
(PID.TID 0000.0001)                 1.075850604052271E+05,      /* J =  2 */
(PID.TID 0000.0001)                 1.374229146297914E+05,      /* J =  3 */
(PID.TID 0000.0001)                 1.665912582279823E+05,      /* J =  4 */
(PID.TID 0000.0001)                 1.949479859617814E+05,      /* J =  5 */
(PID.TID 0000.0001)                 2.223549467040777E+05,      /* J =  6 */
(PID.TID 0000.0001)                 2.486786164970726E+05,      /* J =  7 */
(PID.TID 0000.0001)                 2.737907490675810E+05,      /* J =  8 */
(PID.TID 0000.0001)                 2.975690006299821E+05,      /* J =  9 */
(PID.TID 0000.0001)                 3.198975259328452E+05,      /* J = 10 */
(PID.TID 0000.0001)                 3.406675426453503E+05,      /* J = 11 */
(PID.TID 0000.0001)                 3.597778613338690E+05,      /* J = 12 */
(PID.TID 0000.0001)                 3.771353784467131E+05,      /* J = 13 */
(PID.TID 0000.0001)                 3.926555299052806E+05,      /* J = 14 */
(PID.TID 0000.0001)                 4.062627030917454E+05,      /* J = 15 */
(PID.TID 0000.0001)                 4.178906052261313E+05,      /* J = 16 */
(PID.TID 0000.0001)                 4.274825863380723E+05,      /* J = 17 */
(PID.TID 0000.0001)                 4.349919152597734E+05,      /* J = 18 */
(PID.TID 0000.0001)                 4.403820072955634E+05,      /* J = 19 */
(PID.TID 0000.0001)                 4.436266024588540E+05,      /* J = 20 */
(PID.TID 0000.0001)                 4.447098934081552E+05,      /* J = 21 */
(PID.TID 0000.0001)                 4.436266024588540E+05,      /* J = 22 */
(PID.TID 0000.0001)                 4.403820072955634E+05,      /* J = 23 */
(PID.TID 0000.0001)                 4.349919152597734E+05,      /* J = 24 */
(PID.TID 0000.0001)                 4.274825863380723E+05,      /* J = 25 */
(PID.TID 0000.0001)                 4.178906052261313E+05,      /* J = 26 */
(PID.TID 0000.0001)                 4.062627030917454E+05,      /* J = 27 */
(PID.TID 0000.0001)                 3.926555299052806E+05,      /* J = 28 */
(PID.TID 0000.0001)                 3.771353784467131E+05,      /* J = 29 */
(PID.TID 0000.0001)                 3.597778613338690E+05,      /* J = 30 */
(PID.TID 0000.0001)                 3.406675426453503E+05,      /* J = 31 */
(PID.TID 0000.0001)                 3.198975259328452E+05,      /* J = 32 */
(PID.TID 0000.0001)                 2.975690006299821E+05,      /* J = 33 */
(PID.TID 0000.0001)                 2.737907490675810E+05,      /* J = 34 */
(PID.TID 0000.0001)                 2.486786164970726E+05,      /* J = 35 */
(PID.TID 0000.0001)                 2.223549467040777E+05,      /* J = 36 */
(PID.TID 0000.0001)                 1.949479859617814E+05,      /* J = 37 */
(PID.TID 0000.0001)                 1.665912582279823E+05,      /* J = 38 */
(PID.TID 0000.0001)                 1.374229146297914E+05,      /* J = 39 */
(PID.TID 0000.0001)                 1.075850604052271E+05       /* J = 40 */
(PID.TID 0000.0001)     ;
(PID.TID 0000.0001) dyU =  /* dyU(:,1,:,1) ( m - cartesian, degrees - spherical ) */
(PID.TID 0000.0001)    90 @  4.447098934081552E+05              /* I =  1: 90 */
(PID.TID 0000.0001)     ;
(PID.TID 0000.0001) dyU =  /* dyU(1,:,1,:) ( m - cartesian, degrees - spherical ) */
(PID.TID 0000.0001)    40 @  4.447098934081552E+05              /* J =  1: 40 */
(PID.TID 0000.0001)     ;
(PID.TID 0000.0001) rA =  /* rA(:,1,:,1) ( m - cartesian, degrees - spherical ) */
(PID.TID 0000.0001)    90 @  4.110969866729047E+10              /* I =  1: 90 */
(PID.TID 0000.0001)     ;
(PID.TID 0000.0001) rA =  /* rA(1,:,1,:) ( m - cartesian, degrees - spherical ) */
(PID.TID 0000.0001)                 4.110969866729047E+10,      /* J =  1 */
(PID.TID 0000.0001)                 5.450087291636665E+10,      /* J =  2 */
(PID.TID 0000.0001)                 6.762652439100235E+10,      /* J =  3 */
(PID.TID 0000.0001)                 8.042270623659998E+10,      /* J =  4 */
(PID.TID 0000.0001)                 9.282707674147523E+10,      /* J =  5 */
(PID.TID 0000.0001)                 1.047792030594103E+11,      /* J =  6 */
(PID.TID 0000.0001)                 1.162208556324093E+11,      /* J =  7 */
(PID.TID 0000.0001)                 1.270962918792468E+11,      /* J =  8 */
(PID.TID 0000.0001)                 1.373525277677229E+11,      /* J =  9 */
(PID.TID 0000.0001)                 1.469395959475426E+11,      /* J = 10 */
(PID.TID 0000.0001)                 1.558107891862220E+11,      /* J = 11 */
(PID.TID 0000.0001)                 1.639228879220326E+11,      /* J = 12 */
(PID.TID 0000.0001)                 1.712363708253573E+11,      /* J = 13 */
(PID.TID 0000.0001)                 1.777156073426415E+11,      /* J = 14 */
(PID.TID 0000.0001)                 1.833290312848623E+11,      /* J = 15 */
(PID.TID 0000.0001)                 1.880492946148330E+11,      /* J = 16 */
(PID.TID 0000.0001)                 1.918534006840893E+11,      /* J = 17 */
(PID.TID 0000.0001)                 1.947228162702492E+11,      /* J = 18 */
(PID.TID 0000.0001)                 1.966435618690094E+11,      /* J = 19 */
(PID.TID 0000.0001)     2 @  1.976062798008856E+11,             /* J = 20: 21 */
(PID.TID 0000.0001)                 1.966435618690094E+11,      /* J = 22 */
(PID.TID 0000.0001)                 1.947228162702492E+11,      /* J = 23 */
(PID.TID 0000.0001)                 1.918534006840893E+11,      /* J = 24 */
(PID.TID 0000.0001)                 1.880492946148330E+11,      /* J = 25 */
(PID.TID 0000.0001)                 1.833290312848623E+11,      /* J = 26 */
(PID.TID 0000.0001)                 1.777156073426415E+11,      /* J = 27 */
(PID.TID 0000.0001)                 1.712363708253573E+11,      /* J = 28 */
(PID.TID 0000.0001)                 1.639228879220326E+11,      /* J = 29 */
(PID.TID 0000.0001)                 1.558107891862220E+11,      /* J = 30 */
(PID.TID 0000.0001)                 1.469395959475426E+11,      /* J = 31 */
(PID.TID 0000.0001)                 1.373525277677229E+11,      /* J = 32 */
(PID.TID 0000.0001)                 1.270962918792468E+11,      /* J = 33 */
(PID.TID 0000.0001)                 1.162208556324093E+11,      /* J = 34 */
(PID.TID 0000.0001)                 1.047792030594103E+11,      /* J = 35 */
(PID.TID 0000.0001)                 9.282707674147523E+10,      /* J = 36 */
(PID.TID 0000.0001)                 8.042270623659998E+10,      /* J = 37 */
(PID.TID 0000.0001)                 6.762652439100235E+10,      /* J = 38 */
(PID.TID 0000.0001)                 5.450087291636665E+10,      /* J = 39 */
(PID.TID 0000.0001)                 4.110969866729047E+10       /* J = 40 */
(PID.TID 0000.0001)     ;
(PID.TID 0000.0001) rAw =  /* rAw(:,1,:,1) ( m - cartesian, degrees - spherical ) */
(PID.TID 0000.0001)    90 @  4.110969866729047E+10              /* I =  1: 90 */
(PID.TID 0000.0001)     ;
(PID.TID 0000.0001) rAw =  /* rAw(1,:,1,:) ( m - cartesian, degrees - spherical ) */
(PID.TID 0000.0001)                 4.110969866729047E+10,      /* J =  1 */
(PID.TID 0000.0001)                 5.450087291636665E+10,      /* J =  2 */
(PID.TID 0000.0001)                 6.762652439100235E+10,      /* J =  3 */
(PID.TID 0000.0001)                 8.042270623659998E+10,      /* J =  4 */
(PID.TID 0000.0001)                 9.282707674147523E+10,      /* J =  5 */
(PID.TID 0000.0001)                 1.047792030594103E+11,      /* J =  6 */
(PID.TID 0000.0001)                 1.162208556324093E+11,      /* J =  7 */
(PID.TID 0000.0001)                 1.270962918792468E+11,      /* J =  8 */
(PID.TID 0000.0001)                 1.373525277677229E+11,      /* J =  9 */
(PID.TID 0000.0001)                 1.469395959475426E+11,      /* J = 10 */
(PID.TID 0000.0001)                 1.558107891862220E+11,      /* J = 11 */
(PID.TID 0000.0001)                 1.639228879220326E+11,      /* J = 12 */
(PID.TID 0000.0001)                 1.712363708253573E+11,      /* J = 13 */
(PID.TID 0000.0001)                 1.777156073426415E+11,      /* J = 14 */
(PID.TID 0000.0001)                 1.833290312848623E+11,      /* J = 15 */
(PID.TID 0000.0001)                 1.880492946148330E+11,      /* J = 16 */
(PID.TID 0000.0001)                 1.918534006840893E+11,      /* J = 17 */
(PID.TID 0000.0001)                 1.947228162702492E+11,      /* J = 18 */
(PID.TID 0000.0001)                 1.966435618690094E+11,      /* J = 19 */
(PID.TID 0000.0001)     2 @  1.976062798008856E+11,             /* J = 20: 21 */
(PID.TID 0000.0001)                 1.966435618690094E+11,      /* J = 22 */
(PID.TID 0000.0001)                 1.947228162702492E+11,      /* J = 23 */
(PID.TID 0000.0001)                 1.918534006840893E+11,      /* J = 24 */
(PID.TID 0000.0001)                 1.880492946148330E+11,      /* J = 25 */
(PID.TID 0000.0001)                 1.833290312848623E+11,      /* J = 26 */
(PID.TID 0000.0001)                 1.777156073426415E+11,      /* J = 27 */
(PID.TID 0000.0001)                 1.712363708253573E+11,      /* J = 28 */
(PID.TID 0000.0001)                 1.639228879220326E+11,      /* J = 29 */
(PID.TID 0000.0001)                 1.558107891862220E+11,      /* J = 30 */
(PID.TID 0000.0001)                 1.469395959475426E+11,      /* J = 31 */
(PID.TID 0000.0001)                 1.373525277677229E+11,      /* J = 32 */
(PID.TID 0000.0001)                 1.270962918792468E+11,      /* J = 33 */
(PID.TID 0000.0001)                 1.162208556324093E+11,      /* J = 34 */
(PID.TID 0000.0001)                 1.047792030594103E+11,      /* J = 35 */
(PID.TID 0000.0001)                 9.282707674147523E+10,      /* J = 36 */
(PID.TID 0000.0001)                 8.042270623659998E+10,      /* J = 37 */
(PID.TID 0000.0001)                 6.762652439100235E+10,      /* J = 38 */
(PID.TID 0000.0001)                 5.450087291636665E+10,      /* J = 39 */
(PID.TID 0000.0001)                 4.110969866729047E+10       /* J = 40 */
(PID.TID 0000.0001)     ;
(PID.TID 0000.0001) rAs =  /* rAs(:,1,:,1) ( m - cartesian, degrees - spherical ) */
(PID.TID 0000.0001)    90 @  3.433488626798250E+10              /* I =  1: 90 */
(PID.TID 0000.0001)     ;
(PID.TID 0000.0001) rAs =  /* rAs(1,:,1,:) ( m - cartesian, degrees - spherical ) */
(PID.TID 0000.0001)                 3.433488626798250E+10,      /* J =  1 */
(PID.TID 0000.0001)                 4.783442523123625E+10,      /* J =  2 */
(PID.TID 0000.0001)                 6.110091968306414E+10,      /* J =  3 */
(PID.TID 0000.0001)                 7.406973659603818E+10,      /* J =  4 */
(PID.TID 0000.0001)                 8.667769319778079E+10,      /* J =  5 */
(PID.TID 0000.0001)                 9.886336479107463E+10,      /* J =  6 */
(PID.TID 0000.0001)                 1.105673840088173E+11,      /* J =  7 */
(PID.TID 0000.0001)                 1.217327300458638E+11,      /* J =  8 */
(PID.TID 0000.0001)                 1.323050064586578E+11,      /* J =  9 */
(PID.TID 0000.0001)                 1.422327061792377E+11,      /* J = 10 */
(PID.TID 0000.0001)                 1.514674624524945E+11,      /* J = 11 */
(PID.TID 0000.0001)                 1.599642844741385E+11,      /* J = 12 */
(PID.TID 0000.0001)                 1.676817765813788E+11,      /* J = 13 */
(PID.TID 0000.0001)                 1.745823399284268E+11,      /* J = 14 */
(PID.TID 0000.0001)                 1.806323556642996E+11,      /* J = 15 */
(PID.TID 0000.0001)                 1.858023487204767E+11,      /* J = 16 */
(PID.TID 0000.0001)                 1.900671314104743E+11,      /* J = 17 */
(PID.TID 0000.0001)                 1.934059261417216E+11,      /* J = 18 */
(PID.TID 0000.0001)                 1.958024666419019E+11,      /* J = 19 */
(PID.TID 0000.0001)                 1.972450772065981E+11,      /* J = 20 */
(PID.TID 0000.0001)                 1.977267295821495E+11,      /* J = 21 */
(PID.TID 0000.0001)                 1.972450772065981E+11,      /* J = 22 */
(PID.TID 0000.0001)                 1.958024666419019E+11,      /* J = 23 */
(PID.TID 0000.0001)                 1.934059261417216E+11,      /* J = 24 */
(PID.TID 0000.0001)                 1.900671314104743E+11,      /* J = 25 */
(PID.TID 0000.0001)                 1.858023487204767E+11,      /* J = 26 */
(PID.TID 0000.0001)                 1.806323556642996E+11,      /* J = 27 */
(PID.TID 0000.0001)                 1.745823399284268E+11,      /* J = 28 */
(PID.TID 0000.0001)                 1.676817765813788E+11,      /* J = 29 */
(PID.TID 0000.0001)                 1.599642844741385E+11,      /* J = 30 */
(PID.TID 0000.0001)                 1.514674624524945E+11,      /* J = 31 */
(PID.TID 0000.0001)                 1.422327061792377E+11,      /* J = 32 */
(PID.TID 0000.0001)                 1.323050064586578E+11,      /* J = 33 */
(PID.TID 0000.0001)                 1.217327300458638E+11,      /* J = 34 */
(PID.TID 0000.0001)                 1.105673840088173E+11,      /* J = 35 */
(PID.TID 0000.0001)                 9.886336479107463E+10,      /* J = 36 */
(PID.TID 0000.0001)                 8.667769319778079E+10,      /* J = 37 */
(PID.TID 0000.0001)                 7.406973659603818E+10,      /* J = 38 */
(PID.TID 0000.0001)                 6.110091968306414E+10,      /* J = 39 */
(PID.TID 0000.0001)                 4.783442523123625E+10       /* J = 40 */
(PID.TID 0000.0001)     ;
(PID.TID 0000.0001) 
(PID.TID 0000.0001)  MDSREADFIELD: opening global file: lev_t.bin
(PID.TID 0000.0001) // =======================================================
(PID.TID 0000.0001) // Field Initial Temperature at iteration          1
(PID.TID 0000.0001) // CMIN =         -2.422867774963379E+00
(PID.TID 0000.0001) // CMAX =          2.973338890075684E+01
(PID.TID 0000.0001) // CINT =          1.190972469471119E+00
(PID.TID 0000.0001) // SYMBOLS (CMIN->CMAX): -abcdefghijklmnopqrstuvwxyz+
(PID.TID 0000.0001) //                  0.0: .
(PID.TID 0000.0001) // RANGE I (Lo:Hi:Step):(   1:  90:   1)
(PID.TID 0000.0001) // RANGE J (Lo:Hi:Step):(  40:   1:  -1)
(PID.TID 0000.0001) // RANGE K (Lo:Hi:Step):(   1:   1:   1)
(PID.TID 0000.0001) // =======================================================
(PID.TID 0000.0001) K =   1
(PID.TID 0000.0001)                I=10      I=20      I=30      I=40      I=50      I=60      I=70      I=80      I=90
(PID.TID 0000.0001) |--J--|123456789|123456789|123456789|123456789|123456789|123456789|123456789|123456789|123456789|
(PID.TID 0000.0001)     40 cccde.bbaaaaaacdeee..................................................................bbbbc
(PID.TID 0000.0001)     39 cddeedddccbbba...ee.....................................................----........bbbbcc
(PID.TID 0000.0001)     38 fggggfeeeeddd...........................................................--aaa......dbbccde
(PID.TID 0000.0001)     37 hhi..................................................................cc...bbc...eeeee.defg
(PID.TID 0000.0001)     36 ih.........................................edcb....................dddccbccdde.effghiiiiii
(PID.TID 0000.0001)     35 hh.................................bbbb..ddeeeed...fgggh...........ccc....ddeeffgghijkkjii
(PID.TID 0000.0001)     34 ...................................bbbc.deeeeeef.fffgghhi..................cdefgghikkkkk..
(PID.TID 0000.0001)     33 ....................................bcdddeeffffffggggghhiij.................cdgikkllmllkl.
(PID.TID 0000.0001)     32 ....................................cdeeefggggghhiiiiiiijjj................dcdhlnnnnmmmll.
(PID.TID 0000.0001)     31 ....................................ghiiiijjjjjkkkkkklllllk..............ikkjjmoppoonnmn..
(PID.TID 0000.0001)     30 ...................................nmnnnnnmnnmmmmmmnnnnoonm............noqrrrrrrqqppppoo..
(PID.TID 0000.0001)     29 .................................qqqqqqppppppppppppppqppponn...........ssssssrrrrrrqqqpp..
(PID.TID 0000.0001)     28 ...............................psssssrrsssssrssrrrrrrsrrqqpoo.........utttsstsssssrrrrqq..
(PID.TID 0000.0001)     27 ..............vv..............stuttuuuuuuuuuuuuuuuuttttsssrqqr...stuv.vvvuuuvuuttttsss....
(PID.TID 0000.0001)     26 ..............vvv...........uuvvvvvwwwwwwwwvvvwvvvvvuuutttsssttv.uuvxxwwwwwwvvvvuuttsr....
(PID.TID 0000.0001)     25 ..............wwwx...xxx...vvvxxxxyyyxxxxxxxxxwwwwwvvvvvuuuuuvwwx...yxxxxxxwwwwwvvuutr....
(PID.TID 0000.0001)     24 ............wwwxxyy.xxyy...wxx.yyyyzyyyyyyxxxxxxxxwwwwwwwvvwwxxyywww.xxxxxxxxxxwwwvvur....
(PID.TID 0000.0001)     23 ............xxxyyyz.xyyy...xxy..yyyzzzyyyyyyyyyxxxxxxxxwwwwxxxxwwwwwx....wwxxxxxwwwwvu....
(PID.TID 0000.0001)     22 w...........xxyyyzyyyyyz...xx.yyzzzzzzzzzzzzzyyzyyyyyyxxwxxxyxwvvvwwxw......yyyyxxxxxxwxxx
(PID.TID 0000.0001)     21 xxx........xxxyyyzzzzzzz+.....zyzzzzzz+++zzzzyyyyyyyyxxwwvwwwwvvvvvvvu........yyyyyyyyyxxx
(PID.TID 0000.0001)     20 xww.......yyyyyxyyzzzzzz+......z.zzzzz+++zzzzzzyyyyyxxxxwwwxwvuuvuuuut.........yyyyxxxxwww
(PID.TID 0000.0001)     19 vvv.......yyyyxwwxyzyyzzzzz...zzz.....++++++z++z+zzzyyyyxxxxwwwvvvwvvu...........yyxxxwwww
(PID.TID 0000.0001)     18 uut.......zzyyywxxyzyyyyzzyzzz+zz...z+z++++zz+++++++zzzyyyyxxwwwvvvwvut..........yyxxwvvwv
(PID.TID 0000.0001)     17 uus.......z.zyyyyyxyzzyyyyyyyzz.....yzzzzzzzzzzzzzzzzzzyyyyxxwwvuuvvuut.........yyyyxwuuvu
(PID.TID 0000.0001)     16 uts......yy.zyyyyxxxxxxxwxxxxy.......yyyyyyyyyyyyyyyyyyyyyyyxxwwvvuuutts........xyyyxwvuuu
(PID.TID 0000.0001)     15 utrr....xxx.xxxxxwwwwvwwvvwww.........xxxxxxxxxxxxxxxxxxxyyyxwwwvvuttssss......wxxxxxwwvuu
(PID.TID 0000.0001)     14 ttsq....xyxwwxwvwwwvutuuuuuuu.........wwvwwwwvwvwwwwvwwvwwwwwwvvvuuuttsrr.....vwwwwwwwvvvu
(PID.TID 0000.0001)     13 tttr....wxwvvvttuuvuuuttssttt.........vvvuuuuuuuuttttuuuuvvwwwvuuttttssrr....vvvvvvvvvvvut
(PID.TID 0000.0001)     12 sssssstttutssssrrrrrstsqrrrssqqrrq....uuutsssssrrrrrrrrrrstttssssrssrrrp.....uuuttstttssss
(PID.TID 0000.0001)     11 ppprsssrqqqqqrqqppoopqpoppppppppppp..ttsrrr.rqqpqqqqqpqqpqrqpppqqqqrqqqp....prssrqqqqqpppq
(PID.TID 0000.0001)     10 lllnoooonmnnmnonnnmmmnmlmmlllnnnnooo.qqqqqp.pppppppoooooooonnnnooooooooo..nmopoonnnnnnnmmm
(PID.TID 0000.0001)      9 ihhiiiiihhiihiiiiiiiiiihiiiiijkklmnllnnnnn.mmmnnoonnnmnnnnmllllmlllllmmm.mmlmmmlkjjijjihhi
(PID.TID 0000.0001)      8 ffffeeffeefgggfffffghgfffgggghiiiijjjkllllkkkkllkklllkkkkjjjijjkkjjjjkkj.kkjjiihhhgfffeeee
(PID.TID 0000.0001)      7 cccdddeeeedeffeeeeeeddddeefffffgggggghhiijjiijjjihhhghhhhhhhhhhiihhiiiiiiiiihgffedddddddcc
(PID.TID 0000.0001)      6 bbbccdddddccdddddddddddeddddddeedeeeeeffgghggghigeeddddeefffeefgggggghhhhggffeddcccccbbbbb
(PID.TID 0000.0001)      5 bbcccccccccccdddddccccdcccccdddddddddddddeeeeeeedcbbbbcccdddddddeeeeeeeeeeddcccbbbbbbbbbbb
(PID.TID 0000.0001)      4 bbcccbbbbbbbbbccccccbbbbbbabcbccbbbbbbcccccbbbbbbbbbbbbbbbbbbbbcbccccccccc..aaaabbbbbbbbbb
(PID.TID 0000.0001)      3 bbbbbaaaaa............................cbbbbbaaaabbbbbbaaaaaaaabbaaaaaaaab..baaaaaabbbbbbab
(PID.TID 0000.0001)      2 ..........................................bbbbbaaaaaaaaaaaaaaaaa..aaaa.....aaaaaabbbbbb...
(PID.TID 0000.0001)      1 ..........................................................................................
(PID.TID 0000.0001) // =======================================================
(PID.TID 0000.0001) // END OF FIELD                                          =
(PID.TID 0000.0001) // =======================================================
(PID.TID 0000.0001) 
(PID.TID 0000.0001)  MDSREADFIELD: opening global file: lev_s.bin
(PID.TID 0000.0001) // =======================================================
(PID.TID 0000.0001) // Field Initial Salinity at iteration          1
(PID.TID 0000.0001) // CMIN =          2.975276947021484E+01
(PID.TID 0000.0001) // CMAX =          3.747562789916992E+01
(PID.TID 0000.0001) // CINT =          2.860317936650029E-01
(PID.TID 0000.0001) // SYMBOLS (CMIN->CMAX): -abcdefghijklmnopqrstuvwxyz+
(PID.TID 0000.0001) //                  0.0: .
(PID.TID 0000.0001) // RANGE I (Lo:Hi:Step):(   1:  90:   1)
(PID.TID 0000.0001) // RANGE J (Lo:Hi:Step):(  40:   1:  -1)
(PID.TID 0000.0001) // RANGE K (Lo:Hi:Step):(   1:   1:   1)
(PID.TID 0000.0001) // =======================================================
(PID.TID 0000.0001) K =   1
(PID.TID 0000.0001)                I=10      I=20      I=30      I=40      I=50      I=60      I=70      I=80      I=90
(PID.TID 0000.0001) |--J--|123456789|123456789|123456789|123456789|123456789|123456789|123456789|123456789|123456789|
(PID.TID 0000.0001)     40 qrrrr.oonnooopqtutt..................................................................mnnop
(PID.TID 0000.0001)     39 rssrrrrrrrqqpn...ut.....................................................mmmm........opqqqr
(PID.TID 0000.0001)     38 ssrrqqqqrrqpo...........................................................lkkll......onoqrrs
(PID.TID 0000.0001)     37 ssr..................................................................hg...lln...qppqr.rrrs
(PID.TID 0000.0001)     36 rr.........................................lkji....................feeegikmoop.pqrssssssss
(PID.TID 0000.0001)     35 rr.................................kkkk..lllllki...jijjj...........aa-....opqrrrrrrrssttss
(PID.TID 0000.0001)     34 ...................................jlll.kklllllk.ijkkkjih..................hlpqrqrrsstts..
(PID.TID 0000.0001)     33 ....................................iklkkkkkkkkkjkkjjjjjjii.................jmprrsstttttt.
(PID.TID 0000.0001)     32 ....................................iklllkllllllllkkkkkkkji................gilpstuuttuuut.
(PID.TID 0000.0001)     31 ....................................lmnonnnnoooonnmmmmllkjj..............loopqtvvvuuuuuu..
(PID.TID 0000.0001)     30 ...................................pppppppqqqqpppoooonnmlkk............ptvxwwvvwvvvvvvvu..
(PID.TID 0000.0001)     29 .................................pqqrqqqqqqrrrqqppqqqpponmll...........vxxxxxxwwwwwxwwxw..
(PID.TID 0000.0001)     28 ...............................prrrrrqqrrrrrsrrsrssssssrqonmm.........wxxxxxxxyyyyyyyyxx..
(PID.TID 0000.0001)     27 ..............xx..............prrrrrrrrrssssssstttssssssrqpoop...uwww.wwxxxyyy++zzzzyy....
(PID.TID 0000.0001)     26 ..............wxx...........ppqrrrrrrsssrrstsstttssrrrrrrrqppqqp.wwwvvwwwwwxyy+++zzyxw....
(PID.TID 0000.0001)     25 ..............wxxv...kkk...ooopqrrrrrssrrrrrrrssssqqpppppppppppoo...vvutuuvvwxyyyxxvvu....
(PID.TID 0000.0001)     24 ............uvvwwur.lmlk...nmm.pqqqqrrrrrqqqqrrqqrpppppooooonmmmnooo.uuuuuuttuvvvuvuut....
(PID.TID 0000.0001)     23 ............vvuvtqp.lmml...mln..ppppqpqppppppqpppppppppqppponnnnnoopm....xvuuuvvvvuuut....
(PID.TID 0000.0001)     22 r...........vuttsqqpnppn...mm.oppqqrrqqqqqqppppqqrrrqqqrrppppoopooomjj......uuvvvvvuttssrr
(PID.TID 0000.0001)     21 qmm........ttsssssssrsqon.....opqqqqqqqrrrrqqqssssssrrrrrrrrpqqqppomll........tvvvvuttssrr
(PID.TID 0000.0001)     20 sqq.......sttssrrsrrrrpol......p.qrqpqrrrrrrrstttttsssrrsssrqrrrrqqqpo.........wwwvvvuuutt
(PID.TID 0000.0001)     19 tsr.......ssssrrrrpppppnmmm...oqq.....qrqqsrrstttuuuttssttssrrssrrrrqq...........wwwvuvvvv
(PID.TID 0000.0001)     18 wut.......ssrrrrrqppppppppoooorrr...poqqqprrrttttuuutuuuuuutttttttutsss..........yyxwwxwxx
(PID.TID 0000.0001)     17 wwu.......s.rrrrrrqppppqqqqqqqr.....rrsrqrsssuusrtuuuvvvwwvvvuuuuutttss.........xyzyyyyxxx
(PID.TID 0000.0001)     16 vvt......ss.qrrssrqrqpqrrrrrrr.......ssrrstsstusrsuuuvwwwwxxwwvvvuttttsr........yz+zzzxwww
(PID.TID 0000.0001)     15 utss....stt.rrssstttsrrsrstsr.........ssstttssttsuuttuvvvvwxwwwwwuttsssrr......xyyyyxyyxwv
(PID.TID 0000.0001)     14 utts....sstrrssstuuuuuuuuuutt.........stttuutttttttuttttttuvvvvvvutsrqrrr.....vxxwwwwxwvwv
(PID.TID 0000.0001)     13 uuut....ttttttttuuuuuvtuuuuuu.........ttttuutttttttuutsssstttttstsqrqqppp....uwwwvuvvvutvv
(PID.TID 0000.0001)     12 ttttttttttttttttttttttssuuuuutuuut....tttttttttttsssssrrrrrrrqqqqqppppoo.....rvvuuttttttuu
(PID.TID 0000.0001)     11 rqsttttttttuuttttsssssrrstttttttsss..ttttts.tsssrrrrqqqqqppppoonnooooooo....oruttttsssrqrs
(PID.TID 0000.0001)     10 pppqrssrqqrqpqrssrrqqqqqqrrrrrrrrrrs.sssssr.rssrrqqpppppppooooonnnoooonn..moqrrrqqqqqqqqqq
(PID.TID 0000.0001)      9 oonooooooooonnnooooooooooppppppqqqqqrrrqrq.pppqqqqqppppppppppoooooooooll.lmoqqqqppooooopoo
(PID.TID 0000.0001)      8 nnnoonooooooonnnnnnnoooonoonoooppopqqqqqqqppopppqqqpppppppppppppppooopon.lnopppoooonnnnooo
(PID.TID 0000.0001)      7 ooooooooooopponnnooooooonnnnnonnooooooooopppppppoooooooooopppppppppoopqnnmnoooonnnonnnnnno
(PID.TID 0000.0001)      6 oooonnoonnnnooooooooooooonnnnnnnnnnnnnnnnoooopppooooooooooooooppppppppppoooooooonnnnnmnnnn
(PID.TID 0000.0001)      5 oooonnnnnnnnnnnnnnnnnoooooonnnnnnonnnnnnnnnoooooooooooonnnnnnooooooopoooonoooonnnnnnnooooo
(PID.TID 0000.0001)      4 oooonnnooonnnnnnnnnnnnnnoooooonnnooooonnnooooooooppponnnnmmmnnnnmnnoonnnnn..nnnooooooooooo
(PID.TID 0000.0001)      3 ooonnnnnnn............................nnoooooonnooooonnnnnnnoonnnnnnnnmmm..ooopooooooooooo
(PID.TID 0000.0001)      2 ..........................................pppooooonnnnnnoooppppo..nnnn.....qqqpppoooooo...
(PID.TID 0000.0001)      1 ..........................................................................................
(PID.TID 0000.0001) // =======================================================
(PID.TID 0000.0001) // END OF FIELD                                          =
(PID.TID 0000.0001) // =======================================================
(PID.TID 0000.0001) 
(PID.TID 0000.0001) Start initial hydrostatic pressure computation
(PID.TID 0000.0001) Pressure is predetermined for buoyancyRelation OCEANIC
(PID.TID 0000.0001) 
(PID.TID 0000.0001)  MDSREADFIELD: opening global file: lev_s.bin
(PID.TID 0000.0001)  MDSREADFIELD: opening global file: trenberth_taux.bin
(PID.TID 0000.0001)  MDSREADFIELD: opening global file: trenberth_tauy.bin
(PID.TID 0000.0001)  MDSREADFIELD: opening global file: ncep_qnet.bin
(PID.TID 0000.0001)  MDSREADFIELD: opening global file: lev_sst.bin
(PID.TID 0000.0001)  MDSREADFIELD: opening global file: lev_sss.bin
(PID.TID 0000.0001) // =======================================================
(PID.TID 0000.0001) // Model current state
(PID.TID 0000.0001) // =======================================================
(PID.TID 0000.0001) 
(PID.TID 0000.0001) // =======================================================
(PID.TID 0000.0001) // Begin MONITOR dynamic field statistics
(PID.TID 0000.0001) // =======================================================
(PID.TID 0000.0001) %MON time_tsnumber                =                     0
(PID.TID 0000.0001) %MON time_secondsf                =   0.0000000000000E+00
(PID.TID 0000.0001) %MON dynstat_eta_max              =   0.0000000000000E+00
(PID.TID 0000.0001) %MON dynstat_eta_min              =   0.0000000000000E+00
(PID.TID 0000.0001) %MON dynstat_eta_mean             =   0.0000000000000E+00
(PID.TID 0000.0001) %MON dynstat_eta_sd               =   0.0000000000000E+00
(PID.TID 0000.0001) %MON dynstat_eta_del2             =   0.0000000000000E+00
(PID.TID 0000.0001) %MON dynstat_uvel_max             =   0.0000000000000E+00
(PID.TID 0000.0001) %MON dynstat_uvel_min             =   0.0000000000000E+00
(PID.TID 0000.0001) %MON dynstat_uvel_mean            =   0.0000000000000E+00
(PID.TID 0000.0001) %MON dynstat_uvel_sd              =   0.0000000000000E+00
(PID.TID 0000.0001) %MON dynstat_uvel_del2            =   0.0000000000000E+00
(PID.TID 0000.0001) %MON dynstat_vvel_max             =   0.0000000000000E+00
(PID.TID 0000.0001) %MON dynstat_vvel_min             =   0.0000000000000E+00
(PID.TID 0000.0001) %MON dynstat_vvel_mean            =   0.0000000000000E+00
(PID.TID 0000.0001) %MON dynstat_vvel_sd              =   0.0000000000000E+00
(PID.TID 0000.0001) %MON dynstat_vvel_del2            =   0.0000000000000E+00
(PID.TID 0000.0001) %MON dynstat_wvel_max             =   0.0000000000000E+00
(PID.TID 0000.0001) %MON dynstat_wvel_min             =   0.0000000000000E+00
(PID.TID 0000.0001) %MON dynstat_wvel_mean            =   0.0000000000000E+00
(PID.TID 0000.0001) %MON dynstat_wvel_sd              =   0.0000000000000E+00
(PID.TID 0000.0001) %MON dynstat_wvel_del2            =   0.0000000000000E+00
(PID.TID 0000.0001) %MON dynstat_theta_max            =   2.9733388900757E+01
(PID.TID 0000.0001) %MON dynstat_theta_min            =  -2.6255600452423E+00
(PID.TID 0000.0001) %MON dynstat_theta_mean           =   3.6196930772982E+00
(PID.TID 0000.0001) %MON dynstat_theta_sd             =   4.4174800615522E+00
(PID.TID 0000.0001) %MON dynstat_theta_del2           =   1.5098782572970E-01
(PID.TID 0000.0001) %MON dynstat_salt_max             =   3.7475627899170E+01
(PID.TID 0000.0001) %MON dynstat_salt_min             =   2.9752769470215E+01
(PID.TID 0000.0001) %MON dynstat_salt_mean            =   3.4718006161477E+01
(PID.TID 0000.0001) %MON dynstat_salt_sd              =   2.9628819587991E-01
(PID.TID 0000.0001) %MON dynstat_salt_del2            =   2.6251884861846E-02
(PID.TID 0000.0001) %MON advcfl_uvel_max              =   0.0000000000000E+00
(PID.TID 0000.0001) %MON advcfl_vvel_max              =   0.0000000000000E+00
(PID.TID 0000.0001) %MON advcfl_wvel_max              =   0.0000000000000E+00
(PID.TID 0000.0001) %MON advcfl_W_hf_max              =   0.0000000000000E+00
(PID.TID 0000.0001) %MON pe_b_mean                    =   0.0000000000000E+00
(PID.TID 0000.0001) %MON ke_max                       =   0.0000000000000E+00
(PID.TID 0000.0001) %MON ke_mean                      =   0.0000000000000E+00
(PID.TID 0000.0001) %MON ke_vol                       =   1.3226782436723E+18
(PID.TID 0000.0001) %MON vort_r_min                   =   0.0000000000000E+00
(PID.TID 0000.0001) %MON vort_r_max                   =   0.0000000000000E+00
(PID.TID 0000.0001) %MON vort_a_mean                  =  -2.5205769728598E-05
(PID.TID 0000.0001) %MON vort_a_sd                    =   7.3403301351719E-05
(PID.TID 0000.0001) %MON vort_p_mean                  =  -3.1758669979760E-05
(PID.TID 0000.0001) %MON vort_p_sd                    =   1.3126616755304E-04
(PID.TID 0000.0001) %MON surfExpan_theta_mean         =   0.0000000000000E+00
(PID.TID 0000.0001) %MON surfExpan_salt_mean          =   0.0000000000000E+00
(PID.TID 0000.0001) // =======================================================
(PID.TID 0000.0001) // End MONITOR dynamic field statistics
(PID.TID 0000.0001) // =======================================================
(PID.TID 0000.0001) // =======================================================
(PID.TID 0000.0001) // Begin MONITOR ptracer field statistics
(PID.TID 0000.0001) // =======================================================
(PID.TID 0000.0001) %MON trcstat_ptracer01_max        =   3.7475627899170E+01
(PID.TID 0000.0001) %MON trcstat_ptracer01_min        =   2.9752769470215E+01
(PID.TID 0000.0001) %MON trcstat_ptracer01_mean       =   3.4718006161477E+01
(PID.TID 0000.0001) %MON trcstat_ptracer01_sd         =   2.9628819587991E-01
(PID.TID 0000.0001) %MON trcstat_ptracer01_del2       =   2.6251884861846E-02
(PID.TID 0000.0001) // =======================================================
(PID.TID 0000.0001) // End MONITOR ptracers field statistics
(PID.TID 0000.0001) // =======================================================
S/R EXTERNAL_FIELDS_LOAD: Reading new data:   12    1         0  0.000000000000E+00
(PID.TID 0000.0001)  MDSREADFIELD: opening global file: trenberth_taux.bin
(PID.TID 0000.0001)  MDSREADFIELD: opening global file: trenberth_taux.bin
(PID.TID 0000.0001)  MDSREADFIELD: opening global file: trenberth_tauy.bin
(PID.TID 0000.0001)  MDSREADFIELD: opening global file: trenberth_tauy.bin
(PID.TID 0000.0001)  MDSREADFIELD: opening global file: ncep_qnet.bin
(PID.TID 0000.0001)  MDSREADFIELD: opening global file: ncep_qnet.bin
(PID.TID 0000.0001)  MDSREADFIELD: opening global file: lev_sst.bin
(PID.TID 0000.0001)  MDSREADFIELD: opening global file: lev_sst.bin
(PID.TID 0000.0001)  MDSREADFIELD: opening global file: lev_sss.bin
(PID.TID 0000.0001)  MDSREADFIELD: opening global file: lev_sss.bin
time,SST,SSS,fu,fv,Q,E-P,i0,i1,a,b =   0.0000E+00  5.3151E-02  3.4364E+01 -4.0500E-02 -6.3753E-02  2.6510E+02  0.0000E+00    12     1  5.0000E-01  5.0000E-01
time,fu0,fu1,fu =   0.0000E+00 -4.5368E-02 -3.5633E-02 -4.0500E-02  5.000000000000000E-01  5.000000000000000E-01
 cg2d: Sum(rhs),rhsMax =   7.43849426498855E-15  2.53364304519873E+00
(PID.TID 0000.0001)                    cg2d_init_res =    6.22530153603217E+00
(PID.TID 0000.0001)                       cg2d_iters =    26
(PID.TID 0000.0001)                         cg2d_res =    5.02378138787110E-14
(PID.TID 0000.0001) // =======================================================
(PID.TID 0000.0001) // Begin MONITOR dynamic field statistics
(PID.TID 0000.0001) // =======================================================
(PID.TID 0000.0001) %MON time_tsnumber                =                     1
(PID.TID 0000.0001) %MON time_secondsf                =   4.3200000000000E+04
(PID.TID 0000.0001) %MON dynstat_eta_max              =   1.7856750003849E-01
(PID.TID 0000.0001) %MON dynstat_eta_min              =  -1.1521465430466E-01
(PID.TID 0000.0001) %MON dynstat_eta_mean             =  -1.2609918420717E-17
(PID.TID 0000.0001) %MON dynstat_eta_sd               =   2.6330827324672E-02
(PID.TID 0000.0001) %MON dynstat_eta_del2             =   1.1667714592724E-02
(PID.TID 0000.0001) %MON dynstat_uvel_max             =   8.3278858967845E-03
(PID.TID 0000.0001) %MON dynstat_uvel_min             =  -8.9104646695036E-03
(PID.TID 0000.0001) %MON dynstat_uvel_mean            =  -3.6108428613025E-04
(PID.TID 0000.0001) %MON dynstat_uvel_sd              =   1.2326286939441E-03
(PID.TID 0000.0001) %MON dynstat_uvel_del2            =   4.2134084474197E-04
(PID.TID 0000.0001) %MON dynstat_vvel_max             =   1.8795311886399E-02
(PID.TID 0000.0001) %MON dynstat_vvel_min             =  -1.1292773495360E-02
(PID.TID 0000.0001) %MON dynstat_vvel_mean            =   9.2371224385487E-04
(PID.TID 0000.0001) %MON dynstat_vvel_sd              =   3.4433716205221E-03
(PID.TID 0000.0001) %MON dynstat_vvel_del2            =   5.2655697101026E-04
(PID.TID 0000.0001) %MON dynstat_wvel_max             =   1.5979209724476E-04
(PID.TID 0000.0001) %MON dynstat_wvel_min             =  -1.0322817826396E-04
(PID.TID 0000.0001) %MON dynstat_wvel_mean            =   1.9377112451789E-22
(PID.TID 0000.0001) %MON dynstat_wvel_sd              =   1.6851346197533E-05
(PID.TID 0000.0001) %MON dynstat_wvel_del2            =   8.8302310793006E-06
(PID.TID 0000.0001) %MON dynstat_theta_max            =   2.9730291022209E+01
(PID.TID 0000.0001) %MON dynstat_theta_min            =  -1.8999982015720E+00
(PID.TID 0000.0001) %MON dynstat_theta_mean           =   3.6197398609506E+00
(PID.TID 0000.0001) %MON dynstat_theta_sd             =   4.4171708897545E+00
(PID.TID 0000.0001) %MON dynstat_theta_del2           =   1.5233616873939E-01
(PID.TID 0000.0001) %MON dynstat_salt_max             =   3.7470516461991E+01
(PID.TID 0000.0001) %MON dynstat_salt_min             =   2.9754192314250E+01
(PID.TID 0000.0001) %MON dynstat_salt_mean            =   3.4718006046545E+01
(PID.TID 0000.0001) %MON dynstat_salt_sd              =   2.9615337045015E-01
(PID.TID 0000.0001) %MON dynstat_salt_del2            =   2.6473901920508E-02
(PID.TID 0000.0001) %MON advcfl_uvel_max              =   2.6512729685057E-03
(PID.TID 0000.0001) %MON advcfl_vvel_max              =   1.8258138294828E-03
(PID.TID 0000.0001) %MON advcfl_wvel_max              =   2.5713720005542E-01
(PID.TID 0000.0001) %MON advcfl_W_hf_max              =   2.6084575944275E-01
(PID.TID 0000.0001) %MON pe_b_mean                    =   8.8717686921076E-07
(PID.TID 0000.0001) %MON ke_max                       =   1.2389974472424E-04
(PID.TID 0000.0001) %MON ke_mean                      =   6.4556085917314E-06
(PID.TID 0000.0001) %MON ke_vol                       =   1.3226782436723E+18
(PID.TID 0000.0001) %MON vort_r_min                   =  -5.9901656663123E-08
(PID.TID 0000.0001) %MON vort_r_max                   =   6.7789451109947E-08
(PID.TID 0000.0001) %MON vort_a_mean                  =  -2.5205769395236E-05
(PID.TID 0000.0001) %MON vort_a_sd                    =   7.3403223080650E-05
(PID.TID 0000.0001) %MON vort_p_mean                  =  -3.1758669559733E-05
(PID.TID 0000.0001) %MON vort_p_sd                    =   1.3126608075589E-04
(PID.TID 0000.0001) %MON surfExpan_theta_mean         =   4.7007543630215E-05
(PID.TID 0000.0001) %MON surfExpan_salt_mean          =   3.5355415836381E-06
(PID.TID 0000.0001) // =======================================================
(PID.TID 0000.0001) // End MONITOR dynamic field statistics
(PID.TID 0000.0001) // =======================================================
(PID.TID 0000.0001) // =======================================================
(PID.TID 0000.0001) // Begin MONITOR ptracer field statistics
(PID.TID 0000.0001) // =======================================================
(PID.TID 0000.0001) %MON trcstat_ptracer01_max        =   3.7470516461991E+01
(PID.TID 0000.0001) %MON trcstat_ptracer01_min        =   2.9754192314250E+01
(PID.TID 0000.0001) %MON trcstat_ptracer01_mean       =   3.4718006046545E+01
(PID.TID 0000.0001) %MON trcstat_ptracer01_sd         =   2.9615337045015E-01
(PID.TID 0000.0001) %MON trcstat_ptracer01_del2       =   2.6473901920508E-02
(PID.TID 0000.0001) // =======================================================
(PID.TID 0000.0001) // End MONITOR ptracers field statistics
(PID.TID 0000.0001) // =======================================================
time,SST,SSS,fu,fv,Q,E-P,i0,i1,a,b =   4.3200E+04  8.3327E-02  3.4375E+01 -4.0338E-02 -6.3536E-02  2.6512E+02  0.0000E+00    12     1  5.1667E-01  4.8333E-01
time,fu0,fu1,fu =   4.3200E+04 -4.5368E-02 -3.5633E-02 -4.0338E-02  5.166666666666667E-01  4.833333333333333E-01
 cg2d: Sum(rhs),rhsMax =   4.22717416626028E-14  5.05254939001351E+00
(PID.TID 0000.0001)                    cg2d_init_res =    3.38979238675448E+00
(PID.TID 0000.0001)                       cg2d_iters =    26
(PID.TID 0000.0001)                         cg2d_res =    3.27111474885455E-14
(PID.TID 0000.0001) // =======================================================
(PID.TID 0000.0001) // Begin MONITOR dynamic field statistics
(PID.TID 0000.0001) // =======================================================
(PID.TID 0000.0001) %MON time_tsnumber                =                     2
(PID.TID 0000.0001) %MON time_secondsf                =   8.6400000000000E+04
(PID.TID 0000.0001) %MON dynstat_eta_max              =   3.7993122544707E-01
(PID.TID 0000.0001) %MON dynstat_eta_min              =  -2.5475970825221E-01
(PID.TID 0000.0001) %MON dynstat_eta_mean             =  -2.6458010904346E-17
(PID.TID 0000.0001) %MON dynstat_eta_sd               =   6.0825368335266E-02
(PID.TID 0000.0001) %MON dynstat_eta_del2             =   2.2746478664744E-02
(PID.TID 0000.0001) %MON dynstat_uvel_max             =   1.9171713576679E-02
(PID.TID 0000.0001) %MON dynstat_uvel_min             =  -1.7248662860505E-02
(PID.TID 0000.0001) %MON dynstat_uvel_mean            =  -8.9861560906251E-04
(PID.TID 0000.0001) %MON dynstat_uvel_sd              =   2.1515603156899E-03
(PID.TID 0000.0001) %MON dynstat_uvel_del2            =   7.8794044257377E-04
(PID.TID 0000.0001) %MON dynstat_vvel_max             =   3.4259522829487E-02
(PID.TID 0000.0001) %MON dynstat_vvel_min             =  -1.8171404450058E-02
(PID.TID 0000.0001) %MON dynstat_vvel_mean            =   1.7999776980818E-03
(PID.TID 0000.0001) %MON dynstat_vvel_sd              =   6.3042691926902E-03
(PID.TID 0000.0001) %MON dynstat_vvel_del2            =   9.5258735797037E-04
(PID.TID 0000.0001) %MON dynstat_wvel_max             =   2.1013444878353E-04
(PID.TID 0000.0001) %MON dynstat_wvel_min             =  -1.4862936648016E-04
(PID.TID 0000.0001) %MON dynstat_wvel_mean            =   3.8460632290671E-22
(PID.TID 0000.0001) %MON dynstat_wvel_sd              =   2.4438518633537E-05
(PID.TID 0000.0001) %MON dynstat_wvel_del2            =   1.0162542512351E-05
(PID.TID 0000.0001) %MON dynstat_theta_max            =   2.9678785796854E+01
(PID.TID 0000.0001) %MON dynstat_theta_min            =  -1.8999523158447E+00
(PID.TID 0000.0001) %MON dynstat_theta_mean           =   3.6189251092961E+00
(PID.TID 0000.0001) %MON dynstat_theta_sd             =   4.4153545811239E+00
(PID.TID 0000.0001) %MON dynstat_theta_del2           =   1.5029440114288E-01
(PID.TID 0000.0001) %MON dynstat_salt_max             =   3.7465157731617E+01
(PID.TID 0000.0001) %MON dynstat_salt_min             =   2.9756614945369E+01
(PID.TID 0000.0001) %MON dynstat_salt_mean            =   3.4717942210365E+01
(PID.TID 0000.0001) %MON dynstat_salt_sd              =   2.9608879397116E-01
(PID.TID 0000.0001) %MON dynstat_salt_del2            =   2.6590331536989E-02
(PID.TID 0000.0001) %MON advcfl_uvel_max              =   4.7322616082692E-03
(PID.TID 0000.0001) %MON advcfl_vvel_max              =   3.3280379145410E-03
(PID.TID 0000.0001) %MON advcfl_wvel_max              =   2.8996376458836E-01
(PID.TID 0000.0001) %MON advcfl_W_hf_max              =   3.0075755593605E-01
(PID.TID 0000.0001) %MON pe_b_mean                    =   4.7342446300579E-06
(PID.TID 0000.0001) %MON ke_max                       =   4.1680627191484E-04
(PID.TID 0000.0001) %MON ke_mean                      =   2.1767265769054E-05
(PID.TID 0000.0001) %MON ke_vol                       =   1.3226782436723E+18
(PID.TID 0000.0001) %MON vort_r_min                   =  -1.0607038904230E-07
(PID.TID 0000.0001) %MON vort_r_max                   =   1.2898171907500E-07
(PID.TID 0000.0001) %MON vort_a_mean                  =  -2.5205769316187E-05
(PID.TID 0000.0001) %MON vort_a_sd                    =   7.3403112758599E-05
(PID.TID 0000.0001) %MON vort_p_mean                  =  -3.1758669460132E-05
(PID.TID 0000.0001) %MON vort_p_sd                    =   1.3126588790937E-04
(PID.TID 0000.0001) %MON surfExpan_theta_mean         =   8.4673737481016E-05
(PID.TID 0000.0001) %MON surfExpan_salt_mean          =   6.7424724779707E-06
(PID.TID 0000.0001) // =======================================================
(PID.TID 0000.0001) // End MONITOR dynamic field statistics
(PID.TID 0000.0001) // =======================================================
(PID.TID 0000.0001) // =======================================================
(PID.TID 0000.0001) // Begin MONITOR ptracer field statistics
(PID.TID 0000.0001) // =======================================================
(PID.TID 0000.0001) %MON trcstat_ptracer01_max        =   3.7465157731617E+01
(PID.TID 0000.0001) %MON trcstat_ptracer01_min        =   2.9756614945369E+01
(PID.TID 0000.0001) %MON trcstat_ptracer01_mean       =   3.4717942210365E+01
(PID.TID 0000.0001) %MON trcstat_ptracer01_sd         =   2.9608879397116E-01
(PID.TID 0000.0001) %MON trcstat_ptracer01_del2       =   2.6590331536989E-02
(PID.TID 0000.0001) // =======================================================
(PID.TID 0000.0001) // End MONITOR ptracers field statistics
(PID.TID 0000.0001) // =======================================================
time,SST,SSS,fu,fv,Q,E-P,i0,i1,a,b =   8.6400E+04  1.1350E-01  3.4387E+01 -4.0176E-02 -6.3320E-02  2.6514E+02  0.0000E+00    12     1  5.3333E-01  4.6667E-01
time,fu0,fu1,fu =   8.6400E+04 -4.5368E-02 -3.5633E-02 -4.0176E-02  5.333333333333333E-01  4.666666666666667E-01
 cg2d: Sum(rhs),rhsMax =   5.39915334663021E-14  6.32439557986739E+00
(PID.TID 0000.0001)                    cg2d_init_res =    2.20357760283623E+00
(PID.TID 0000.0001)                       cg2d_iters =    26
(PID.TID 0000.0001)                         cg2d_res =    2.89402491819819E-14
(PID.TID 0000.0001) // =======================================================
(PID.TID 0000.0001) // Begin MONITOR dynamic field statistics
(PID.TID 0000.0001) // =======================================================
(PID.TID 0000.0001) %MON time_tsnumber                =                     3
(PID.TID 0000.0001) %MON time_secondsf                =   1.2960000000000E+05
(PID.TID 0000.0001) %MON dynstat_eta_max              =   5.1559484132034E-01
(PID.TID 0000.0001) %MON dynstat_eta_min              =  -3.8632584926440E-01
(PID.TID 0000.0001) %MON dynstat_eta_mean             =  -3.8404621791360E-17
(PID.TID 0000.0001) %MON dynstat_eta_sd               =   9.3631580707278E-02
(PID.TID 0000.0001) %MON dynstat_eta_del2             =   2.8106400966598E-02
(PID.TID 0000.0001) %MON dynstat_uvel_max             =   3.1249294081821E-02
(PID.TID 0000.0001) %MON dynstat_uvel_min             =  -3.0297768486339E-02
(PID.TID 0000.0001) %MON dynstat_uvel_mean            =  -1.5822634279901E-03
(PID.TID 0000.0001) %MON dynstat_uvel_sd              =   3.0663843107499E-03
(PID.TID 0000.0001) %MON dynstat_uvel_del2            =   1.1499454803024E-03
(PID.TID 0000.0001) %MON dynstat_vvel_max             =   4.5742365500666E-02
(PID.TID 0000.0001) %MON dynstat_vvel_min             =  -2.4642469869593E-02
(PID.TID 0000.0001) %MON dynstat_vvel_mean            =   2.6059319920526E-03
(PID.TID 0000.0001) %MON dynstat_vvel_sd              =   8.6512045823586E-03
(PID.TID 0000.0001) %MON dynstat_vvel_del2            =   1.3516247603628E-03
(PID.TID 0000.0001) %MON dynstat_wvel_max             =   1.9796948806295E-04
(PID.TID 0000.0001) %MON dynstat_wvel_min             =  -1.6853471623357E-04
(PID.TID 0000.0001) %MON dynstat_wvel_mean            =  -3.2735576339007E-22
(PID.TID 0000.0001) %MON dynstat_wvel_sd              =   2.7015155654461E-05
(PID.TID 0000.0001) %MON dynstat_wvel_del2            =   8.5205447617954E-06
(PID.TID 0000.0001) %MON dynstat_theta_max            =   2.9642012615675E+01
(PID.TID 0000.0001) %MON dynstat_theta_min            =  -1.8997348097147E+00
(PID.TID 0000.0001) %MON dynstat_theta_mean           =   3.6177489385809E+00
(PID.TID 0000.0001) %MON dynstat_theta_sd             =   4.4129125648155E+00
(PID.TID 0000.0001) %MON dynstat_theta_del2           =   1.4830259787629E-01
(PID.TID 0000.0001) %MON dynstat_salt_max             =   3.7460962048093E+01
(PID.TID 0000.0001) %MON dynstat_salt_min             =   2.9759494182332E+01
(PID.TID 0000.0001) %MON dynstat_salt_mean            =   3.4717844454657E+01
(PID.TID 0000.0001) %MON dynstat_salt_sd              =   2.9610456594080E-01
(PID.TID 0000.0001) %MON dynstat_salt_del2            =   2.6520482074320E-02
(PID.TID 0000.0001) %MON advcfl_uvel_max              =   5.9874091553721E-03
(PID.TID 0000.0001) %MON advcfl_vvel_max              =   4.4435039987184E-03
(PID.TID 0000.0001) %MON advcfl_wvel_max              =   2.1258274710781E-01
(PID.TID 0000.0001) %MON advcfl_W_hf_max              =   2.1720422350204E-01
(PID.TID 0000.0001) %MON pe_b_mean                    =   1.1218270578908E-05
(PID.TID 0000.0001) %MON ke_max                       =   8.0824105442859E-04
(PID.TID 0000.0001) %MON ke_mean                      =   4.2058380144874E-05
(PID.TID 0000.0001) %MON ke_vol                       =   1.3226782436723E+18
(PID.TID 0000.0001) %MON vort_r_min                   =  -1.5859198478212E-07
(PID.TID 0000.0001) %MON vort_r_max                   =   1.8492786625690E-07
(PID.TID 0000.0001) %MON vort_a_mean                  =  -2.5205769324253E-05
(PID.TID 0000.0001) %MON vort_a_sd                    =   7.3402977531606E-05
(PID.TID 0000.0001) %MON vort_p_mean                  =  -3.1758669470296E-05
(PID.TID 0000.0001) %MON vort_p_sd                    =   1.3126560819651E-04
(PID.TID 0000.0001) %MON surfExpan_theta_mean         =   1.1378158375717E-04
(PID.TID 0000.0001) %MON surfExpan_salt_mean          =   9.3770607930216E-06
(PID.TID 0000.0001) // =======================================================
(PID.TID 0000.0001) // End MONITOR dynamic field statistics
(PID.TID 0000.0001) // =======================================================
(PID.TID 0000.0001) // =======================================================
(PID.TID 0000.0001) // Begin MONITOR ptracer field statistics
(PID.TID 0000.0001) // =======================================================
(PID.TID 0000.0001) %MON trcstat_ptracer01_max        =   3.7460962048093E+01
(PID.TID 0000.0001) %MON trcstat_ptracer01_min        =   2.9759494182332E+01
(PID.TID 0000.0001) %MON trcstat_ptracer01_mean       =   3.4717844454657E+01
(PID.TID 0000.0001) %MON trcstat_ptracer01_sd         =   2.9610456594080E-01
(PID.TID 0000.0001) %MON trcstat_ptracer01_del2       =   2.6520482074320E-02
(PID.TID 0000.0001) // =======================================================
(PID.TID 0000.0001) // End MONITOR ptracers field statistics
(PID.TID 0000.0001) // =======================================================
time,SST,SSS,fu,fv,Q,E-P,i0,i1,a,b =   1.2960E+05  1.4368E-01  3.4399E+01 -4.0014E-02 -6.3103E-02  2.6516E+02  0.0000E+00    12     1  5.5000E-01  4.5000E-01
time,fu0,fu1,fu =   1.2960E+05 -4.5368E-02 -3.5633E-02 -4.0014E-02  5.500000000000000E-01  4.500000000000000E-01
 cg2d: Sum(rhs),rhsMax =   6.93889390390723E-14  6.76027411578247E+00
(PID.TID 0000.0001)                    cg2d_init_res =    1.89666863058221E+00
(PID.TID 0000.0001)                       cg2d_iters =    26
(PID.TID 0000.0001)                         cg2d_res =    2.60046853227907E-14
(PID.TID 0000.0001) // =======================================================
(PID.TID 0000.0001) // Begin MONITOR dynamic field statistics
(PID.TID 0000.0001) // =======================================================
(PID.TID 0000.0001) %MON time_tsnumber                =                     4
(PID.TID 0000.0001) %MON time_secondsf                =   1.7280000000000E+05
(PID.TID 0000.0001) %MON dynstat_eta_max              =   5.9317834660673E-01
(PID.TID 0000.0001) %MON dynstat_eta_min              =  -5.0419864184971E-01
(PID.TID 0000.0001) %MON dynstat_eta_mean             =  -2.7282281066228E-17
(PID.TID 0000.0001) %MON dynstat_eta_sd               =   1.2392516089222E-01
(PID.TID 0000.0001) %MON dynstat_eta_del2             =   2.9305771943305E-02
(PID.TID 0000.0001) %MON dynstat_uvel_max             =   4.3681297645092E-02
(PID.TID 0000.0001) %MON dynstat_uvel_min             =  -4.2643878067331E-02
(PID.TID 0000.0001) %MON dynstat_uvel_mean            =  -2.3837278444794E-03
(PID.TID 0000.0001) %MON dynstat_uvel_sd              =   4.1260256164061E-03
(PID.TID 0000.0001) %MON dynstat_uvel_del2            =   1.4972907001998E-03
(PID.TID 0000.0001) %MON dynstat_vvel_max             =   5.3470058678723E-02
(PID.TID 0000.0001) %MON dynstat_vvel_min             =  -3.6368600199319E-02
(PID.TID 0000.0001) %MON dynstat_vvel_mean            =   3.3227903865283E-03
(PID.TID 0000.0001) %MON dynstat_vvel_sd              =   1.0605609155484E-02
(PID.TID 0000.0001) %MON dynstat_vvel_del2            =   1.7514797300930E-03
(PID.TID 0000.0001) %MON dynstat_wvel_max             =   2.0350404104592E-04
(PID.TID 0000.0001) %MON dynstat_wvel_min             =  -2.0404789729005E-04
(PID.TID 0000.0001) %MON dynstat_wvel_mean            =  -2.4368186871189E-22
(PID.TID 0000.0001) %MON dynstat_wvel_sd              =   2.8756173386247E-05
(PID.TID 0000.0001) %MON dynstat_wvel_del2            =   8.0962696401534E-06
(PID.TID 0000.0001) %MON dynstat_theta_max            =   2.9646227290836E+01
(PID.TID 0000.0001) %MON dynstat_theta_min            =  -1.8997366644487E+00
(PID.TID 0000.0001) %MON dynstat_theta_mean           =   3.6163028961335E+00
(PID.TID 0000.0001) %MON dynstat_theta_sd             =   4.4099470205463E+00
(PID.TID 0000.0001) %MON dynstat_theta_del2           =   1.4731908519661E-01
(PID.TID 0000.0001) %MON dynstat_salt_max             =   3.7457239404721E+01
(PID.TID 0000.0001) %MON dynstat_salt_min             =   2.9762708214151E+01
(PID.TID 0000.0001) %MON dynstat_salt_mean            =   3.4717720886374E+01
(PID.TID 0000.0001) %MON dynstat_salt_sd              =   2.9612196585601E-01
(PID.TID 0000.0001) %MON dynstat_salt_del2            =   2.6452566324876E-02
(PID.TID 0000.0001) %MON advcfl_uvel_max              =   9.2228366504836E-03
(PID.TID 0000.0001) %MON advcfl_vvel_max              =   5.1941874223176E-03
(PID.TID 0000.0001) %MON advcfl_wvel_max              =   2.3975902499727E-01
(PID.TID 0000.0001) %MON advcfl_W_hf_max              =   2.4014777159205E-01
(PID.TID 0000.0001) %MON pe_b_mean                    =   1.9651702596398E-05
(PID.TID 0000.0001) %MON ke_max                       =   1.2539660296137E-03
(PID.TID 0000.0001) %MON ke_mean                      =   6.5769281230339E-05
(PID.TID 0000.0001) %MON ke_vol                       =   1.3226782436723E+18
(PID.TID 0000.0001) %MON vort_r_min                   =  -2.0762016845899E-07
(PID.TID 0000.0001) %MON vort_r_max                   =   2.3455225698390E-07
(PID.TID 0000.0001) %MON vort_a_mean                  =  -2.5205769320764E-05
(PID.TID 0000.0001) %MON vort_a_sd                    =   7.3402823134273E-05
(PID.TID 0000.0001) %MON vort_p_mean                  =  -3.1758669465899E-05
(PID.TID 0000.0001) %MON vort_p_sd                    =   1.3126523987690E-04
(PID.TID 0000.0001) %MON surfExpan_theta_mean         =   1.3600798092196E-04
(PID.TID 0000.0001) %MON surfExpan_salt_mean          =   1.1329425793461E-05
(PID.TID 0000.0001) // =======================================================
(PID.TID 0000.0001) // End MONITOR dynamic field statistics
(PID.TID 0000.0001) // =======================================================
(PID.TID 0000.0001) // =======================================================
(PID.TID 0000.0001) // Begin MONITOR ptracer field statistics
(PID.TID 0000.0001) // =======================================================
(PID.TID 0000.0001) %MON trcstat_ptracer01_max        =   3.7457239404721E+01
(PID.TID 0000.0001) %MON trcstat_ptracer01_min        =   2.9762708214151E+01
(PID.TID 0000.0001) %MON trcstat_ptracer01_mean       =   3.4717720886374E+01
(PID.TID 0000.0001) %MON trcstat_ptracer01_sd         =   2.9612196585601E-01
(PID.TID 0000.0001) %MON trcstat_ptracer01_del2       =   2.6452566324876E-02
(PID.TID 0000.0001) // =======================================================
(PID.TID 0000.0001) // End MONITOR ptracers field statistics
(PID.TID 0000.0001) // =======================================================
time,SST,SSS,fu,fv,Q,E-P,i0,i1,a,b =   1.7280E+05  1.7385E-01  3.4410E+01 -3.9851E-02 -6.2886E-02  2.6519E+02  0.0000E+00    12     1  5.6667E-01  4.3333E-01
time,fu0,fu1,fu =   1.7280E+05 -4.5368E-02 -3.5633E-02 -3.9851E-02  5.666666666666667E-01  4.333333333333333E-01
 cg2d: Sum(rhs),rhsMax =   8.14903700074865E-14  6.90919497891058E+00
(PID.TID 0000.0001)                    cg2d_init_res =    1.79503843813943E+00
(PID.TID 0000.0001)                       cg2d_iters =    26
(PID.TID 0000.0001)                         cg2d_res =    2.69238694181540E-14
(PID.TID 0000.0001) // =======================================================
(PID.TID 0000.0001) // Begin MONITOR dynamic field statistics
(PID.TID 0000.0001) // =======================================================
(PID.TID 0000.0001) %MON time_tsnumber                =                     5
(PID.TID 0000.0001) %MON time_secondsf                =   2.1600000000000E+05
(PID.TID 0000.0001) %MON dynstat_eta_max              =   6.3886228565728E-01
(PID.TID 0000.0001) %MON dynstat_eta_min              =  -5.8466466017778E-01
(PID.TID 0000.0001) %MON dynstat_eta_mean             =  -5.2074063445912E-18
(PID.TID 0000.0001) %MON dynstat_eta_sd               =   1.5274828676505E-01
(PID.TID 0000.0001) %MON dynstat_eta_del2             =   2.8795504543654E-02
(PID.TID 0000.0001) %MON dynstat_uvel_max             =   5.5990857759585E-02
(PID.TID 0000.0001) %MON dynstat_uvel_min             =  -5.2967700881291E-02
(PID.TID 0000.0001) %MON dynstat_uvel_mean            =  -3.2727108906013E-03
(PID.TID 0000.0001) %MON dynstat_uvel_sd              =   5.3064396777387E-03
(PID.TID 0000.0001) %MON dynstat_uvel_del2            =   1.8086434441481E-03
(PID.TID 0000.0001) %MON dynstat_vvel_max             =   5.8230432361907E-02
(PID.TID 0000.0001) %MON dynstat_vvel_min             =  -4.7537496292986E-02
(PID.TID 0000.0001) %MON dynstat_vvel_mean            =   3.9344799158324E-03
(PID.TID 0000.0001) %MON dynstat_vvel_sd              =   1.2202142732323E-02
(PID.TID 0000.0001) %MON dynstat_vvel_del2            =   2.1139918858233E-03
(PID.TID 0000.0001) %MON dynstat_wvel_max             =   2.3123943146038E-04
(PID.TID 0000.0001) %MON dynstat_wvel_min             =  -2.3633141127898E-04
(PID.TID 0000.0001) %MON dynstat_wvel_mean            =  -1.4092445419483E-22
(PID.TID 0000.0001) %MON dynstat_wvel_sd              =   3.0510337531359E-05
(PID.TID 0000.0001) %MON dynstat_wvel_del2            =   8.8366966812492E-06
(PID.TID 0000.0001) %MON dynstat_theta_max            =   2.9675799229607E+01
(PID.TID 0000.0001) %MON dynstat_theta_min            =  -1.8997385549078E+00
(PID.TID 0000.0001) %MON dynstat_theta_mean           =   3.6146533927031E+00
(PID.TID 0000.0001) %MON dynstat_theta_sd             =   4.4065585800285E+00
(PID.TID 0000.0001) %MON dynstat_theta_del2           =   1.4681222650677E-01
(PID.TID 0000.0001) %MON dynstat_salt_max             =   3.7453465994894E+01
(PID.TID 0000.0001) %MON dynstat_salt_min             =   2.9766119704077E+01
(PID.TID 0000.0001) %MON dynstat_salt_mean            =   3.4717579937461E+01
(PID.TID 0000.0001) %MON dynstat_salt_sd              =   2.9614616110640E-01
(PID.TID 0000.0001) %MON dynstat_salt_del2            =   2.6392051003004E-02
(PID.TID 0000.0001) %MON advcfl_uvel_max              =   1.1917365018992E-02
(PID.TID 0000.0001) %MON advcfl_vvel_max              =   5.6566195520314E-03
(PID.TID 0000.0001) %MON advcfl_wvel_max              =   2.4864380735169E-01
(PID.TID 0000.0001) %MON advcfl_W_hf_max              =   2.5255208653403E-01
(PID.TID 0000.0001) %MON pe_b_mean                    =   2.9856156317530E-05
(PID.TID 0000.0001) %MON ke_max                       =   1.7533346461443E-03
(PID.TID 0000.0001) %MON ke_mean                      =   9.1452732480956E-05
(PID.TID 0000.0001) %MON ke_vol                       =   1.3226782436723E+18
(PID.TID 0000.0001) %MON vort_r_min                   =  -2.5047380830845E-07
(PID.TID 0000.0001) %MON vort_r_max                   =   2.7638932669976E-07
(PID.TID 0000.0001) %MON vort_a_mean                  =  -2.5205769312957E-05
(PID.TID 0000.0001) %MON vort_a_sd                    =   7.3402654503906E-05
(PID.TID 0000.0001) %MON vort_p_mean                  =  -3.1758669456063E-05
(PID.TID 0000.0001) %MON vort_p_sd                    =   1.3126478915178E-04
(PID.TID 0000.0001) %MON surfExpan_theta_mean         =   1.5218319497756E-04
(PID.TID 0000.0001) %MON surfExpan_salt_mean          =   1.2646354093934E-05
(PID.TID 0000.0001) // =======================================================
(PID.TID 0000.0001) // End MONITOR dynamic field statistics
(PID.TID 0000.0001) // =======================================================
(PID.TID 0000.0001) // =======================================================
(PID.TID 0000.0001) // Begin MONITOR ptracer field statistics
(PID.TID 0000.0001) // =======================================================
(PID.TID 0000.0001) %MON trcstat_ptracer01_max        =   3.7453465994894E+01
(PID.TID 0000.0001) %MON trcstat_ptracer01_min        =   2.9766119704077E+01
(PID.TID 0000.0001) %MON trcstat_ptracer01_mean       =   3.4717579937461E+01
(PID.TID 0000.0001) %MON trcstat_ptracer01_sd         =   2.9614616110640E-01
(PID.TID 0000.0001) %MON trcstat_ptracer01_del2       =   2.6392051003004E-02
(PID.TID 0000.0001) // =======================================================
(PID.TID 0000.0001) // End MONITOR ptracers field statistics
(PID.TID 0000.0001) // =======================================================
time,SST,SSS,fu,fv,Q,E-P,i0,i1,a,b =   2.1600E+05  2.0403E-01  3.4422E+01 -3.9689E-02 -6.2670E-02  2.6521E+02  0.0000E+00    12     1  5.8333E-01  4.1667E-01
time,fu0,fu1,fu =   2.1600E+05 -4.5368E-02 -3.5633E-02 -3.9689E-02  5.833333333333334E-01  4.166666666666666E-01
 cg2d: Sum(rhs),rhsMax =  -2.65343302885412E-14  6.95796553498702E+00
(PID.TID 0000.0001)                    cg2d_init_res =    1.72339254293986E+00
(PID.TID 0000.0001)                       cg2d_iters =    26
(PID.TID 0000.0001)                         cg2d_res =    2.75811967074794E-14
(PID.TID 0000.0001) // =======================================================
(PID.TID 0000.0001) // Begin MONITOR dynamic field statistics
(PID.TID 0000.0001) // =======================================================
(PID.TID 0000.0001) %MON time_tsnumber                =                     6
(PID.TID 0000.0001) %MON time_secondsf                =   2.5920000000000E+05
(PID.TID 0000.0001) %MON dynstat_eta_max              =   7.2954570231065E-01
(PID.TID 0000.0001) %MON dynstat_eta_min              =  -6.4960888753191E-01
(PID.TID 0000.0001) %MON dynstat_eta_mean             =   1.8848546877705E-17
(PID.TID 0000.0001) %MON dynstat_eta_sd               =   1.8063866076477E-01
(PID.TID 0000.0001) %MON dynstat_eta_del2             =   2.7892757208019E-02
(PID.TID 0000.0001) %MON dynstat_uvel_max             =   6.7870940819282E-02
(PID.TID 0000.0001) %MON dynstat_uvel_min             =  -6.1343275470361E-02
(PID.TID 0000.0001) %MON dynstat_uvel_mean            =  -4.2172784460511E-03
(PID.TID 0000.0001) %MON dynstat_uvel_sd              =   6.5684286214350E-03
(PID.TID 0000.0001) %MON dynstat_uvel_del2            =   2.0889633603565E-03
(PID.TID 0000.0001) %MON dynstat_vvel_max             =   6.7658698063770E-02
(PID.TID 0000.0001) %MON dynstat_vvel_min             =  -5.8014994994563E-02
(PID.TID 0000.0001) %MON dynstat_vvel_mean            =   4.4283009459520E-03
(PID.TID 0000.0001) %MON dynstat_vvel_sd              =   1.3457353800035E-02
(PID.TID 0000.0001) %MON dynstat_vvel_del2            =   2.4292808151860E-03
(PID.TID 0000.0001) %MON dynstat_wvel_max             =   2.5357764349373E-04
(PID.TID 0000.0001) %MON dynstat_wvel_min             =  -2.6311890151374E-04
(PID.TID 0000.0001) %MON dynstat_wvel_mean            =  -9.4536821355696E-22
(PID.TID 0000.0001) %MON dynstat_wvel_sd              =   3.2285503132941E-05
(PID.TID 0000.0001) %MON dynstat_wvel_del2            =   9.9863505508742E-06
(PID.TID 0000.0001) %MON dynstat_theta_max            =   2.9704203918039E+01
(PID.TID 0000.0001) %MON dynstat_theta_min            =  -1.8997403353728E+00
(PID.TID 0000.0001) %MON dynstat_theta_mean           =   3.6128631707486E+00
(PID.TID 0000.0001) %MON dynstat_theta_sd             =   4.4028255908088E+00
(PID.TID 0000.0001) %MON dynstat_theta_del2           =   1.4634602167261E-01
(PID.TID 0000.0001) %MON dynstat_salt_max             =   3.7449687470408E+01
(PID.TID 0000.0001) %MON dynstat_salt_min             =   2.9769589955140E+01
(PID.TID 0000.0001) %MON dynstat_salt_mean            =   3.4717428460378E+01
(PID.TID 0000.0001) %MON dynstat_salt_sd              =   2.9616595332828E-01
(PID.TID 0000.0001) %MON dynstat_salt_del2            =   2.6336937344711E-02
(PID.TID 0000.0001) %MON advcfl_uvel_max              =   1.4693921940446E-02
(PID.TID 0000.0001) %MON advcfl_vvel_max              =   6.5724999593663E-03
(PID.TID 0000.0001) %MON advcfl_wvel_max              =   2.1403747074475E-01
(PID.TID 0000.0001) %MON advcfl_W_hf_max              =   2.2284135873208E-01
(PID.TID 0000.0001) %MON pe_b_mean                    =   4.1754434839153E-05
(PID.TID 0000.0001) %MON ke_max                       =   2.3320386050276E-03
(PID.TID 0000.0001) %MON ke_mean                      =   1.1778889860372E-04
(PID.TID 0000.0001) %MON ke_vol                       =   1.3226782436723E+18
(PID.TID 0000.0001) %MON vort_r_min                   =  -2.8519267107621E-07
(PID.TID 0000.0001) %MON vort_r_max                   =   3.1015946486620E-07
(PID.TID 0000.0001) %MON vort_a_mean                  =  -2.5205769324005E-05
(PID.TID 0000.0001) %MON vort_a_sd                    =   7.3402476673697E-05
(PID.TID 0000.0001) %MON vort_p_mean                  =  -3.1758669469983E-05
(PID.TID 0000.0001) %MON vort_p_sd                    =   1.3126427065076E-04
(PID.TID 0000.0001) %MON surfExpan_theta_mean         =   1.6288525023490E-04
(PID.TID 0000.0001) %MON surfExpan_salt_mean          =   1.3420977347569E-05
(PID.TID 0000.0001) // =======================================================
(PID.TID 0000.0001) // End MONITOR dynamic field statistics
(PID.TID 0000.0001) // =======================================================
(PID.TID 0000.0001) // =======================================================
(PID.TID 0000.0001) // Begin MONITOR ptracer field statistics
(PID.TID 0000.0001) // =======================================================
(PID.TID 0000.0001) %MON trcstat_ptracer01_max        =   3.7449687470408E+01
(PID.TID 0000.0001) %MON trcstat_ptracer01_min        =   2.9769589955140E+01
(PID.TID 0000.0001) %MON trcstat_ptracer01_mean       =   3.4717428460378E+01
(PID.TID 0000.0001) %MON trcstat_ptracer01_sd         =   2.9616595332828E-01
(PID.TID 0000.0001) %MON trcstat_ptracer01_del2       =   2.6336937344711E-02
(PID.TID 0000.0001) // =======================================================
(PID.TID 0000.0001) // End MONITOR ptracers field statistics
(PID.TID 0000.0001) // =======================================================
time,SST,SSS,fu,fv,Q,E-P,i0,i1,a,b =   2.5920E+05  2.3421E-01  3.4434E+01 -3.9527E-02 -6.2453E-02  2.6523E+02  0.0000E+00    12     1  6.0000E-01  4.0000E-01
time,fu0,fu1,fu =   2.5920E+05 -4.5368E-02 -3.5633E-02 -3.9527E-02  6.000000000000000E-01  4.000000000000000E-01
 cg2d: Sum(rhs),rhsMax =  -1.05693231944315E-13  7.26143063309010E+00
(PID.TID 0000.0001)                    cg2d_init_res =    1.59127882643342E+00
(PID.TID 0000.0001)                       cg2d_iters =    26
(PID.TID 0000.0001)                         cg2d_res =    2.59542923666647E-14
(PID.TID 0000.0001) // =======================================================
(PID.TID 0000.0001) // Begin MONITOR dynamic field statistics
(PID.TID 0000.0001) // =======================================================
(PID.TID 0000.0001) %MON time_tsnumber                =                     7
(PID.TID 0000.0001) %MON time_secondsf                =   3.0240000000000E+05
(PID.TID 0000.0001) %MON dynstat_eta_max              =   8.3343545557027E-01
(PID.TID 0000.0001) %MON dynstat_eta_min              =  -7.0392009274462E-01
(PID.TID 0000.0001) %MON dynstat_eta_mean             =   7.4148938167549E-17
(PID.TID 0000.0001) %MON dynstat_eta_sd               =   2.0762385643908E-01
(PID.TID 0000.0001) %MON dynstat_eta_del2             =   2.6994175278129E-02
(PID.TID 0000.0001) %MON dynstat_uvel_max             =   7.9138196828024E-02
(PID.TID 0000.0001) %MON dynstat_uvel_min             =  -7.4905612369462E-02
(PID.TID 0000.0001) %MON dynstat_uvel_mean            =  -5.1848358091202E-03
(PID.TID 0000.0001) %MON dynstat_uvel_sd              =   7.8759294297457E-03
(PID.TID 0000.0001) %MON dynstat_uvel_del2            =   2.3427760346486E-03
(PID.TID 0000.0001) %MON dynstat_vvel_max             =   7.6939505489762E-02
(PID.TID 0000.0001) %MON dynstat_vvel_min             =  -6.8510193722132E-02
(PID.TID 0000.0001) %MON dynstat_vvel_mean            =   4.7959654509045E-03
(PID.TID 0000.0001) %MON dynstat_vvel_sd              =   1.4389381375779E-02
(PID.TID 0000.0001) %MON dynstat_vvel_del2            =   2.6988096374897E-03
(PID.TID 0000.0001) %MON dynstat_wvel_max             =   2.7051521890148E-04
(PID.TID 0000.0001) %MON dynstat_wvel_min             =  -2.8373966669410E-04
(PID.TID 0000.0001) %MON dynstat_wvel_mean            =  -5.9892893032801E-22
(PID.TID 0000.0001) %MON dynstat_wvel_sd              =   3.3910573396990E-05
(PID.TID 0000.0001) %MON dynstat_wvel_del2            =   1.0985773156453E-05
(PID.TID 0000.0001) %MON dynstat_theta_max            =   2.9714219474283E+01
(PID.TID 0000.0001) %MON dynstat_theta_min            =  -1.8997418931451E+00
(PID.TID 0000.0001) %MON dynstat_theta_mean           =   3.6109900075217E+00
(PID.TID 0000.0001) %MON dynstat_theta_sd             =   4.3988318503254E+00
(PID.TID 0000.0001) %MON dynstat_theta_del2           =   1.4577460041017E-01
(PID.TID 0000.0001) %MON dynstat_salt_max             =   3.7446164458085E+01
(PID.TID 0000.0001) %MON dynstat_salt_min             =   2.9772986371633E+01
(PID.TID 0000.0001) %MON dynstat_salt_mean            =   3.4717271937239E+01
(PID.TID 0000.0001) %MON dynstat_salt_sd              =   2.9617837574705E-01
(PID.TID 0000.0001) %MON dynstat_salt_del2            =   2.6284796106061E-02
(PID.TID 0000.0001) %MON advcfl_uvel_max              =   1.7010537107412E-02
(PID.TID 0000.0001) %MON advcfl_vvel_max              =   7.4740559776734E-03
(PID.TID 0000.0001) %MON advcfl_wvel_max              =   1.8659852504439E-01
(PID.TID 0000.0001) %MON advcfl_W_hf_max              =   1.8451643838741E-01
(PID.TID 0000.0001) %MON pe_b_mean                    =   5.5161454232278E-05
(PID.TID 0000.0001) %MON ke_max                       =   3.1796295901258E-03
(PID.TID 0000.0001) %MON ke_mean                      =   1.4367646079846E-04
(PID.TID 0000.0001) %MON ke_vol                       =   1.3226782436723E+18
(PID.TID 0000.0001) %MON vort_r_min                   =  -3.1104959453631E-07
(PID.TID 0000.0001) %MON vort_r_max                   =   3.3687083079777E-07
(PID.TID 0000.0001) %MON vort_a_mean                  =  -2.5205769365697E-05
(PID.TID 0000.0001) %MON vort_a_sd                    =   7.3402294896862E-05
(PID.TID 0000.0001) %MON vort_p_mean                  =  -3.1758669522515E-05
(PID.TID 0000.0001) %MON vort_p_sd                    =   1.3126370175102E-04
(PID.TID 0000.0001) %MON surfExpan_theta_mean         =   1.6859460965440E-04
(PID.TID 0000.0001) %MON surfExpan_salt_mean          =   1.3730456505612E-05
(PID.TID 0000.0001) // =======================================================
(PID.TID 0000.0001) // End MONITOR dynamic field statistics
(PID.TID 0000.0001) // =======================================================
(PID.TID 0000.0001) // =======================================================
(PID.TID 0000.0001) // Begin MONITOR ptracer field statistics
(PID.TID 0000.0001) // =======================================================
(PID.TID 0000.0001) %MON trcstat_ptracer01_max        =   3.7446164458085E+01
(PID.TID 0000.0001) %MON trcstat_ptracer01_min        =   2.9772986371633E+01
(PID.TID 0000.0001) %MON trcstat_ptracer01_mean       =   3.4717271937239E+01
(PID.TID 0000.0001) %MON trcstat_ptracer01_sd         =   2.9617837574705E-01
(PID.TID 0000.0001) %MON trcstat_ptracer01_del2       =   2.6284796106061E-02
(PID.TID 0000.0001) // =======================================================
(PID.TID 0000.0001) // End MONITOR ptracers field statistics
(PID.TID 0000.0001) // =======================================================
time,SST,SSS,fu,fv,Q,E-P,i0,i1,a,b =   3.0240E+05  2.6438E-01  3.4446E+01 -3.9365E-02 -6.2237E-02  2.6525E+02  0.0000E+00    12     1  6.1667E-01  3.8333E-01
time,fu0,fu1,fu =   3.0240E+05 -4.5368E-02 -3.5633E-02 -3.9365E-02  6.166666666666667E-01  3.833333333333333E-01
 cg2d: Sum(rhs),rhsMax =  -1.77191594730175E-13  7.87405638632303E+00
(PID.TID 0000.0001)                    cg2d_init_res =    1.41263655875571E+00
(PID.TID 0000.0001)                       cg2d_iters =    26
(PID.TID 0000.0001)                         cg2d_res =    2.31727002579427E-14
(PID.TID 0000.0001) // =======================================================
(PID.TID 0000.0001) // Begin MONITOR dynamic field statistics
(PID.TID 0000.0001) // =======================================================
(PID.TID 0000.0001) %MON time_tsnumber                =                     8
(PID.TID 0000.0001) %MON time_secondsf                =   3.4560000000000E+05
(PID.TID 0000.0001) %MON dynstat_eta_max              =   9.0728649523857E-01
(PID.TID 0000.0001) %MON dynstat_eta_min              =  -7.4824643863886E-01
(PID.TID 0000.0001) %MON dynstat_eta_mean             =   5.8187105676519E-17
(PID.TID 0000.0001) %MON dynstat_eta_sd               =   2.3348856050333E-01
(PID.TID 0000.0001) %MON dynstat_eta_del2             =   2.6378764589606E-02
(PID.TID 0000.0001) %MON dynstat_uvel_max             =   8.9733390736801E-02
(PID.TID 0000.0001) %MON dynstat_uvel_min             =  -9.3793593370617E-02
(PID.TID 0000.0001) %MON dynstat_uvel_mean            =  -6.1431826651659E-03
(PID.TID 0000.0001) %MON dynstat_uvel_sd              =   9.1947416456601E-03
(PID.TID 0000.0001) %MON dynstat_uvel_del2            =   2.5725294635265E-03
(PID.TID 0000.0001) %MON dynstat_vvel_max             =   8.3079913014423E-02
(PID.TID 0000.0001) %MON dynstat_vvel_min             =  -7.8020169154655E-02
(PID.TID 0000.0001) %MON dynstat_vvel_mean            =   5.0340947345717E-03
(PID.TID 0000.0001) %MON dynstat_vvel_sd              =   1.5022023796505E-02
(PID.TID 0000.0001) %MON dynstat_vvel_del2            =   2.9229405196308E-03
(PID.TID 0000.0001) %MON dynstat_wvel_max             =   2.8154748622110E-04
(PID.TID 0000.0001) %MON dynstat_wvel_min             =  -2.9808882879721E-04
(PID.TID 0000.0001) %MON dynstat_wvel_mean            =   9.3949636129884E-23
(PID.TID 0000.0001) %MON dynstat_wvel_sd              =   3.5222577069717E-05
(PID.TID 0000.0001) %MON dynstat_wvel_del2            =   1.1728835242158E-05
(PID.TID 0000.0001) %MON dynstat_theta_max            =   2.9700840240504E+01
(PID.TID 0000.0001) %MON dynstat_theta_min            =  -1.8999347643550E+00
(PID.TID 0000.0001) %MON dynstat_theta_mean           =   3.6090869741984E+00
(PID.TID 0000.0001) %MON dynstat_theta_sd             =   4.3946612098360E+00
(PID.TID 0000.0001) %MON dynstat_theta_del2           =   1.4511947231691E-01
(PID.TID 0000.0001) %MON dynstat_salt_max             =   3.7443020990754E+01
(PID.TID 0000.0001) %MON dynstat_salt_min             =   2.9776189128052E+01
(PID.TID 0000.0001) %MON dynstat_salt_mean            =   3.4717115088764E+01
(PID.TID 0000.0001) %MON dynstat_salt_sd              =   2.9618231013076E-01
(PID.TID 0000.0001) %MON dynstat_salt_del2            =   2.6236290030888E-02
(PID.TID 0000.0001) %MON advcfl_uvel_max              =   1.8100136417401E-02
(PID.TID 0000.0001) %MON advcfl_vvel_max              =   8.0705473285458E-03
(PID.TID 0000.0001) %MON advcfl_wvel_max              =   2.0070541926860E-01
(PID.TID 0000.0001) %MON advcfl_W_hf_max              =   2.0101864661060E-01
(PID.TID 0000.0001) %MON pe_b_mean                    =   6.9760954717268E-05
(PID.TID 0000.0001) %MON ke_max                       =   4.1087824130463E-03
(PID.TID 0000.0001) %MON ke_mean                      =   1.6824093776920E-04
(PID.TID 0000.0001) %MON ke_vol                       =   1.3226782436723E+18
(PID.TID 0000.0001) %MON vort_r_min                   =  -3.2852606430648E-07
(PID.TID 0000.0001) %MON vort_r_max                   =   3.9676410670730E-07
(PID.TID 0000.0001) %MON vort_a_mean                  =  -2.5205769434791E-05
(PID.TID 0000.0001) %MON vort_a_sd                    =   7.3402114519451E-05
(PID.TID 0000.0001) %MON vort_p_mean                  =  -3.1758669609571E-05
(PID.TID 0000.0001) %MON vort_p_sd                    =   1.3126310084635E-04
(PID.TID 0000.0001) %MON surfExpan_theta_mean         =   1.6981767886573E-04
(PID.TID 0000.0001) %MON surfExpan_salt_mean          =   1.3628199575490E-05
(PID.TID 0000.0001) // =======================================================
(PID.TID 0000.0001) // End MONITOR dynamic field statistics
(PID.TID 0000.0001) // =======================================================
(PID.TID 0000.0001) // =======================================================
(PID.TID 0000.0001) // Begin MONITOR ptracer field statistics
(PID.TID 0000.0001) // =======================================================
(PID.TID 0000.0001) %MON trcstat_ptracer01_max        =   3.7443020990754E+01
(PID.TID 0000.0001) %MON trcstat_ptracer01_min        =   2.9776189128052E+01
(PID.TID 0000.0001) %MON trcstat_ptracer01_mean       =   3.4717115088764E+01
(PID.TID 0000.0001) %MON trcstat_ptracer01_sd         =   2.9618231013076E-01
(PID.TID 0000.0001) %MON trcstat_ptracer01_del2       =   2.6236290030888E-02
(PID.TID 0000.0001) // =======================================================
(PID.TID 0000.0001) // End MONITOR ptracers field statistics
(PID.TID 0000.0001) // =======================================================
time,SST,SSS,fu,fv,Q,E-P,i0,i1,a,b =   3.4560E+05  2.9456E-01  3.4457E+01 -3.9202E-02 -6.2020E-02  2.6528E+02  0.0000E+00    12     1  6.3333E-01  3.6667E-01
time,fu0,fu1,fu =   3.4560E+05 -4.5368E-02 -3.5633E-02 -3.9202E-02  6.333333333333333E-01  3.666666666666667E-01
 cg2d: Sum(rhs),rhsMax =  -1.43440814781570E-13  8.21105139125827E+00
(PID.TID 0000.0001)                    cg2d_init_res =    1.30396652269772E+00
(PID.TID 0000.0001)                       cg2d_iters =    25
(PID.TID 0000.0001)                         cg2d_res =    9.53437063511259E-14
(PID.TID 0000.0001) // =======================================================
(PID.TID 0000.0001) // Begin MONITOR dynamic field statistics
(PID.TID 0000.0001) // =======================================================
(PID.TID 0000.0001) %MON time_tsnumber                =                     9
(PID.TID 0000.0001) %MON time_secondsf                =   3.8880000000000E+05
(PID.TID 0000.0001) %MON dynstat_eta_max              =   9.5043478038868E-01
(PID.TID 0000.0001) %MON dynstat_eta_min              =  -8.3276483930899E-01
(PID.TID 0000.0001) %MON dynstat_eta_mean             =   1.9018353606333E-16
(PID.TID 0000.0001) %MON dynstat_eta_sd               =   2.5793129145438E-01
(PID.TID 0000.0001) %MON dynstat_eta_del2             =   2.5809195171704E-02
(PID.TID 0000.0001) %MON dynstat_uvel_max             =   9.9673104935921E-02
(PID.TID 0000.0001) %MON dynstat_uvel_min             =  -1.1010187920149E-01
(PID.TID 0000.0001) %MON dynstat_uvel_mean            =  -7.0614339831594E-03
(PID.TID 0000.0001) %MON dynstat_uvel_sd              =   1.0492455499224E-02
(PID.TID 0000.0001) %MON dynstat_uvel_del2            =   2.7764465072053E-03
(PID.TID 0000.0001) %MON dynstat_vvel_max             =   8.6406245228373E-02
(PID.TID 0000.0001) %MON dynstat_vvel_min             =  -8.6428930004954E-02
(PID.TID 0000.0001) %MON dynstat_vvel_mean            =   5.1443537502667E-03
(PID.TID 0000.0001) %MON dynstat_vvel_sd              =   1.5386412984467E-02
(PID.TID 0000.0001) %MON dynstat_vvel_del2            =   3.1031070815691E-03
(PID.TID 0000.0001) %MON dynstat_wvel_max             =   2.8585834192061E-04
(PID.TID 0000.0001) %MON dynstat_wvel_min             =  -3.0678222925309E-04
(PID.TID 0000.0001) %MON dynstat_wvel_mean            =  -2.7480268567991E-21
(PID.TID 0000.0001) %MON dynstat_wvel_sd              =   3.6120548972302E-05
(PID.TID 0000.0001) %MON dynstat_wvel_del2            =   1.2239312495258E-05
(PID.TID 0000.0001) %MON dynstat_theta_max            =   2.9668327200642E+01
(PID.TID 0000.0001) %MON dynstat_theta_min            =  -1.8999353257535E+00
(PID.TID 0000.0001) %MON dynstat_theta_mean           =   3.6072013638502E+00
(PID.TID 0000.0001) %MON dynstat_theta_sd             =   4.3903922402831E+00
(PID.TID 0000.0001) %MON dynstat_theta_del2           =   1.4442637303970E-01
(PID.TID 0000.0001) %MON dynstat_salt_max             =   3.7440248228971E+01
(PID.TID 0000.0001) %MON dynstat_salt_min             =   2.9779096767871E+01
(PID.TID 0000.0001) %MON dynstat_salt_mean            =   3.4716962192959E+01
(PID.TID 0000.0001) %MON dynstat_salt_sd              =   2.9617797471116E-01
(PID.TID 0000.0001) %MON dynstat_salt_del2            =   2.6191297760555E-02
(PID.TID 0000.0001) %MON advcfl_uvel_max              =   1.7828999195698E-02
(PID.TID 0000.0001) %MON advcfl_vvel_max              =   8.3958774732884E-03
(PID.TID 0000.0001) %MON advcfl_wvel_max              =   2.0595917000319E-01
(PID.TID 0000.0001) %MON advcfl_W_hf_max              =   2.1215252395453E-01
(PID.TID 0000.0001) %MON pe_b_mean                    =   8.5131300021537E-05
(PID.TID 0000.0001) %MON ke_max                       =   5.0958276618585E-03
(PID.TID 0000.0001) %MON ke_mean                      =   1.9083494021839E-04
(PID.TID 0000.0001) %MON ke_vol                       =   1.3226782436723E+18
(PID.TID 0000.0001) %MON vort_r_min                   =  -3.3885534585850E-07
(PID.TID 0000.0001) %MON vort_r_max                   =   4.6633051577211E-07
(PID.TID 0000.0001) %MON vort_a_mean                  =  -2.5205769519709E-05
(PID.TID 0000.0001) %MON vort_a_sd                    =   7.3401940788080E-05
(PID.TID 0000.0001) %MON vort_p_mean                  =  -3.1758669716565E-05
(PID.TID 0000.0001) %MON vort_p_sd                    =   1.3126248774772E-04
(PID.TID 0000.0001) %MON surfExpan_theta_mean         =   1.6712285741211E-04
(PID.TID 0000.0001) %MON surfExpan_salt_mean          =   1.3161012554664E-05
(PID.TID 0000.0001) // =======================================================
(PID.TID 0000.0001) // End MONITOR dynamic field statistics
(PID.TID 0000.0001) // =======================================================
(PID.TID 0000.0001) // =======================================================
(PID.TID 0000.0001) // Begin MONITOR ptracer field statistics
(PID.TID 0000.0001) // =======================================================
(PID.TID 0000.0001) %MON trcstat_ptracer01_max        =   3.7440248228971E+01
(PID.TID 0000.0001) %MON trcstat_ptracer01_min        =   2.9779096767871E+01
(PID.TID 0000.0001) %MON trcstat_ptracer01_mean       =   3.4716962192959E+01
(PID.TID 0000.0001) %MON trcstat_ptracer01_sd         =   2.9617797471116E-01
(PID.TID 0000.0001) %MON trcstat_ptracer01_del2       =   2.6191297760555E-02
(PID.TID 0000.0001) // =======================================================
(PID.TID 0000.0001) // End MONITOR ptracers field statistics
(PID.TID 0000.0001) // =======================================================
time,SST,SSS,fu,fv,Q,E-P,i0,i1,a,b =   3.8880E+05  3.2473E-01  3.4469E+01 -3.9040E-02 -6.1804E-02  2.6530E+02  0.0000E+00    12     1  6.5000E-01  3.5000E-01
time,fu0,fu1,fu =   3.8880E+05 -4.5368E-02 -3.5633E-02 -3.9040E-02  6.500000000000000E-01  3.500000000000000E-01
 cg2d: Sum(rhs),rhsMax =  -3.57491813929300E-13  8.31388271562024E+00
(PID.TID 0000.0001)                    cg2d_init_res =    1.23995879974905E+00
(PID.TID 0000.0001)                       cg2d_iters =    25
(PID.TID 0000.0001)                         cg2d_res =    8.87178790686632E-14
(PID.TID 0000.0001) // =======================================================
(PID.TID 0000.0001) // Begin MONITOR dynamic field statistics
(PID.TID 0000.0001) // =======================================================
(PID.TID 0000.0001) %MON time_tsnumber                =                    10
(PID.TID 0000.0001) %MON time_secondsf                =   4.3200000000000E+05
(PID.TID 0000.0001) %MON dynstat_eta_max              =   9.6742252165071E-01
(PID.TID 0000.0001) %MON dynstat_eta_min              =  -8.8669450160980E-01
(PID.TID 0000.0001) %MON dynstat_eta_mean             =   2.6218158900159E-16
(PID.TID 0000.0001) %MON dynstat_eta_sd               =   2.8063664676755E-01
(PID.TID 0000.0001) %MON dynstat_eta_del2             =   2.5141331665546E-02
(PID.TID 0000.0001) %MON dynstat_uvel_max             =   1.0898318020522E-01
(PID.TID 0000.0001) %MON dynstat_uvel_min             =  -1.2267223012774E-01
(PID.TID 0000.0001) %MON dynstat_uvel_mean            =  -7.9108364451068E-03
(PID.TID 0000.0001) %MON dynstat_uvel_sd              =   1.1739632435540E-02
(PID.TID 0000.0001) %MON dynstat_uvel_del2            =   2.9549313583908E-03
(PID.TID 0000.0001) %MON dynstat_vvel_max             =   9.6264480037933E-02
(PID.TID 0000.0001) %MON dynstat_vvel_min             =  -9.3555860826629E-02
(PID.TID 0000.0001) %MON dynstat_vvel_mean            =   5.1334604670780E-03
(PID.TID 0000.0001) %MON dynstat_vvel_sd              =   1.5521258947141E-02
(PID.TID 0000.0001) %MON dynstat_vvel_del2            =   3.2442127321884E-03
(PID.TID 0000.0001) %MON dynstat_wvel_max             =   2.8278297449519E-04
(PID.TID 0000.0001) %MON dynstat_wvel_min             =  -3.1985077094727E-04
(PID.TID 0000.0001) %MON dynstat_wvel_mean            =   1.1743704516236E-22
(PID.TID 0000.0001) %MON dynstat_wvel_sd              =   3.6565072280028E-05
(PID.TID 0000.0001) %MON dynstat_wvel_del2            =   1.2516304186944E-05
(PID.TID 0000.0001) %MON dynstat_theta_max            =   2.9626177804594E+01
(PID.TID 0000.0001) %MON dynstat_theta_min            =  -1.8999356898109E+00
(PID.TID 0000.0001) %MON dynstat_theta_mean           =   3.6053732646717E+00
(PID.TID 0000.0001) %MON dynstat_theta_sd             =   4.3860956070715E+00
(PID.TID 0000.0001) %MON dynstat_theta_del2           =   1.4375175878424E-01
(PID.TID 0000.0001) %MON dynstat_salt_max             =   3.7437795847370E+01
(PID.TID 0000.0001) %MON dynstat_salt_min             =   2.9781630503064E+01
(PID.TID 0000.0001) %MON dynstat_salt_mean            =   3.4716817043946E+01
(PID.TID 0000.0001) %MON dynstat_salt_sd              =   2.9616620273993E-01
(PID.TID 0000.0001) %MON dynstat_salt_del2            =   2.6150511060369E-02
(PID.TID 0000.0001) %MON advcfl_uvel_max              =   1.6320319175290E-02
(PID.TID 0000.0001) %MON advcfl_vvel_max              =   9.3513222873634E-03
(PID.TID 0000.0001) %MON advcfl_wvel_max              =   2.0144691913524E-01
(PID.TID 0000.0001) %MON advcfl_W_hf_max              =   2.0369177007677E-01
(PID.TID 0000.0001) %MON pe_b_mean                    =   1.0077898154310E-04
(PID.TID 0000.0001) %MON ke_max                       =   6.1325669285844E-03
(PID.TID 0000.0001) %MON ke_mean                      =   2.1103047223006E-04
(PID.TID 0000.0001) %MON ke_vol                       =   1.3226782436723E+18
(PID.TID 0000.0001) %MON vort_r_min                   =  -3.4557873524121E-07
(PID.TID 0000.0001) %MON vort_r_max                   =   5.2615331200616E-07
(PID.TID 0000.0001) %MON vort_a_mean                  =  -2.5205769606777E-05
(PID.TID 0000.0001) %MON vort_a_sd                    =   7.3401778690052E-05
(PID.TID 0000.0001) %MON vort_p_mean                  =  -3.1758669826270E-05
(PID.TID 0000.0001) %MON vort_p_sd                    =   1.3126188448891E-04
(PID.TID 0000.0001) %MON surfExpan_theta_mean         =   1.6111655056022E-04
(PID.TID 0000.0001) %MON surfExpan_salt_mean          =   1.2382336180834E-05
(PID.TID 0000.0001) // =======================================================
(PID.TID 0000.0001) // End MONITOR dynamic field statistics
(PID.TID 0000.0001) // =======================================================
(PID.TID 0000.0001) // =======================================================
(PID.TID 0000.0001) // Begin MONITOR ptracer field statistics
(PID.TID 0000.0001) // =======================================================
(PID.TID 0000.0001) %MON trcstat_ptracer01_max        =   3.7437795847370E+01
(PID.TID 0000.0001) %MON trcstat_ptracer01_min        =   2.9781630503064E+01
(PID.TID 0000.0001) %MON trcstat_ptracer01_mean       =   3.4716817043946E+01
(PID.TID 0000.0001) %MON trcstat_ptracer01_sd         =   2.9616620273993E-01
(PID.TID 0000.0001) %MON trcstat_ptracer01_del2       =   2.6150511060369E-02
(PID.TID 0000.0001) // =======================================================
(PID.TID 0000.0001) // End MONITOR ptracers field statistics
(PID.TID 0000.0001) // =======================================================
time,SST,SSS,fu,fv,Q,E-P,i0,i1,a,b =   4.3200E+05  3.5491E-01  3.4481E+01 -3.8878E-02 -6.1587E-02  2.6532E+02  0.0000E+00    12     1  6.6667E-01  3.3333E-01
time,fu0,fu1,fu =   4.3200E+05 -4.5368E-02 -3.5633E-02 -3.8878E-02  6.666666666666666E-01  3.333333333333334E-01
 cg2d: Sum(rhs),rhsMax =  -5.23137089203374E-13  8.25118452323037E+00
(PID.TID 0000.0001)                    cg2d_init_res =    1.20298550518403E+00
(PID.TID 0000.0001)                       cg2d_iters =    25
(PID.TID 0000.0001)                         cg2d_res =    8.44470515704487E-14
(PID.TID 0000.0001) // =======================================================
(PID.TID 0000.0001) // Begin MONITOR dynamic field statistics
(PID.TID 0000.0001) // =======================================================
(PID.TID 0000.0001) %MON time_tsnumber                =                    11
(PID.TID 0000.0001) %MON time_secondsf                =   4.7520000000000E+05
(PID.TID 0000.0001) %MON dynstat_eta_max              =   9.6531541519826E-01
(PID.TID 0000.0001) %MON dynstat_eta_min              =  -9.1701585985328E-01
(PID.TID 0000.0001) %MON dynstat_eta_mean             =   3.9349879247389E-16
(PID.TID 0000.0001) %MON dynstat_eta_sd               =   3.0131360925330E-01
(PID.TID 0000.0001) %MON dynstat_eta_del2             =   2.4437882842055E-02
(PID.TID 0000.0001) %MON dynstat_uvel_max             =   1.1766177075537E-01
(PID.TID 0000.0001) %MON dynstat_uvel_min             =  -1.3089553687272E-01
(PID.TID 0000.0001) %MON dynstat_uvel_mean            =  -8.6656667692701E-03
(PID.TID 0000.0001) %MON dynstat_uvel_sd              =   1.2911311302112E-02
(PID.TID 0000.0001) %MON dynstat_uvel_del2            =   3.1096324792793E-03
(PID.TID 0000.0001) %MON dynstat_vvel_max             =   1.0386909722613E-01
(PID.TID 0000.0001) %MON dynstat_vvel_min             =  -9.9179509353190E-02
(PID.TID 0000.0001) %MON dynstat_vvel_mean            =   5.0130473212042E-03
(PID.TID 0000.0001) %MON dynstat_vvel_sd              =   1.5471770758794E-02
(PID.TID 0000.0001) %MON dynstat_vvel_del2            =   3.3506236016099E-03
(PID.TID 0000.0001) %MON dynstat_wvel_max             =   2.7555420419435E-04
(PID.TID 0000.0001) %MON dynstat_wvel_min             =  -3.4119137203673E-04
(PID.TID 0000.0001) %MON dynstat_wvel_mean            =  -2.1138668129224E-21
(PID.TID 0000.0001) %MON dynstat_wvel_sd              =   3.6569582344944E-05
(PID.TID 0000.0001) %MON dynstat_wvel_del2            =   1.2585551082195E-05
(PID.TID 0000.0001) %MON dynstat_theta_max            =   2.9583729328444E+01
(PID.TID 0000.0001) %MON dynstat_theta_min            =  -1.8999358061887E+00
(PID.TID 0000.0001) %MON dynstat_theta_mean           =   3.6036357528559E+00
(PID.TID 0000.0001) %MON dynstat_theta_sd             =   4.3818334043787E+00
(PID.TID 0000.0001) %MON dynstat_theta_del2           =   1.4313197204608E-01
(PID.TID 0000.0001) %MON dynstat_salt_max             =   3.7435608636096E+01
(PID.TID 0000.0001) %MON dynstat_salt_min             =   2.9783737071664E+01
(PID.TID 0000.0001) %MON dynstat_salt_mean            =   3.4716682788462E+01
(PID.TID 0000.0001) %MON dynstat_salt_sd              =   2.9614800125293E-01
(PID.TID 0000.0001) %MON dynstat_salt_del2            =   2.6115373217654E-02
(PID.TID 0000.0001) %MON advcfl_uvel_max              =   1.7540042921315E-02
(PID.TID 0000.0001) %MON advcfl_vvel_max              =   1.0090049865498E-02
(PID.TID 0000.0001) %MON advcfl_wvel_max              =   1.9684554331315E-01
(PID.TID 0000.0001) %MON advcfl_W_hf_max              =   1.8965209027308E-01
(PID.TID 0000.0001) %MON pe_b_mean                    =   1.1617660885223E-04
(PID.TID 0000.0001) %MON ke_max                       =   7.2063863573764E-03
(PID.TID 0000.0001) %MON ke_mean                      =   2.2859995316599E-04
(PID.TID 0000.0001) %MON ke_vol                       =   1.3226782436723E+18
(PID.TID 0000.0001) %MON vort_r_min                   =  -3.4934137990264E-07
(PID.TID 0000.0001) %MON vort_r_max                   =   5.7308915917323E-07
(PID.TID 0000.0001) %MON vort_a_mean                  =  -2.5205769683546E-05
(PID.TID 0000.0001) %MON vort_a_sd                    =   7.3401632798050E-05
(PID.TID 0000.0001) %MON vort_p_mean                  =  -3.1758669922996E-05
(PID.TID 0000.0001) %MON vort_p_sd                    =   1.3126131522501E-04
(PID.TID 0000.0001) %MON surfExpan_theta_mean         =   1.5240628594484E-04
(PID.TID 0000.0001) %MON surfExpan_salt_mean          =   1.1353963954724E-05
(PID.TID 0000.0001) // =======================================================
(PID.TID 0000.0001) // End MONITOR dynamic field statistics
(PID.TID 0000.0001) // =======================================================
(PID.TID 0000.0001) // =======================================================
(PID.TID 0000.0001) // Begin MONITOR ptracer field statistics
(PID.TID 0000.0001) // =======================================================
(PID.TID 0000.0001) %MON trcstat_ptracer01_max        =   3.7435608636096E+01
(PID.TID 0000.0001) %MON trcstat_ptracer01_min        =   2.9783737071664E+01
(PID.TID 0000.0001) %MON trcstat_ptracer01_mean       =   3.4716682788462E+01
(PID.TID 0000.0001) %MON trcstat_ptracer01_sd         =   2.9614800125293E-01
(PID.TID 0000.0001) %MON trcstat_ptracer01_del2       =   2.6115373217654E-02
(PID.TID 0000.0001) // =======================================================
(PID.TID 0000.0001) // End MONITOR ptracers field statistics
(PID.TID 0000.0001) // =======================================================
time,SST,SSS,fu,fv,Q,E-P,i0,i1,a,b =   4.7520E+05  3.8508E-01  3.4492E+01 -3.8716E-02 -6.1371E-02  2.6534E+02  0.0000E+00    12     1  6.8333E-01  3.1667E-01
time,fu0,fu1,fu =   4.7520E+05 -4.5368E-02 -3.5633E-02 -3.8716E-02  6.833333333333333E-01  3.166666666666667E-01
 cg2d: Sum(rhs),rhsMax =  -7.94919685631612E-13  8.09140699012554E+00
(PID.TID 0000.0001)                    cg2d_init_res =    1.18153818294087E+00
(PID.TID 0000.0001)                       cg2d_iters =    25
(PID.TID 0000.0001)                         cg2d_res =    8.15257743185480E-14
(PID.TID 0000.0001) // =======================================================
(PID.TID 0000.0001) // Begin MONITOR dynamic field statistics
(PID.TID 0000.0001) // =======================================================
(PID.TID 0000.0001) %MON time_tsnumber                =                    12
(PID.TID 0000.0001) %MON time_secondsf                =   5.1840000000000E+05
(PID.TID 0000.0001) %MON dynstat_eta_max              =   9.9562314729451E-01
(PID.TID 0000.0001) %MON dynstat_eta_min              =  -1.0103517578111E+00
(PID.TID 0000.0001) %MON dynstat_eta_mean             =   5.2119345240213E-16
(PID.TID 0000.0001) %MON dynstat_eta_sd               =   3.1972273632902E-01
(PID.TID 0000.0001) %MON dynstat_eta_del2             =   2.3687189868637E-02
(PID.TID 0000.0001) %MON dynstat_uvel_max             =   1.2568017219161E-01
(PID.TID 0000.0001) %MON dynstat_uvel_min             =  -1.3461694622590E-01
(PID.TID 0000.0001) %MON dynstat_uvel_mean            =  -9.3042553296161E-03
(PID.TID 0000.0001) %MON dynstat_uvel_sd              =   1.3988061265363E-02
(PID.TID 0000.0001) %MON dynstat_uvel_del2            =   3.2396187998954E-03
(PID.TID 0000.0001) %MON dynstat_vvel_max             =   1.0890925970832E-01
(PID.TID 0000.0001) %MON dynstat_vvel_min             =  -1.0307817453417E-01
(PID.TID 0000.0001) %MON dynstat_vvel_mean            =   4.7991986634507E-03
(PID.TID 0000.0001) %MON dynstat_vvel_sd              =   1.5287324290751E-02
(PID.TID 0000.0001) %MON dynstat_vvel_del2            =   3.4229845573276E-03
(PID.TID 0000.0001) %MON dynstat_wvel_max             =   2.6645837832311E-04
(PID.TID 0000.0001) %MON dynstat_wvel_min             =  -3.5712293587575E-04
(PID.TID 0000.0001) %MON dynstat_wvel_mean            =   9.8647117936378E-22
(PID.TID 0000.0001) %MON dynstat_wvel_sd              =   3.6185642239215E-05
(PID.TID 0000.0001) %MON dynstat_wvel_del2            =   1.2474949761860E-05
(PID.TID 0000.0001) %MON dynstat_theta_max            =   2.9547398911881E+01
(PID.TID 0000.0001) %MON dynstat_theta_min            =  -1.8999356604952E+00
(PID.TID 0000.0001) %MON dynstat_theta_mean           =   3.6020150008136E+00
(PID.TID 0000.0001) %MON dynstat_theta_sd             =   4.3776605661688E+00
(PID.TID 0000.0001) %MON dynstat_theta_del2           =   1.4256492412791E-01
(PID.TID 0000.0001) %MON dynstat_salt_max             =   3.7433628624238E+01
(PID.TID 0000.0001) %MON dynstat_salt_min             =   2.9785390096695E+01
(PID.TID 0000.0001) %MON dynstat_salt_mean            =   3.4716561818208E+01
(PID.TID 0000.0001) %MON dynstat_salt_sd              =   2.9612429200934E-01
(PID.TID 0000.0001) %MON dynstat_salt_del2            =   2.6086600287113E-02
(PID.TID 0000.0001) %MON advcfl_uvel_max              =   2.1077670035219E-02
(PID.TID 0000.0001) %MON advcfl_vvel_max              =   1.0579661233400E-02
(PID.TID 0000.0001) %MON advcfl_wvel_max              =   2.0124163783931E-01
(PID.TID 0000.0001) %MON advcfl_W_hf_max              =   1.7560483843679E-01
(PID.TID 0000.0001) %MON pe_b_mean                    =   1.3080617386960E-04
(PID.TID 0000.0001) %MON ke_max                       =   8.2973725764988E-03
(PID.TID 0000.0001) %MON ke_mean                      =   2.4348305653816E-04
(PID.TID 0000.0001) %MON ke_vol                       =   1.3226782436723E+18
(PID.TID 0000.0001) %MON vort_r_min                   =  -3.3976158643740E-07
(PID.TID 0000.0001) %MON vort_r_max                   =   6.0486779615200E-07
(PID.TID 0000.0001) %MON vort_a_mean                  =  -2.5205769740603E-05
(PID.TID 0000.0001) %MON vort_a_sd                    =   7.3401507084376E-05
(PID.TID 0000.0001) %MON vort_p_mean                  =  -3.1758669994887E-05
(PID.TID 0000.0001) %MON vort_p_sd                    =   1.3126080471455E-04
(PID.TID 0000.0001) %MON surfExpan_theta_mean         =   1.4156757870318E-04
(PID.TID 0000.0001) %MON surfExpan_salt_mean          =   1.0141570260904E-05
(PID.TID 0000.0001) // =======================================================
(PID.TID 0000.0001) // End MONITOR dynamic field statistics
(PID.TID 0000.0001) // =======================================================
(PID.TID 0000.0001) // =======================================================
(PID.TID 0000.0001) // Begin MONITOR ptracer field statistics
(PID.TID 0000.0001) // =======================================================
(PID.TID 0000.0001) %MON trcstat_ptracer01_max        =   3.7433628624238E+01
(PID.TID 0000.0001) %MON trcstat_ptracer01_min        =   2.9785390096695E+01
(PID.TID 0000.0001) %MON trcstat_ptracer01_mean       =   3.4716561818208E+01
(PID.TID 0000.0001) %MON trcstat_ptracer01_sd         =   2.9612429200934E-01
(PID.TID 0000.0001) %MON trcstat_ptracer01_del2       =   2.6086600287113E-02
(PID.TID 0000.0001) // =======================================================
(PID.TID 0000.0001) // End MONITOR ptracers field statistics
(PID.TID 0000.0001) // =======================================================
time,SST,SSS,fu,fv,Q,E-P,i0,i1,a,b =   5.1840E+05  4.1526E-01  3.4504E+01 -3.8553E-02 -6.1154E-02  2.6537E+02  0.0000E+00    12     1  7.0000E-01  3.0000E-01
time,fu0,fu1,fu =   5.1840E+05 -4.5368E-02 -3.5633E-02 -3.8553E-02  7.000000000000000E-01  3.000000000000000E-01
 cg2d: Sum(rhs),rhsMax =  -1.00630614952024E-12  8.55664182816360E+00
(PID.TID 0000.0001)                    cg2d_init_res =    1.07784424706553E+00
(PID.TID 0000.0001)                       cg2d_iters =    25
(PID.TID 0000.0001)                         cg2d_res =    7.21582905591649E-14
(PID.TID 0000.0001) // =======================================================
(PID.TID 0000.0001) // Begin MONITOR dynamic field statistics
(PID.TID 0000.0001) // =======================================================
(PID.TID 0000.0001) %MON time_tsnumber                =                    13
(PID.TID 0000.0001) %MON time_secondsf                =   5.6160000000000E+05
(PID.TID 0000.0001) %MON dynstat_eta_max              =   1.0471435520018E+00
(PID.TID 0000.0001) %MON dynstat_eta_min              =  -1.0887571582520E+00
(PID.TID 0000.0001) %MON dynstat_eta_mean             =   6.4752965850134E-16
(PID.TID 0000.0001) %MON dynstat_eta_sd               =   3.3569736758433E-01
(PID.TID 0000.0001) %MON dynstat_eta_del2             =   2.2892607483369E-02
(PID.TID 0000.0001) %MON dynstat_uvel_max             =   1.3300120217769E-01
(PID.TID 0000.0001) %MON dynstat_uvel_min             =  -1.3403471306089E-01
(PID.TID 0000.0001) %MON dynstat_uvel_mean            =  -9.8099733563638E-03
(PID.TID 0000.0001) %MON dynstat_uvel_sd              =   1.4956286399766E-02
(PID.TID 0000.0001) %MON dynstat_uvel_del2            =   3.3479225143957E-03
(PID.TID 0000.0001) %MON dynstat_vvel_max             =   1.1119271573483E-01
(PID.TID 0000.0001) %MON dynstat_vvel_min             =  -1.0506137340986E-01
(PID.TID 0000.0001) %MON dynstat_vvel_mean            =   4.5115941651282E-03
(PID.TID 0000.0001) %MON dynstat_vvel_sd              =   1.5018224808794E-02
(PID.TID 0000.0001) %MON dynstat_vvel_del2            =   3.4671349173410E-03
(PID.TID 0000.0001) %MON dynstat_wvel_max             =   2.5866907530997E-04
(PID.TID 0000.0001) %MON dynstat_wvel_min             =  -3.6634545111144E-04
(PID.TID 0000.0001) %MON dynstat_wvel_mean            =   1.9729423587276E-21
(PID.TID 0000.0001) %MON dynstat_wvel_sd              =   3.5485033887949E-05
(PID.TID 0000.0001) %MON dynstat_wvel_del2            =   1.2211970524488E-05
(PID.TID 0000.0001) %MON dynstat_theta_max            =   2.9557007837105E+01
(PID.TID 0000.0001) %MON dynstat_theta_min            =  -1.8999352721450E+00
(PID.TID 0000.0001) %MON dynstat_theta_mean           =   3.6005310885916E+00
(PID.TID 0000.0001) %MON dynstat_theta_sd             =   4.3736256853642E+00
(PID.TID 0000.0001) %MON dynstat_theta_del2           =   1.4204577319200E-01
(PID.TID 0000.0001) %MON dynstat_salt_max             =   3.7431795105228E+01
(PID.TID 0000.0001) %MON dynstat_salt_min             =   2.9786589972990E+01
(PID.TID 0000.0001) %MON dynstat_salt_mean            =   3.4716455758902E+01
(PID.TID 0000.0001) %MON dynstat_salt_sd              =   2.9609565905420E-01
(PID.TID 0000.0001) %MON dynstat_salt_del2            =   2.6063777224164E-02
(PID.TID 0000.0001) %MON advcfl_uvel_max              =   2.4449386822033E-02
(PID.TID 0000.0001) %MON advcfl_vvel_max              =   1.0801480675259E-02
(PID.TID 0000.0001) %MON advcfl_wvel_max              =   2.0208472635283E-01
(PID.TID 0000.0001) %MON advcfl_W_hf_max              =   1.7748386149361E-01
(PID.TID 0000.0001) %MON pe_b_mean                    =   1.4420392174347E-04
(PID.TID 0000.0001) %MON ke_max                       =   9.3799878892433E-03
(PID.TID 0000.0001) %MON ke_mean                      =   2.5574324943616E-04
(PID.TID 0000.0001) %MON ke_vol                       =   1.3226782436723E+18
(PID.TID 0000.0001) %MON vort_r_min                   =  -3.3396138508194E-07
(PID.TID 0000.0001) %MON vort_r_max                   =   6.2009674128419E-07
(PID.TID 0000.0001) %MON vort_a_mean                  =  -2.5205769772111E-05
(PID.TID 0000.0001) %MON vort_a_sd                    =   7.3401404731746E-05
(PID.TID 0000.0001) %MON vort_p_mean                  =  -3.1758670034586E-05
(PID.TID 0000.0001) %MON vort_p_sd                    =   1.3126037570226E-04
(PID.TID 0000.0001) %MON surfExpan_theta_mean         =   1.2914019562833E-04
(PID.TID 0000.0001) %MON surfExpan_salt_mean          =   8.8100310120516E-06
(PID.TID 0000.0001) // =======================================================
(PID.TID 0000.0001) // End MONITOR dynamic field statistics
(PID.TID 0000.0001) // =======================================================
(PID.TID 0000.0001) // =======================================================
(PID.TID 0000.0001) // Begin MONITOR ptracer field statistics
(PID.TID 0000.0001) // =======================================================
(PID.TID 0000.0001) %MON trcstat_ptracer01_max        =   3.7431795105228E+01
(PID.TID 0000.0001) %MON trcstat_ptracer01_min        =   2.9786589972990E+01
(PID.TID 0000.0001) %MON trcstat_ptracer01_mean       =   3.4716455758902E+01
(PID.TID 0000.0001) %MON trcstat_ptracer01_sd         =   2.9609565905420E-01
(PID.TID 0000.0001) %MON trcstat_ptracer01_del2       =   2.6063777224164E-02
(PID.TID 0000.0001) // =======================================================
(PID.TID 0000.0001) // End MONITOR ptracers field statistics
(PID.TID 0000.0001) // =======================================================
time,SST,SSS,fu,fv,Q,E-P,i0,i1,a,b =   5.6160E+05  4.4544E-01  3.4516E+01 -3.8391E-02 -6.0938E-02  2.6539E+02  0.0000E+00    12     1  7.1667E-01  2.8333E-01
time,fu0,fu1,fu =   5.6160E+05 -4.5368E-02 -3.5633E-02 -3.8391E-02  7.166666666666667E-01  2.833333333333333E-01
 cg2d: Sum(rhs),rhsMax =  -8.89954776539525E-13  9.25242894282643E+00
(PID.TID 0000.0001)                    cg2d_init_res =    9.64914566395467E-01
(PID.TID 0000.0001)                       cg2d_iters =    25
(PID.TID 0000.0001)                         cg2d_res =    6.15062388458161E-14
(PID.TID 0000.0001) // =======================================================
(PID.TID 0000.0001) // Begin MONITOR dynamic field statistics
(PID.TID 0000.0001) // =======================================================
(PID.TID 0000.0001) %MON time_tsnumber                =                    14
(PID.TID 0000.0001) %MON time_secondsf                =   6.0480000000000E+05
(PID.TID 0000.0001) %MON dynstat_eta_max              =   1.1180788465607E+00
(PID.TID 0000.0001) %MON dynstat_eta_min              =  -1.1574861542986E+00
(PID.TID 0000.0001) %MON dynstat_eta_mean             =   4.9085465022060E-16
(PID.TID 0000.0001) %MON dynstat_eta_sd               =   3.4915697650640E-01
(PID.TID 0000.0001) %MON dynstat_eta_del2             =   2.2212333088698E-02
(PID.TID 0000.0001) %MON dynstat_uvel_max             =   1.4012216609938E-01
(PID.TID 0000.0001) %MON dynstat_uvel_min             =  -1.2966468411951E-01
(PID.TID 0000.0001) %MON dynstat_uvel_mean            =  -1.0171948878904E-02
(PID.TID 0000.0001) %MON dynstat_uvel_sd              =   1.5807944859198E-02
(PID.TID 0000.0001) %MON dynstat_uvel_del2            =   3.4392833880775E-03
(PID.TID 0000.0001) %MON dynstat_vvel_max             =   1.2328977446563E-01
(PID.TID 0000.0001) %MON dynstat_vvel_min             =  -1.0498882581634E-01
(PID.TID 0000.0001) %MON dynstat_vvel_mean            =   4.1723206987568E-03
(PID.TID 0000.0001) %MON dynstat_vvel_sd              =   1.4712002750671E-02
(PID.TID 0000.0001) %MON dynstat_vvel_del2            =   3.4855195635383E-03
(PID.TID 0000.0001) %MON dynstat_wvel_max             =   2.5647649517971E-04
(PID.TID 0000.0001) %MON dynstat_wvel_min             =  -3.6854233240646E-04
(PID.TID 0000.0001) %MON dynstat_wvel_mean            =  -4.2277336258448E-22
(PID.TID 0000.0001) %MON dynstat_wvel_sd              =   3.4545935090462E-05
(PID.TID 0000.0001) %MON dynstat_wvel_del2            =   1.1825817015546E-05
(PID.TID 0000.0001) %MON dynstat_theta_max            =   2.9557845524882E+01
(PID.TID 0000.0001) %MON dynstat_theta_min            =  -1.8999346868548E+00
(PID.TID 0000.0001) %MON dynstat_theta_mean           =   3.5991982638303E+00
(PID.TID 0000.0001) %MON dynstat_theta_sd             =   4.3697733491659E+00
(PID.TID 0000.0001) %MON dynstat_theta_del2           =   1.4159695979981E-01
(PID.TID 0000.0001) %MON dynstat_salt_max             =   3.7430055194304E+01
(PID.TID 0000.0001) %MON dynstat_salt_min             =   2.9787362383862E+01
(PID.TID 0000.0001) %MON dynstat_salt_mean            =   3.4716365508734E+01
(PID.TID 0000.0001) %MON dynstat_salt_sd              =   2.9606307785150E-01
(PID.TID 0000.0001) %MON dynstat_salt_del2            =   2.6046702219816E-02
(PID.TID 0000.0001) %MON advcfl_uvel_max              =   2.6817582804538E-02
(PID.TID 0000.0001) %MON advcfl_vvel_max              =   1.1976612924207E-02
(PID.TID 0000.0001) %MON advcfl_wvel_max              =   1.8737032485248E-01
(PID.TID 0000.0001) %MON advcfl_W_hf_max              =   1.6543589961744E-01
(PID.TID 0000.0001) %MON pe_b_mean                    =   1.5599929956307E-04
(PID.TID 0000.0001) %MON ke_max                       =   1.0427219858811E-02
(PID.TID 0000.0001) %MON ke_mean                      =   2.6552273675981E-04
(PID.TID 0000.0001) %MON ke_vol                       =   1.3226782436723E+18
(PID.TID 0000.0001) %MON vort_r_min                   =  -3.4630548586592E-07
(PID.TID 0000.0001) %MON vort_r_max                   =   6.1824625278259E-07
(PID.TID 0000.0001) %MON vort_a_mean                  =  -2.5205769776136E-05
(PID.TID 0000.0001) %MON vort_a_sd                    =   7.3401327977637E-05
(PID.TID 0000.0001) %MON vort_p_mean                  =  -3.1758670039658E-05
(PID.TID 0000.0001) %MON vort_p_sd                    =   1.3126004616976E-04
(PID.TID 0000.0001) %MON surfExpan_theta_mean         =   1.1560064273194E-04
(PID.TID 0000.0001) %MON surfExpan_salt_mean          =   7.4140542589065E-06
(PID.TID 0000.0001) // =======================================================
(PID.TID 0000.0001) // End MONITOR dynamic field statistics
(PID.TID 0000.0001) // =======================================================
(PID.TID 0000.0001) // =======================================================
(PID.TID 0000.0001) // Begin MONITOR ptracer field statistics
(PID.TID 0000.0001) // =======================================================
(PID.TID 0000.0001) %MON trcstat_ptracer01_max        =   3.7430055194304E+01
(PID.TID 0000.0001) %MON trcstat_ptracer01_min        =   2.9787362383862E+01
(PID.TID 0000.0001) %MON trcstat_ptracer01_mean       =   3.4716365508734E+01
(PID.TID 0000.0001) %MON trcstat_ptracer01_sd         =   2.9606307785150E-01
(PID.TID 0000.0001) %MON trcstat_ptracer01_del2       =   2.6046702219816E-02
(PID.TID 0000.0001) // =======================================================
(PID.TID 0000.0001) // End MONITOR ptracers field statistics
(PID.TID 0000.0001) // =======================================================
time,SST,SSS,fu,fv,Q,E-P,i0,i1,a,b =   6.0480E+05  4.7561E-01  3.4527E+01 -3.8229E-02 -6.0721E-02  2.6541E+02  0.0000E+00    12     1  7.3333E-01  2.6667E-01
time,fu0,fu1,fu =   6.0480E+05 -4.5368E-02 -3.5633E-02 -3.8229E-02  7.333333333333333E-01  2.666666666666667E-01
 cg2d: Sum(rhs),rhsMax =  -9.14823772291129E-13  9.75443545754971E+00
(PID.TID 0000.0001)                    cg2d_init_res =    8.90307658468308E-01
(PID.TID 0000.0001)                       cg2d_iters =    25
(PID.TID 0000.0001)                         cg2d_res =    5.29375603969345E-14
(PID.TID 0000.0001) // =======================================================
(PID.TID 0000.0001) // Begin MONITOR dynamic field statistics
(PID.TID 0000.0001) // =======================================================
(PID.TID 0000.0001) %MON time_tsnumber                =                    15
(PID.TID 0000.0001) %MON time_secondsf                =   6.4800000000000E+05
(PID.TID 0000.0001) %MON dynstat_eta_max              =   1.1768567907796E+00
(PID.TID 0000.0001) %MON dynstat_eta_min              =  -1.1927252044993E+00
(PID.TID 0000.0001) %MON dynstat_eta_mean             =   6.0949295128868E-16
(PID.TID 0000.0001) %MON dynstat_eta_sd               =   3.6011066532174E-01
(PID.TID 0000.0001) %MON dynstat_eta_del2             =   2.1638053418383E-02
(PID.TID 0000.0001) %MON dynstat_uvel_max             =   1.4990675145107E-01
(PID.TID 0000.0001) %MON dynstat_uvel_min             =  -1.3081806396305E-01
(PID.TID 0000.0001) %MON dynstat_uvel_mean            =  -1.0385366889585E-02
(PID.TID 0000.0001) %MON dynstat_uvel_sd              =   1.6540004407194E-02
(PID.TID 0000.0001) %MON dynstat_uvel_del2            =   3.5126310105301E-03
(PID.TID 0000.0001) %MON dynstat_vvel_max             =   1.3650262361992E-01
(PID.TID 0000.0001) %MON dynstat_vvel_min             =  -1.0648131918334E-01
(PID.TID 0000.0001) %MON dynstat_vvel_mean            =   3.8044923264411E-03
(PID.TID 0000.0001) %MON dynstat_vvel_sd              =   1.4409662354214E-02
(PID.TID 0000.0001) %MON dynstat_vvel_del2            =   3.4858126944203E-03
(PID.TID 0000.0001) %MON dynstat_wvel_max             =   2.5395692167851E-04
(PID.TID 0000.0001) %MON dynstat_wvel_min             =  -3.6421480751404E-04
(PID.TID 0000.0001) %MON dynstat_wvel_mean            =  -6.1067263484425E-22
(PID.TID 0000.0001) %MON dynstat_wvel_sd              =   3.3445631023026E-05
(PID.TID 0000.0001) %MON dynstat_wvel_del2            =   1.1345397441890E-05
(PID.TID 0000.0001) %MON dynstat_theta_max            =   2.9547494857542E+01
(PID.TID 0000.0001) %MON dynstat_theta_min            =  -1.8999339654363E+00
(PID.TID 0000.0001) %MON dynstat_theta_mean           =   3.5980259368001E+00
(PID.TID 0000.0001) %MON dynstat_theta_sd             =   4.3661452666626E+00
(PID.TID 0000.0001) %MON dynstat_theta_del2           =   1.4119966971260E-01
(PID.TID 0000.0001) %MON dynstat_salt_max             =   3.7428378067861E+01
(PID.TID 0000.0001) %MON dynstat_salt_min             =   2.9787755613658E+01
(PID.TID 0000.0001) %MON dynstat_salt_mean            =   3.4716291420354E+01
(PID.TID 0000.0001) %MON dynstat_salt_sd              =   2.9602758142014E-01
(PID.TID 0000.0001) %MON dynstat_salt_del2            =   2.6036557356328E-02
(PID.TID 0000.0001) %MON advcfl_uvel_max              =   2.7840683499887E-02
(PID.TID 0000.0001) %MON advcfl_vvel_max              =   1.3260135265236E-02
(PID.TID 0000.0001) %MON advcfl_wvel_max              =   1.5766817319497E-01
(PID.TID 0000.0001) %MON advcfl_W_hf_max              =   1.3993513242483E-01
(PID.TID 0000.0001) %MON pe_b_mean                    =   1.6594079565109E-04
(PID.TID 0000.0001) %MON ke_max                       =   1.1414831498848E-02
(PID.TID 0000.0001) %MON ke_mean                      =   2.7300437920727E-04
(PID.TID 0000.0001) %MON ke_vol                       =   1.3226782436723E+18
(PID.TID 0000.0001) %MON vort_r_min                   =  -3.7032579520323E-07
(PID.TID 0000.0001) %MON vort_r_max                   =   5.9960188488062E-07
(PID.TID 0000.0001) %MON vort_a_mean                  =  -2.5205769754510E-05
(PID.TID 0000.0001) %MON vort_a_sd                    =   7.3401278029226E-05
(PID.TID 0000.0001) %MON vort_p_mean                  =  -3.1758670012410E-05
(PID.TID 0000.0001) %MON vort_p_sd                    =   1.3125982732331E-04
(PID.TID 0000.0001) %MON surfExpan_theta_mean         =   1.0138486356405E-04
(PID.TID 0000.0001) %MON surfExpan_salt_mean          =   6.0011301221911E-06
(PID.TID 0000.0001) // =======================================================
(PID.TID 0000.0001) // End MONITOR dynamic field statistics
(PID.TID 0000.0001) // =======================================================
(PID.TID 0000.0001) // =======================================================
(PID.TID 0000.0001) // Begin MONITOR ptracer field statistics
(PID.TID 0000.0001) // =======================================================
(PID.TID 0000.0001) %MON trcstat_ptracer01_max        =   3.7428378067861E+01
(PID.TID 0000.0001) %MON trcstat_ptracer01_min        =   2.9787755613658E+01
(PID.TID 0000.0001) %MON trcstat_ptracer01_mean       =   3.4716291420354E+01
(PID.TID 0000.0001) %MON trcstat_ptracer01_sd         =   2.9602758142014E-01
(PID.TID 0000.0001) %MON trcstat_ptracer01_del2       =   2.6036557356328E-02
(PID.TID 0000.0001) // =======================================================
(PID.TID 0000.0001) // End MONITOR ptracers field statistics
(PID.TID 0000.0001) // =======================================================
time,SST,SSS,fu,fv,Q,E-P,i0,i1,a,b =   6.4800E+05  5.0579E-01  3.4539E+01 -3.8067E-02 -6.0505E-02  2.6543E+02  0.0000E+00    12     1  7.5000E-01  2.5000E-01
time,fu0,fu1,fu =   6.4800E+05 -4.5368E-02 -3.5633E-02 -3.8067E-02  7.500000000000000E-01  2.500000000000000E-01
 cg2d: Sum(rhs),rhsMax =  -7.88702436693711E-13  1.00476150743017E+01
(PID.TID 0000.0001)                    cg2d_init_res =    8.45059255103922E-01
(PID.TID 0000.0001)                       cg2d_iters =    25
(PID.TID 0000.0001)                         cg2d_res =    4.55971926362511E-14
(PID.TID 0000.0001) // =======================================================
(PID.TID 0000.0001) // Begin MONITOR dynamic field statistics
(PID.TID 0000.0001) // =======================================================
(PID.TID 0000.0001) %MON time_tsnumber                =                    16
(PID.TID 0000.0001) %MON time_secondsf                =   6.9120000000000E+05
(PID.TID 0000.0001) %MON dynstat_eta_max              =   1.2111723818326E+00
(PID.TID 0000.0001) %MON dynstat_eta_min              =  -1.1859734837768E+00
(PID.TID 0000.0001) %MON dynstat_eta_mean             =   5.9409714122641E-16
(PID.TID 0000.0001) %MON dynstat_eta_sd               =   3.6865114161243E-01
(PID.TID 0000.0001) %MON dynstat_eta_del2             =   2.1157891040856E-02
(PID.TID 0000.0001) %MON dynstat_uvel_max             =   1.5880806611887E-01
(PID.TID 0000.0001) %MON dynstat_uvel_min             =  -1.3182532606245E-01
(PID.TID 0000.0001) %MON dynstat_uvel_mean            =  -1.0451305856551E-02
(PID.TID 0000.0001) %MON dynstat_uvel_sd              =   1.7153793623574E-02
(PID.TID 0000.0001) %MON dynstat_uvel_del2            =   3.5710127715518E-03
(PID.TID 0000.0001) %MON dynstat_vvel_max             =   1.4663806889624E-01
(PID.TID 0000.0001) %MON dynstat_vvel_min             =  -1.0858656297831E-01
(PID.TID 0000.0001) %MON dynstat_vvel_mean            =   3.4308296497916E-03
(PID.TID 0000.0001) %MON dynstat_vvel_sd              =   1.4142447753954E-02
(PID.TID 0000.0001) %MON dynstat_vvel_del2            =   3.4717936075455E-03
(PID.TID 0000.0001) %MON dynstat_wvel_max             =   2.6154501321976E-04
(PID.TID 0000.0001) %MON dynstat_wvel_min             =  -3.5648385128425E-04
(PID.TID 0000.0001) %MON dynstat_wvel_mean            =   1.8320179045327E-21
(PID.TID 0000.0001) %MON dynstat_wvel_sd              =   3.2257578584209E-05
(PID.TID 0000.0001) %MON dynstat_wvel_del2            =   1.0809351260986E-05
(PID.TID 0000.0001) %MON dynstat_theta_max            =   2.9524566628120E+01
(PID.TID 0000.0001) %MON dynstat_theta_min            =  -1.8999331768215E+00
(PID.TID 0000.0001) %MON dynstat_theta_mean           =   3.5970186877015E+00
(PID.TID 0000.0001) %MON dynstat_theta_sd             =   4.3627800460941E+00
(PID.TID 0000.0001) %MON dynstat_theta_del2           =   1.4084566428998E-01
(PID.TID 0000.0001) %MON dynstat_salt_max             =   3.7426758091887E+01
(PID.TID 0000.0001) %MON dynstat_salt_min             =   2.9787836872461E+01
(PID.TID 0000.0001) %MON dynstat_salt_mean            =   3.4716233355827E+01
(PID.TID 0000.0001) %MON dynstat_salt_sd              =   2.9599056476100E-01
(PID.TID 0000.0001) %MON dynstat_salt_del2            =   2.6030771602335E-02
(PID.TID 0000.0001) %MON advcfl_uvel_max              =   2.7280343454561E-02
(PID.TID 0000.0001) %MON advcfl_vvel_max              =   1.4244712497330E-02
(PID.TID 0000.0001) %MON advcfl_wvel_max              =   1.6533571605100E-01
(PID.TID 0000.0001) %MON advcfl_W_hf_max              =   1.3743689814316E-01
(PID.TID 0000.0001) %MON pe_b_mean                    =   1.7390511921281E-04
(PID.TID 0000.0001) %MON ke_max                       =   1.2324298106787E-02
(PID.TID 0000.0001) %MON ke_mean                      =   2.7838523977140E-04
(PID.TID 0000.0001) %MON ke_vol                       =   1.3226782436723E+18
(PID.TID 0000.0001) %MON vort_r_min                   =  -3.9090702685023E-07
(PID.TID 0000.0001) %MON vort_r_max                   =   5.6518289623940E-07
(PID.TID 0000.0001) %MON vort_a_mean                  =  -2.5205769712114E-05
(PID.TID 0000.0001) %MON vort_a_sd                    =   7.3401255064266E-05
(PID.TID 0000.0001) %MON vort_p_mean                  =  -3.1758669958991E-05
(PID.TID 0000.0001) %MON vort_p_sd                    =   1.3125972271041E-04
(PID.TID 0000.0001) %MON surfExpan_theta_mean         =   8.6880083647767E-05
(PID.TID 0000.0001) %MON surfExpan_salt_mean          =   4.6080646681158E-06
(PID.TID 0000.0001) // =======================================================
(PID.TID 0000.0001) // End MONITOR dynamic field statistics
(PID.TID 0000.0001) // =======================================================
(PID.TID 0000.0001) // =======================================================
(PID.TID 0000.0001) // Begin MONITOR ptracer field statistics
(PID.TID 0000.0001) // =======================================================
(PID.TID 0000.0001) %MON trcstat_ptracer01_max        =   3.7426758091887E+01
(PID.TID 0000.0001) %MON trcstat_ptracer01_min        =   2.9787836872461E+01
(PID.TID 0000.0001) %MON trcstat_ptracer01_mean       =   3.4716233355827E+01
(PID.TID 0000.0001) %MON trcstat_ptracer01_sd         =   2.9599056476100E-01
(PID.TID 0000.0001) %MON trcstat_ptracer01_del2       =   2.6030771602335E-02
(PID.TID 0000.0001) // =======================================================
(PID.TID 0000.0001) // End MONITOR ptracers field statistics
(PID.TID 0000.0001) // =======================================================
time,SST,SSS,fu,fv,Q,E-P,i0,i1,a,b =   6.9120E+05  5.3596E-01  3.4551E+01 -3.7904E-02 -6.0288E-02  2.6546E+02  0.0000E+00    12     1  7.6667E-01  2.3333E-01
time,fu0,fu1,fu =   6.9120E+05 -4.5368E-02 -3.5633E-02 -3.7904E-02  7.666666666666667E-01  2.333333333333333E-01
 cg2d: Sum(rhs),rhsMax =  -7.42517158869305E-13  1.01286648738990E+01
(PID.TID 0000.0001)                    cg2d_init_res =    8.22916928315459E-01
(PID.TID 0000.0001)                       cg2d_iters =    24
(PID.TID 0000.0001)                         cg2d_res =    6.86192108099964E-14
(PID.TID 0000.0001) // =======================================================
(PID.TID 0000.0001) // Begin MONITOR dynamic field statistics
(PID.TID 0000.0001) // =======================================================
(PID.TID 0000.0001) %MON time_tsnumber                =                    17
(PID.TID 0000.0001) %MON time_secondsf                =   7.3440000000000E+05
(PID.TID 0000.0001) %MON dynstat_eta_max              =   1.2207667842228E+00
(PID.TID 0000.0001) %MON dynstat_eta_min              =  -1.1613574078967E+00
(PID.TID 0000.0001) %MON dynstat_eta_mean             =   5.3341953686335E-16
(PID.TID 0000.0001) %MON dynstat_eta_sd               =   3.7494162455352E-01
(PID.TID 0000.0001) %MON dynstat_eta_del2             =   2.0713136397971E-02
(PID.TID 0000.0001) %MON dynstat_uvel_max             =   1.6666193320039E-01
(PID.TID 0000.0001) %MON dynstat_uvel_min             =  -1.2973968637044E-01
(PID.TID 0000.0001) %MON dynstat_uvel_mean            =  -1.0376163336426E-02
(PID.TID 0000.0001) %MON dynstat_uvel_sd              =   1.7654210233784E-02
(PID.TID 0000.0001) %MON dynstat_uvel_del2            =   3.6171350870550E-03
(PID.TID 0000.0001) %MON dynstat_vvel_max             =   1.5289778616282E-01
(PID.TID 0000.0001) %MON dynstat_vvel_min             =  -1.0897837851709E-01
(PID.TID 0000.0001) %MON dynstat_vvel_mean            =   3.0723489599094E-03
(PID.TID 0000.0001) %MON dynstat_vvel_sd              =   1.3929874181155E-02
(PID.TID 0000.0001) %MON dynstat_vvel_del2            =   3.4510578524836E-03
(PID.TID 0000.0001) %MON dynstat_wvel_max             =   2.6686239685994E-04
(PID.TID 0000.0001) %MON dynstat_wvel_min             =  -3.4578407607290E-04
(PID.TID 0000.0001) %MON dynstat_wvel_mean            =  -1.9729423587276E-21
(PID.TID 0000.0001) %MON dynstat_wvel_sd              =   3.1050444306182E-05
(PID.TID 0000.0001) %MON dynstat_wvel_del2            =   1.0258437191764E-05
(PID.TID 0000.0001) %MON dynstat_theta_max            =   2.9488906821596E+01
(PID.TID 0000.0001) %MON dynstat_theta_min            =  -1.8999323850757E+00
(PID.TID 0000.0001) %MON dynstat_theta_mean           =   3.5961771133577E+00
(PID.TID 0000.0001) %MON dynstat_theta_sd             =   4.3597130076100E+00
(PID.TID 0000.0001) %MON dynstat_theta_del2           =   1.4054614343049E-01
(PID.TID 0000.0001) %MON dynstat_salt_max             =   3.7425203102311E+01
(PID.TID 0000.0001) %MON dynstat_salt_min             =   2.9787687884472E+01
(PID.TID 0000.0001) %MON dynstat_salt_mean            =   3.4716190835822E+01
(PID.TID 0000.0001) %MON dynstat_salt_sd              =   2.9595392223574E-01
(PID.TID 0000.0001) %MON dynstat_salt_del2            =   2.6029900123389E-02
(PID.TID 0000.0001) %MON advcfl_uvel_max              =   2.5035989967379E-02
(PID.TID 0000.0001) %MON advcfl_vvel_max              =   1.4852793832881E-02
(PID.TID 0000.0001) %MON advcfl_wvel_max              =   1.7353377181860E-01
(PID.TID 0000.0001) %MON advcfl_W_hf_max              =   1.4545134131405E-01
(PID.TID 0000.0001) %MON pe_b_mean                    =   1.7989061797495E-04
(PID.TID 0000.0001) %MON ke_max                       =   1.3144055227234E-02
(PID.TID 0000.0001) %MON ke_mean                      =   2.8186206400331E-04
(PID.TID 0000.0001) %MON ke_vol                       =   1.3226782436723E+18
(PID.TID 0000.0001) %MON vort_r_min                   =  -4.1887343414662E-07
(PID.TID 0000.0001) %MON vort_r_max                   =   5.1664026864703E-07
(PID.TID 0000.0001) %MON vort_a_mean                  =  -2.5205769655809E-05
(PID.TID 0000.0001) %MON vort_a_sd                    =   7.3401258310885E-05
(PID.TID 0000.0001) %MON vort_p_mean                  =  -3.1758669888048E-05
(PID.TID 0000.0001) %MON vort_p_sd                    =   1.3125972849789E-04
(PID.TID 0000.0001) %MON surfExpan_theta_mean         =   7.2432662181783E-05
(PID.TID 0000.0001) %MON surfExpan_salt_mean          =   3.2619484181904E-06
(PID.TID 0000.0001) // =======================================================
(PID.TID 0000.0001) // End MONITOR dynamic field statistics
(PID.TID 0000.0001) // =======================================================
(PID.TID 0000.0001) // =======================================================
(PID.TID 0000.0001) // Begin MONITOR ptracer field statistics
(PID.TID 0000.0001) // =======================================================
(PID.TID 0000.0001) %MON trcstat_ptracer01_max        =   3.7425203102311E+01
(PID.TID 0000.0001) %MON trcstat_ptracer01_min        =   2.9787687884472E+01
(PID.TID 0000.0001) %MON trcstat_ptracer01_mean       =   3.4716190835822E+01
(PID.TID 0000.0001) %MON trcstat_ptracer01_sd         =   2.9595392223574E-01
(PID.TID 0000.0001) %MON trcstat_ptracer01_del2       =   2.6029900123389E-02
(PID.TID 0000.0001) // =======================================================
(PID.TID 0000.0001) // End MONITOR ptracers field statistics
(PID.TID 0000.0001) // =======================================================
time,SST,SSS,fu,fv,Q,E-P,i0,i1,a,b =   7.3440E+05  5.6614E-01  3.4563E+01 -3.7742E-02 -6.0072E-02  2.6548E+02  0.0000E+00    12     1  7.8333E-01  2.1667E-01
time,fu0,fu1,fu =   7.3440E+05 -4.5368E-02 -3.5633E-02 -3.7742E-02  7.833333333333333E-01  2.166666666666667E-01
 cg2d: Sum(rhs),rhsMax =  -6.82121026329696E-13  1.00070274428507E+01
(PID.TID 0000.0001)                    cg2d_init_res =    8.19460777951743E-01
(PID.TID 0000.0001)                       cg2d_iters =    25
(PID.TID 0000.0001)                         cg2d_res =    3.14831155957182E-14
(PID.TID 0000.0001) // =======================================================
(PID.TID 0000.0001) // Begin MONITOR dynamic field statistics
(PID.TID 0000.0001) // =======================================================
(PID.TID 0000.0001) %MON time_tsnumber                =                    18
(PID.TID 0000.0001) %MON time_secondsf                =   7.7760000000000E+05
(PID.TID 0000.0001) %MON dynstat_eta_max              =   1.2068572329888E+00
(PID.TID 0000.0001) %MON dynstat_eta_min              =  -1.1697090347003E+00
(PID.TID 0000.0001) %MON dynstat_eta_mean             =   5.8504078236625E-16
(PID.TID 0000.0001) %MON dynstat_eta_sd               =   3.7919902949532E-01
(PID.TID 0000.0001) %MON dynstat_eta_del2             =   2.0337213113405E-02
(PID.TID 0000.0001) %MON dynstat_uvel_max             =   1.7332385155662E-01
(PID.TID 0000.0001) %MON dynstat_uvel_min             =  -1.3304687327859E-01
(PID.TID 0000.0001) %MON dynstat_uvel_mean            =  -1.0170789289076E-02
(PID.TID 0000.0001) %MON dynstat_uvel_sd              =   1.8048708546801E-02
(PID.TID 0000.0001) %MON dynstat_uvel_del2            =   3.6519438269582E-03
(PID.TID 0000.0001) %MON dynstat_vvel_max             =   1.5465695952240E-01
(PID.TID 0000.0001) %MON dynstat_vvel_min             =  -1.1944724960815E-01
(PID.TID 0000.0001) %MON dynstat_vvel_mean            =   2.7472949595247E-03
(PID.TID 0000.0001) %MON dynstat_vvel_sd              =   1.3779678035029E-02
(PID.TID 0000.0001) %MON dynstat_vvel_del2            =   3.4294065171176E-03
(PID.TID 0000.0001) %MON dynstat_wvel_max             =   2.6990943942845E-04
(PID.TID 0000.0001) %MON dynstat_wvel_min             =  -3.3147364373031E-04
(PID.TID 0000.0001) %MON dynstat_wvel_mean            =   6.5764745290919E-22
(PID.TID 0000.0001) %MON dynstat_wvel_sd              =   2.9887402022580E-05
(PID.TID 0000.0001) %MON dynstat_wvel_del2            =   9.7182805174549E-06
(PID.TID 0000.0001) %MON dynstat_theta_max            =   2.9451293361462E+01
(PID.TID 0000.0001) %MON dynstat_theta_min            =  -1.8999316526784E+00
(PID.TID 0000.0001) %MON dynstat_theta_mean           =   3.5954982341344E+00
(PID.TID 0000.0001) %MON dynstat_theta_sd             =   4.3569746256944E+00
(PID.TID 0000.0001) %MON dynstat_theta_del2           =   1.4029708495052E-01
(PID.TID 0000.0001) %MON dynstat_salt_max             =   3.7423719023789E+01
(PID.TID 0000.0001) %MON dynstat_salt_min             =   2.9787400011506E+01
(PID.TID 0000.0001) %MON dynstat_salt_mean            =   3.4716163147726E+01
(PID.TID 0000.0001) %MON dynstat_salt_sd              =   2.9591878487219E-01
(PID.TID 0000.0001) %MON dynstat_salt_del2            =   2.6034509788307E-02
(PID.TID 0000.0001) %MON advcfl_uvel_max              =   2.4237845543288E-02
(PID.TID 0000.0001) %MON advcfl_vvel_max              =   1.5023683417889E-02
(PID.TID 0000.0001) %MON advcfl_wvel_max              =   1.7648284312041E-01
(PID.TID 0000.0001) %MON advcfl_W_hf_max              =   1.4756535315980E-01
(PID.TID 0000.0001) %MON pe_b_mean                    =   1.8399907277510E-04
(PID.TID 0000.0001) %MON ke_max                       =   1.3869360910992E-02
(PID.TID 0000.0001) %MON ke_mean                      =   2.8362613975714E-04
(PID.TID 0000.0001) %MON ke_vol                       =   1.3226782436723E+18
(PID.TID 0000.0001) %MON vort_r_min                   =  -4.5079751248624E-07
(PID.TID 0000.0001) %MON vort_r_max                   =   4.5615607552061E-07
(PID.TID 0000.0001) %MON vort_a_mean                  =  -2.5205769593230E-05
(PID.TID 0000.0001) %MON vort_a_sd                    =   7.3401286184755E-05
(PID.TID 0000.0001) %MON vort_p_mean                  =  -3.1758669809201E-05
(PID.TID 0000.0001) %MON vort_p_sd                    =   1.3125983471113E-04
(PID.TID 0000.0001) %MON surfExpan_theta_mean         =   5.8374995519401E-05
(PID.TID 0000.0001) %MON surfExpan_salt_mean          =   1.9888761469505E-06
(PID.TID 0000.0001) // =======================================================
(PID.TID 0000.0001) // End MONITOR dynamic field statistics
(PID.TID 0000.0001) // =======================================================
(PID.TID 0000.0001) // =======================================================
(PID.TID 0000.0001) // Begin MONITOR ptracer field statistics
(PID.TID 0000.0001) // =======================================================
(PID.TID 0000.0001) %MON trcstat_ptracer01_max        =   3.7423719023789E+01
(PID.TID 0000.0001) %MON trcstat_ptracer01_min        =   2.9787400011506E+01
(PID.TID 0000.0001) %MON trcstat_ptracer01_mean       =   3.4716163147726E+01
(PID.TID 0000.0001) %MON trcstat_ptracer01_sd         =   2.9591878487219E-01
(PID.TID 0000.0001) %MON trcstat_ptracer01_del2       =   2.6034509788307E-02
(PID.TID 0000.0001) // =======================================================
(PID.TID 0000.0001) // End MONITOR ptracers field statistics
(PID.TID 0000.0001) // =======================================================
time,SST,SSS,fu,fv,Q,E-P,i0,i1,a,b =   7.7760E+05  5.9632E-01  3.4574E+01 -3.7580E-02 -5.9855E-02  2.6550E+02  0.0000E+00    12     1  8.0000E-01  2.0000E-01
time,fu0,fu1,fu =   7.7760E+05 -4.5368E-02 -3.5633E-02 -3.7580E-02  8.000000000000000E-01  2.000000000000000E-01
 cg2d: Sum(rhs),rhsMax =  -7.67386154620908E-13  9.70453620376475E+00
(PID.TID 0000.0001)                    cg2d_init_res =    8.31619542931350E-01
(PID.TID 0000.0001)                       cg2d_iters =    25
(PID.TID 0000.0001)                         cg2d_res =    3.02222528365113E-14
(PID.TID 0000.0001) // =======================================================
(PID.TID 0000.0001) // Begin MONITOR dynamic field statistics
(PID.TID 0000.0001) // =======================================================
(PID.TID 0000.0001) %MON time_tsnumber                =                    19
(PID.TID 0000.0001) %MON time_secondsf                =   8.2080000000000E+05
(PID.TID 0000.0001) %MON dynstat_eta_max              =   1.1720381947397E+00
(PID.TID 0000.0001) %MON dynstat_eta_min              =  -1.1424939597897E+00
(PID.TID 0000.0001) %MON dynstat_eta_mean             =   5.9771968477047E-16
(PID.TID 0000.0001) %MON dynstat_eta_sd               =   3.8167609152111E-01
(PID.TID 0000.0001) %MON dynstat_eta_del2             =   2.0066467348981E-02
(PID.TID 0000.0001) %MON dynstat_uvel_max             =   1.7867381295896E-01
(PID.TID 0000.0001) %MON dynstat_uvel_min             =  -1.3883446445382E-01
(PID.TID 0000.0001) %MON dynstat_uvel_mean            =  -9.8494693053794E-03
(PID.TID 0000.0001) %MON dynstat_uvel_sd              =   1.8346111414424E-02
(PID.TID 0000.0001) %MON dynstat_uvel_del2            =   3.6770883929580E-03
(PID.TID 0000.0001) %MON dynstat_vvel_max             =   1.5151211820605E-01
(PID.TID 0000.0001) %MON dynstat_vvel_min             =  -1.3310072177939E-01
(PID.TID 0000.0001) %MON dynstat_vvel_mean            =   2.4703925661003E-03
(PID.TID 0000.0001) %MON dynstat_vvel_sd              =   1.3689805339115E-02
(PID.TID 0000.0001) %MON dynstat_vvel_del2            =   3.4086002004635E-03
(PID.TID 0000.0001) %MON dynstat_wvel_max             =   2.7083182382840E-04
(PID.TID 0000.0001) %MON dynstat_wvel_min             =  -3.1415667905848E-04
(PID.TID 0000.0001) %MON dynstat_wvel_mean            =   1.5971438142080E-21
(PID.TID 0000.0001) %MON dynstat_wvel_sd              =   2.8823952631745E-05
(PID.TID 0000.0001) %MON dynstat_wvel_del2            =   9.2658493512671E-06
(PID.TID 0000.0001) %MON dynstat_theta_max            =   2.9442189970864E+01
(PID.TID 0000.0001) %MON dynstat_theta_min            =  -1.8999310280596E+00
(PID.TID 0000.0001) %MON dynstat_theta_mean           =   3.5949754080489E+00
(PID.TID 0000.0001) %MON dynstat_theta_sd             =   4.3545887277325E+00
(PID.TID 0000.0001) %MON dynstat_theta_del2           =   1.4007722568630E-01
(PID.TID 0000.0001) %MON dynstat_salt_max             =   3.7422302785038E+01
(PID.TID 0000.0001) %MON dynstat_salt_min             =   2.9787069188126E+01
(PID.TID 0000.0001) %MON dynstat_salt_mean            =   3.4716149288502E+01
(PID.TID 0000.0001) %MON dynstat_salt_sd              =   2.9588614580256E-01
(PID.TID 0000.0001) %MON dynstat_salt_del2            =   2.6042547594923E-02
(PID.TID 0000.0001) %MON advcfl_uvel_max              =   2.4985991496472E-02
(PID.TID 0000.0001) %MON advcfl_vvel_max              =   1.4718187302602E-02
(PID.TID 0000.0001) %MON advcfl_wvel_max              =   1.7355404554142E-01
(PID.TID 0000.0001) %MON advcfl_W_hf_max              =   1.5173770158673E-01
(PID.TID 0000.0001) %MON pe_b_mean                    =   1.8641081821195E-04
(PID.TID 0000.0001) %MON ke_max                       =   1.4505217786241E-02
(PID.TID 0000.0001) %MON ke_mean                      =   2.8386408147035E-04
(PID.TID 0000.0001) %MON ke_vol                       =   1.3226782436723E+18
(PID.TID 0000.0001) %MON vort_r_min                   =  -4.7102461183327E-07
(PID.TID 0000.0001) %MON vort_r_max                   =   4.0336891308153E-07
(PID.TID 0000.0001) %MON vort_a_mean                  =  -2.5205769531696E-05
(PID.TID 0000.0001) %MON vort_a_sd                    =   7.3401336457548E-05
(PID.TID 0000.0001) %MON vort_p_mean                  =  -3.1758669731669E-05
(PID.TID 0000.0001) %MON vort_p_sd                    =   1.3126002695608E-04
(PID.TID 0000.0001) %MON surfExpan_theta_mean         =   4.5011316321671E-05
(PID.TID 0000.0001) %MON surfExpan_salt_mean          =   8.1093791291303E-07
(PID.TID 0000.0001) // =======================================================
(PID.TID 0000.0001) // End MONITOR dynamic field statistics
(PID.TID 0000.0001) // =======================================================
(PID.TID 0000.0001) // =======================================================
(PID.TID 0000.0001) // Begin MONITOR ptracer field statistics
(PID.TID 0000.0001) // =======================================================
(PID.TID 0000.0001) %MON trcstat_ptracer01_max        =   3.7422302785038E+01
(PID.TID 0000.0001) %MON trcstat_ptracer01_min        =   2.9787069188126E+01
(PID.TID 0000.0001) %MON trcstat_ptracer01_mean       =   3.4716149288502E+01
(PID.TID 0000.0001) %MON trcstat_ptracer01_sd         =   2.9588614580256E-01
(PID.TID 0000.0001) %MON trcstat_ptracer01_del2       =   2.6042547594923E-02
(PID.TID 0000.0001) // =======================================================
(PID.TID 0000.0001) // End MONITOR ptracers field statistics
(PID.TID 0000.0001) // =======================================================
time,SST,SSS,fu,fv,Q,E-P,i0,i1,a,b =   8.2080E+05  6.2649E-01  3.4586E+01 -3.7418E-02 -5.9638E-02  2.6552E+02  0.0000E+00    12     1  8.1667E-01  1.8333E-01
time,fu0,fu1,fu =   8.2080E+05 -4.5368E-02 -3.5633E-02 -3.7418E-02  8.166666666666667E-01  1.833333333333333E-01
 cg2d: Sum(rhs),rhsMax =  -1.15463194561016E-12  9.47668505019467E+00
(PID.TID 0000.0001)                    cg2d_init_res =    8.36969270446218E-01
(PID.TID 0000.0001)                       cg2d_iters =    25
(PID.TID 0000.0001)                         cg2d_res =    3.44314368165042E-14
(PID.TID 0000.0001) // =======================================================
(PID.TID 0000.0001) // Begin MONITOR dynamic field statistics
(PID.TID 0000.0001) // =======================================================
(PID.TID 0000.0001) %MON time_tsnumber                =                    20
(PID.TID 0000.0001) %MON time_secondsf                =   8.6400000000000E+05
(PID.TID 0000.0001) %MON dynstat_eta_max              =   1.1373026525092E+00
(PID.TID 0000.0001) %MON dynstat_eta_min              =  -1.0844856642367E+00
(PID.TID 0000.0001) %MON dynstat_eta_mean             =   4.9447719376466E-16
(PID.TID 0000.0001) %MON dynstat_eta_sd               =   3.8264364909767E-01
(PID.TID 0000.0001) %MON dynstat_eta_del2             =   1.9985026928121E-02
(PID.TID 0000.0001) %MON dynstat_uvel_max             =   1.8261917183397E-01
(PID.TID 0000.0001) %MON dynstat_uvel_min             =  -1.4414704110455E-01
(PID.TID 0000.0001) %MON dynstat_uvel_mean            =  -9.4288897525723E-03
(PID.TID 0000.0001) %MON dynstat_uvel_sd              =   1.8555436065683E-02
(PID.TID 0000.0001) %MON dynstat_uvel_del2            =   3.6925805824177E-03
(PID.TID 0000.0001) %MON dynstat_vvel_max             =   1.4331403833366E-01
(PID.TID 0000.0001) %MON dynstat_vvel_min             =  -1.4410939814343E-01
(PID.TID 0000.0001) %MON dynstat_vvel_mean            =   2.2524495793743E-03
(PID.TID 0000.0001) %MON dynstat_vvel_sd              =   1.3651853470910E-02
(PID.TID 0000.0001) %MON dynstat_vvel_del2            =   3.3928270893156E-03
(PID.TID 0000.0001) %MON dynstat_wvel_max             =   2.6988303286329E-04
(PID.TID 0000.0001) %MON dynstat_wvel_min             =  -2.9427264292870E-04
(PID.TID 0000.0001) %MON dynstat_wvel_mean            =  -2.0668919948575E-21
(PID.TID 0000.0001) %MON dynstat_wvel_sd              =   2.7903707717479E-05
(PID.TID 0000.0001) %MON dynstat_wvel_del2            =   8.9355307119808E-06
(PID.TID 0000.0001) %MON dynstat_theta_max            =   2.9430073689724E+01
(PID.TID 0000.0001) %MON dynstat_theta_min            =  -1.8999519429618E+00
(PID.TID 0000.0001) %MON dynstat_theta_mean           =   3.5945987176755E+00
(PID.TID 0000.0001) %MON dynstat_theta_sd             =   4.3525715291238E+00
(PID.TID 0000.0001) %MON dynstat_theta_del2           =   1.3988661238576E-01
(PID.TID 0000.0001) %MON dynstat_salt_max             =   3.7420944186328E+01
(PID.TID 0000.0001) %MON dynstat_salt_min             =   2.9786790936305E+01
(PID.TID 0000.0001) %MON dynstat_salt_mean            =   3.4716148034546E+01
(PID.TID 0000.0001) %MON dynstat_salt_sd              =   2.9585660847731E-01
(PID.TID 0000.0001) %MON dynstat_salt_del2            =   2.6052500782948E-02
(PID.TID 0000.0001) %MON advcfl_uvel_max              =   2.5537715902355E-02
(PID.TID 0000.0001) %MON advcfl_vvel_max              =   1.3999072411196E-02
(PID.TID 0000.0001) %MON advcfl_wvel_max              =   1.6440737622688E-01
(PID.TID 0000.0001) %MON advcfl_W_hf_max              =   1.4609531052563E-01
(PID.TID 0000.0001) %MON pe_b_mean                    =   1.8735712748274E-04
(PID.TID 0000.0001) %MON ke_max                       =   1.5268288808481E-02
(PID.TID 0000.0001) %MON ke_mean                      =   2.8276181305195E-04
(PID.TID 0000.0001) %MON ke_vol                       =   1.3226782436723E+18
(PID.TID 0000.0001) %MON vort_r_min                   =  -4.7830215343190E-07
(PID.TID 0000.0001) %MON vort_r_max                   =   4.1110896968251E-07
(PID.TID 0000.0001) %MON vort_a_mean                  =  -2.5205769477368E-05
(PID.TID 0000.0001) %MON vort_a_sd                    =   7.3401406431244E-05
(PID.TID 0000.0001) %MON vort_p_mean                  =  -3.1758669663217E-05
(PID.TID 0000.0001) %MON vort_p_sd                    =   1.3126028828154E-04
(PID.TID 0000.0001) %MON surfExpan_theta_mean         =   3.2615748253493E-05
(PID.TID 0000.0001) %MON surfExpan_salt_mean          =  -2.5195287349522E-07
(PID.TID 0000.0001) // =======================================================
(PID.TID 0000.0001) // End MONITOR dynamic field statistics
(PID.TID 0000.0001) // =======================================================
(PID.TID 0000.0001) // =======================================================
(PID.TID 0000.0001) // Begin MONITOR ptracer field statistics
(PID.TID 0000.0001) // =======================================================
(PID.TID 0000.0001) %MON trcstat_ptracer01_max        =   3.7420944186328E+01
(PID.TID 0000.0001) %MON trcstat_ptracer01_min        =   2.9786790936305E+01
(PID.TID 0000.0001) %MON trcstat_ptracer01_mean       =   3.4716148034546E+01
(PID.TID 0000.0001) %MON trcstat_ptracer01_sd         =   2.9585660847731E-01
(PID.TID 0000.0001) %MON trcstat_ptracer01_del2       =   2.6052500782948E-02
(PID.TID 0000.0001) // =======================================================
(PID.TID 0000.0001) // End MONITOR ptracers field statistics
(PID.TID 0000.0001) // =======================================================
(PID.TID 0000.0001) %CHECKPOINT        20 ckptA
(PID.TID 0000.0001)   Seconds in section "ALL                    [THE_MODEL_MAIN]":
(PID.TID 0000.0001)           User time:  25.0300007
(PID.TID 0000.0001)         System time:  0.709999979
(PID.TID 0000.0001)     Wall clock time:  26.149688
(PID.TID 0000.0001)          No. starts: 1
(PID.TID 0000.0001)           No. stops: 1
(PID.TID 0000.0001)   Seconds in section "INITIALISE_FIXED       [THE_MODEL_MAIN]":
(PID.TID 0000.0001)           User time:  0.99000001
(PID.TID 0000.0001)         System time:  0.129999995
(PID.TID 0000.0001)     Wall clock time:  1.17666006
(PID.TID 0000.0001)          No. starts: 1
(PID.TID 0000.0001)           No. stops: 1
(PID.TID 0000.0001)   Seconds in section "THE_MAIN_LOOP          [THE_MODEL_MAIN]":
(PID.TID 0000.0001)           User time:  23.8700006
(PID.TID 0000.0001)         System time:  0.439999998
(PID.TID 0000.0001)     Wall clock time:  24.5957291
(PID.TID 0000.0001)          No. starts: 1
(PID.TID 0000.0001)           No. stops: 1
(PID.TID 0000.0001)   Seconds in section "INITIALISE_VARIA    [THE_MAIN_LOOP]":
(PID.TID 0000.0001)           User time:  0.189999938
(PID.TID 0000.0001)         System time:  0.0600000024
(PID.TID 0000.0001)     Wall clock time:  0.32852602
(PID.TID 0000.0001)          No. starts: 1
(PID.TID 0000.0001)           No. stops: 1
(PID.TID 0000.0001)   Seconds in section "MONITOR             [THE_MAIN_LOOP]":
(PID.TID 0000.0001)           User time:  0.120000005
(PID.TID 0000.0001)         System time:  0.
(PID.TID 0000.0001)     Wall clock time:  0.113448143
(PID.TID 0000.0001)          No. starts: 1
(PID.TID 0000.0001)           No. stops: 1
(PID.TID 0000.0001)   Seconds in section "DO_THE_MODEL_IO     [THE_MAIN_LOOP]":
(PID.TID 0000.0001)           User time:  0.140000105
(PID.TID 0000.0001)         System time:  0.0100000054
(PID.TID 0000.0001)     Wall clock time:  0.148800135
(PID.TID 0000.0001)          No. starts: 1
(PID.TID 0000.0001)           No. stops: 1
(PID.TID 0000.0001)   Seconds in section "MAIN LOOP           [THE_MAIN_LOOP]":
(PID.TID 0000.0001)           User time:  23.4200006
(PID.TID 0000.0001)         System time:  0.36999999
(PID.TID 0000.0001)     Wall clock time:  24.0048029
(PID.TID 0000.0001)          No. starts: 1
(PID.TID 0000.0001)           No. stops: 1
(PID.TID 0000.0001)   Seconds in section "FORWARD_STEP        [THE_MAIN_LOOP]":
(PID.TID 0000.0001)           User time:  23.4200006
(PID.TID 0000.0001)         System time:  0.36999999
(PID.TID 0000.0001)     Wall clock time:  24.0041907
(PID.TID 0000.0001)          No. starts: 20
(PID.TID 0000.0001)           No. stops: 20
(PID.TID 0000.0001)   Seconds in section "EXTERNAL_FIELDS_LOAD[FORWARD_STEP]":
(PID.TID 0000.0001)           User time:  0.0399990082
(PID.TID 0000.0001)         System time:  0.
(PID.TID 0000.0001)     Wall clock time:  0.0474276543
(PID.TID 0000.0001)          No. starts: 20
(PID.TID 0000.0001)           No. stops: 20
(PID.TID 0000.0001)   Seconds in section "DO_ATMOSPHERIC_PHYS [FORWARD_STEP]":
(PID.TID 0000.0001)           User time:  0.
(PID.TID 0000.0001)         System time:  0.
(PID.TID 0000.0001)     Wall clock time:  0.000583171844
(PID.TID 0000.0001)          No. starts: 20
(PID.TID 0000.0001)           No. stops: 20
(PID.TID 0000.0001)   Seconds in section "DO_OCEANIC_PHYS     [FORWARD_STEP]":
(PID.TID 0000.0001)           User time:  2.01000047
(PID.TID 0000.0001)         System time:  0.00999999046
(PID.TID 0000.0001)     Wall clock time:  2.02353954
(PID.TID 0000.0001)          No. starts: 20
(PID.TID 0000.0001)           No. stops: 20
(PID.TID 0000.0001)   Seconds in section "THERMODYNAMICS      [FORWARD_STEP]":
(PID.TID 0000.0001)           User time:  7.26000106
(PID.TID 0000.0001)         System time:  0.
(PID.TID 0000.0001)     Wall clock time:  7.27607012
(PID.TID 0000.0001)          No. starts: 20
(PID.TID 0000.0001)           No. stops: 20
(PID.TID 0000.0001)   Seconds in section "DYNAMICS            [FORWARD_STEP]":
(PID.TID 0000.0001)           User time:  6.05999696
(PID.TID 0000.0001)         System time:  0.00999999046
(PID.TID 0000.0001)     Wall clock time:  6.09092879
(PID.TID 0000.0001)          No. starts: 20
(PID.TID 0000.0001)           No. stops: 20
(PID.TID 0000.0001)   Seconds in section "SOLVE_FOR_PRESSURE  [FORWARD_STEP]":
(PID.TID 0000.0001)           User time:  1.29000473
(PID.TID 0000.0001)         System time:  0.
(PID.TID 0000.0001)     Wall clock time:  1.25301266
(PID.TID 0000.0001)          No. starts: 20
(PID.TID 0000.0001)           No. stops: 20
(PID.TID 0000.0001)   Seconds in section "UV_CORRECTION_STEP  [FORWARD_STEP]":
(PID.TID 0000.0001)           User time:  0.33999753
(PID.TID 0000.0001)         System time:  0.
(PID.TID 0000.0001)     Wall clock time:  0.364702225
(PID.TID 0000.0001)          No. starts: 20
(PID.TID 0000.0001)           No. stops: 20
(PID.TID 0000.0001)   Seconds in section "TS_CORRECTION_STEP  [FORWARD_STEP]":
(PID.TID 0000.0001)           User time:  0.149997711
(PID.TID 0000.0001)         System time:  0.
(PID.TID 0000.0001)     Wall clock time:  0.167505026
(PID.TID 0000.0001)          No. starts: 20
(PID.TID 0000.0001)           No. stops: 20
(PID.TID 0000.0001)   Seconds in section "BLOCKING_EXCHANGES  [FORWARD_STEP]":
(PID.TID 0000.0001)           User time:  0.139999151
(PID.TID 0000.0001)         System time:  0.
(PID.TID 0000.0001)     Wall clock time:  0.108888626
(PID.TID 0000.0001)          No. starts: 20
(PID.TID 0000.0001)           No. stops: 20
(PID.TID 0000.0001)   Seconds in section "DO_STATEVARS_DIAGS  [FORWARD_STEP]":
(PID.TID 0000.0001)           User time:  1.42000318
(PID.TID 0000.0001)         System time:  0.
(PID.TID 0000.0001)     Wall clock time:  1.42482853
(PID.TID 0000.0001)          No. starts: 20
(PID.TID 0000.0001)           No. stops: 20
(PID.TID 0000.0001)   Seconds in section "MONITOR             [FORWARD_STEP]":
(PID.TID 0000.0001)           User time:  2.25000048
(PID.TID 0000.0001)         System time:  0.0100000203
(PID.TID 0000.0001)     Wall clock time:  2.27691793
(PID.TID 0000.0001)          No. starts: 20
(PID.TID 0000.0001)           No. stops: 20
(PID.TID 0000.0001)   Seconds in section "DO_THE_MODEL_IO     [FORWARD_STEP]":
(PID.TID 0000.0001)           User time:  2.4400003
(PID.TID 0000.0001)         System time:  0.339999989
(PID.TID 0000.0001)     Wall clock time:  2.96068478
(PID.TID 0000.0001)          No. starts: 20
(PID.TID 0000.0001)           No. stops: 20
(PID.TID 0000.0001)   Seconds in section "WRITE_CHECKPOINT    [FORWARD_STEP]":
(PID.TID 0000.0001)           User time:  0.
(PID.TID 0000.0001)         System time:  0.
(PID.TID 0000.0001)     Wall clock time:  0.000621080399
(PID.TID 0000.0001)          No. starts: 20
(PID.TID 0000.0001)           No. stops: 20
(PID.TID 0000.0001)   Seconds in section "WRITE_CHECKPOINT       [THE_MODEL_MAIN]":
(PID.TID 0000.0001)           User time:  0.170000076
(PID.TID 0000.0001)         System time:  0.139999986
(PID.TID 0000.0001)     Wall clock time:  0.377164841
(PID.TID 0000.0001)          No. starts: 1
(PID.TID 0000.0001)           No. stops: 1
(PID.TID 0000.0001) // ======================================================
(PID.TID 0000.0001) // Tile <-> Tile communication statistics
(PID.TID 0000.0001) // ======================================================
(PID.TID 0000.0001) // o Tile number: 000001
(PID.TID 0000.0001) //         No. X exchanges =              0
(PID.TID 0000.0001) //            Max. X spins =              0
(PID.TID 0000.0001) //            Min. X spins =     1000000000
(PID.TID 0000.0001) //          Total. X spins =              0
(PID.TID 0000.0001) //            Avg. X spins =       0.00E+00
(PID.TID 0000.0001) //         No. Y exchanges =              0
(PID.TID 0000.0001) //            Max. Y spins =              0
(PID.TID 0000.0001) //            Min. Y spins =     1000000000
(PID.TID 0000.0001) //          Total. Y spins =              0
(PID.TID 0000.0001) //            Avg. Y spins =       0.00E+00
(PID.TID 0000.0001) // o Tile number: 000002
(PID.TID 0000.0001) //         No. X exchanges =              0
(PID.TID 0000.0001) //            Max. X spins =              0
(PID.TID 0000.0001) //            Min. X spins =     1000000000
(PID.TID 0000.0001) //          Total. X spins =              0
(PID.TID 0000.0001) //            Avg. X spins =       0.00E+00
(PID.TID 0000.0001) //         No. Y exchanges =              0
(PID.TID 0000.0001) //            Max. Y spins =              0
(PID.TID 0000.0001) //            Min. Y spins =     1000000000
(PID.TID 0000.0001) //          Total. Y spins =              0
(PID.TID 0000.0001) //            Avg. Y spins =       0.00E+00
(PID.TID 0000.0001) // o Thread number: 000001
(PID.TID 0000.0001) //            No. barriers =          13592
(PID.TID 0000.0001) //      Max. barrier spins =              1
(PID.TID 0000.0001) //      Min. barrier spins =              1
(PID.TID 0000.0001) //     Total barrier spins =          13592
(PID.TID 0000.0001) //      Avg. barrier spins =       1.00E+00
