(PID.TID 0000.0001) 
(PID.TID 0000.0001) // ======================================================
(PID.TID 0000.0001) //                      MITgcm UV
(PID.TID 0000.0001) //                      =========
(PID.TID 0000.0001) // ======================================================
(PID.TID 0000.0001) // execution environment starting up...
(PID.TID 0000.0001) // Run starting Wed Apr  1 14:19:48 1998
(PID.TID 0000.0001) // on melville.lcs.mit.edu
(PID.TID 0000.0001) // account cnh
(PID.TID 0000.0001) // MITgcm UV Release: $Name:  $
(PID.TID 0000.0001) 
(PID.TID 0000.0001) // =======================================================
(PID.TID 0000.0001) // Execution Environment parameter file "eedata"
(PID.TID 0000.0001) // =======================================================
(PID.TID 0000.0001) ># Example "eedata" file
(PID.TID 0000.0001) ># Lines beginning "#" are comments
(PID.TID 0000.0001) ># nTx - No. threads per process in X
(PID.TID 0000.0001) ># nTy - No. threads per process in Y
(PID.TID 0000.0001) > &EEPARMS
(PID.TID 0000.0001) > nTx=1,nTy=1
(PID.TID 0000.0001) > &
(PID.TID 0000.0001) ># Note: Some systems use & as the
(PID.TID 0000.0001) ># namelist terminator. Other systems
(PID.TID 0000.0001) ># use a / character (as shown here).
(PID.TID 0000.0001) 
(PID.TID 0000.0001) // =======================================================
(PID.TID 0000.0001) // Computational Grid Specification ( see files "SIZE.h" )
(PID.TID 0000.0001) //                                  ( and "eedata"       )
(PID.TID 0000.0001) // =======================================================
(PID.TID 0000.0001)      nPx =    1 ; /* No. processes in X */
(PID.TID 0000.0001)      nPy =    1 ; /* No. processes in Y */
(PID.TID 0000.0001)      nSx =    1 ; /* No. tiles in X per process */
(PID.TID 0000.0001)      nSy =    1 ; /* No. tiles in Y per process */
(PID.TID 0000.0001)      sNx =   90 ; /* Tile size in X */
(PID.TID 0000.0001)      sNy =   40 ; /* Tile size in Y */
(PID.TID 0000.0001)      OLx =    2 ; /* Tile overlap distance in X */
(PID.TID 0000.0001)      OLy =    2 ; /* Tile overlap distance in Y */
(PID.TID 0000.0001)      nTx =    1 ; /* No. threads in X per process */
(PID.TID 0000.0001)      nTy =    1 ; /* No. threads in Y per process */
(PID.TID 0000.0001)       Nr =   15 ; /* No. levels in the vertical   */
(PID.TID 0000.0001)       nX =   90 ; /* Total domain size in X ( = nPx*nSx*sNx ) */
(PID.TID 0000.0001)       nY =   40 ; /* Total domain size in Y ( = nPy*nSy*sNy ) */
(PID.TID 0000.0001)   nTiles =    1 ; /* Total no. tiles per process ( = nSx*nSy ) */
(PID.TID 0000.0001)   nProcs =    1 ; /* Total no. processes ( = nPx*nPy ) */
(PID.TID 0000.0001) nThreads =    1 ; /* Total no. threads per process ( = nTx*nTy ) */
(PID.TID 0000.0001) usingMPI =    F ; /* Flag used to control whether MPI is in use */
(PID.TID 0000.0001)                   /*  note: To execute a program with MPI calls */
(PID.TID 0000.0001)                   /*  it must be launched appropriately e.g     */
(PID.TID 0000.0001)                   /*  "mpirun -np 64 ......"                    */
(PID.TID 0000.0001) 
(PID.TID 0000.0001) // ======================================================
(PID.TID 0000.0001) // Mapping of tiles to threads
(PID.TID 0000.0001) // ======================================================
(PID.TID 0000.0001) // -o- Thread   1, tiles (   1:   1,   1:   1)
(PID.TID 0000.0001) 
(PID.TID 0000.0001) // ======================================================
(PID.TID 0000.0001) // Tile <-> Tile connectvity table
(PID.TID 0000.0001) // ======================================================
(PID.TID 0000.0001) // Tile number: 000001 (process no. = 000001)
(PID.TID 0000.0001) //        WEST: Tile = 000001, Process = 000001, Comm = put
(PID.TID 0000.0001) //                bi = 000001, bj = 000001
(PID.TID 0000.0001) //        EAST: Tile = 000001, Process = 000001, Comm = put
(PID.TID 0000.0001) //                bi = 000001, bj = 000001
(PID.TID 0000.0001) //       SOUTH: Tile = 000001, Process = 000001, Comm = put
(PID.TID 0000.0001) //                bi = 000001, bj = 000001
(PID.TID 0000.0001) //       NORTH: Tile = 000001, Process = 000001, Comm = put
(PID.TID 0000.0001) //                bi = 000001, bj = 000001
(PID.TID 0000.0001) 
(PID.TID 0000.0001) // =======================================================
(PID.TID 0000.0001) // Model parameter file "data"
(PID.TID 0000.0001) // =======================================================
(PID.TID 0000.0001) ># ====================
(PID.TID 0000.0001) ># | Model parameters |
(PID.TID 0000.0001) ># ====================
(PID.TID 0000.0001) >#
(PID.TID 0000.0001) ># Continuous equation parameters
(PID.TID 0000.0001) > &PARM01
(PID.TID 0000.0001) > tRef = 15*20.,
(PID.TID 0000.0001) > sRef = 15*35.,
(PID.TID 0000.0001) > viscAr=1.E-3,
(PID.TID 0000.0001) > viscAh=5.E5,
(PID.TID 0000.0001) > diffKhT=0.0,
(PID.TID 0000.0001) > diffKrT=3.E-5,
(PID.TID 0000.0001) > diffKhS=0.0,
(PID.TID 0000.0001) > diffKrS=3.E-5,
(PID.TID 0000.0001) > rhonil=1035.,
(PID.TID 0000.0001) > gravity=9.81,
(PID.TID 0000.0001) > eosType = 'POLY3',
(PID.TID 0000.0001) > ivdc_kappa=100.,
(PID.TID 0000.0001) > implicitDiffusion=.TRUE.,
(PID.TID 0000.0001) > allowFreezing=.TRUE.,
(PID.TID 0000.0001) > useRealFreshWaterFlux=.TRUE.,
(PID.TID 0000.0001) > useCDscheme=.TRUE.,
(PID.TID 0000.0001) > useNHMTerms=.TRUE.,
(PID.TID 0000.0001) ># turn on looped cells
(PID.TID 0000.0001) > hFacMin=.05,
(PID.TID 0000.0001) > hFacMindr=50.,
(PID.TID 0000.0001) ># set precision of data files
(PID.TID 0000.0001) > readBinaryPrec=32,
(PID.TID 0000.0001) > &
(PID.TID 0000.0001) >
(PID.TID 0000.0001) ># Elliptic solver parameters
(PID.TID 0000.0001) > &PARM02
(PID.TID 0000.0001) > cg2dMaxIters=500,
(PID.TID 0000.0001) > cg2dTargetResidual=1.E-13,
(PID.TID 0000.0001) > &
(PID.TID 0000.0001) >
(PID.TID 0000.0001) ># Time stepping parameters
(PID.TID 0000.0001) > &PARM03
(PID.TID 0000.0001) > nIter0 =      0,
(PID.TID 0000.0001) > nTimeSteps = 20,
(PID.TID 0000.0001) ># 100 years of integration will yield a reasonable flow field
(PID.TID 0000.0001) ># startTime  =          0.,
(PID.TID 0000.0001) ># endTime    = 3110400000.,
(PID.TID 0000.0001) > deltaTmom = 1200.0,
(PID.TID 0000.0001) > tauCD =     321428.,
(PID.TID 0000.0001) > deltaTtracer= 43200.0,
(PID.TID 0000.0001) > deltaTClock = 43200.0,
(PID.TID 0000.0001) ># if you are using a version later than checkpoint45d on the main branch
(PID.TID 0000.0001) ># you can uncomment the following line and increase the time step
(PID.TID 0000.0001) ># deltaTtracer and deltaTClock to 172800.0 as well to speed up the
(PID.TID 0000.0001) ># asynchronous time stepping
(PID.TID 0000.0001) ># deltaTfreesurf = 172800.0,
(PID.TID 0000.0001) > abEps = 0.1,
(PID.TID 0000.0001) > pChkptFreq= 311040000.,
(PID.TID 0000.0001) > dumpFreq=   311040000.,
(PID.TID 0000.0001) > dumpFreq=   864000.,
(PID.TID 0000.0001) > taveFreq=   311040000.,
(PID.TID 0000.0001) > taveFreq=   864000.,
(PID.TID 0000.0001) >#monitorFreq=31104000.,
(PID.TID 0000.0001) > monitorFreq=1.,
(PID.TID 0000.0001) ># 2 months restoring timescale for temperature
(PID.TID 0000.0001) > tauThetaClimRelax =  5184000.0,
(PID.TID 0000.0001) ># 6 months restoring timescale for salinity
(PID.TID 0000.0001) > tauSaltClimRelax = 15552000.0,
(PID.TID 0000.0001) > periodicExternalForcing=.TRUE.,
(PID.TID 0000.0001) > externForcingPeriod=2592000.,
(PID.TID 0000.0001) > externForcingCycle=31104000.,
(PID.TID 0000.0001) > &
(PID.TID 0000.0001) >
(PID.TID 0000.0001) ># Gridding parameters
(PID.TID 0000.0001) > &PARM04
(PID.TID 0000.0001) > usingCartesianGrid=.FALSE.,
(PID.TID 0000.0001) > usingSphericalPolarGrid=.TRUE.,
(PID.TID 0000.0001) > delR= 50., 70., 100., 140., 190.,
(PID.TID 0000.0001) >       240., 290., 340., 390., 440.,
(PID.TID 0000.0001) >       490., 540., 590., 640., 690.,
(PID.TID 0000.0001) > phiMin=-80.,
(PID.TID 0000.0001) > dySpacing=4.,
(PID.TID 0000.0001) > dxSpacing=4.,
(PID.TID 0000.0001) > &
(PID.TID 0000.0001) >
(PID.TID 0000.0001) ># Input datasets
(PID.TID 0000.0001) > &PARM05
(PID.TID 0000.0001) > bathyFile=      'bathymetry.bin',
(PID.TID 0000.0001) > hydrogThetaFile='lev_t.bin',
(PID.TID 0000.0001) > hydrogSaltFile= 'lev_s.bin',
(PID.TID 0000.0001) > zonalWindFile=  'trenberth_taux.bin',
(PID.TID 0000.0001) > meridWindFile=  'trenberth_tauy.bin',
(PID.TID 0000.0001) > thetaClimFile=  'lev_sst.bin',
(PID.TID 0000.0001) > saltClimFile=   'lev_sss.bin',
(PID.TID 0000.0001) > surfQFile=      'ncep_qnet.bin',
(PID.TID 0000.0001) ># fresh water flux is turned off, uncomment next line to turn on
(PID.TID 0000.0001) ># (not recommened together with surface salinity restoring)
(PID.TID 0000.0001) ># EmPmRFile=      'ncep_emp.bin',
(PID.TID 0000.0001) > &
(PID.TID 0000.0001) 
(PID.TID 0000.0001) S/R INI_PARMS ; read PARM01 : OK
(PID.TID 0000.0001) S/R INI_PARMS ; read PARM02 : OK
(PID.TID 0000.0001) S/R INI_PARMS ; read PARM03 : OK
(PID.TID 0000.0001) S/R INI_PARMS ; read PARM04 : OK
(PID.TID 0000.0001) S/R INI_PARMS ; read PARM05 : OK
(PID.TID 0000.0001) %MON XC_max                       =   3.5800000000000E+02
(PID.TID 0000.0001) %MON XC_min                       =   2.0000000000000E+00
(PID.TID 0000.0001) %MON XC_mean                      =   1.8000000000000E+02
(PID.TID 0000.0001) %MON XC_sd                        =   1.0391663325314E+02
(PID.TID 0000.0001) %MON XG_max                       =   3.5600000000000E+02
(PID.TID 0000.0001) %MON XG_min                       =   4.0000000000000E+00
(PID.TID 0000.0001) %MON XG_mean                      =   1.8000000000000E+02
(PID.TID 0000.0001) %MON XG_sd                        =   1.0276186062932E+02
(PID.TID 0000.0001) %MON DXC_max                      =   4.4443898815675E+05
(PID.TID 0000.0001) %MON DXC_min                      =   9.2460385861875E+04
(PID.TID 0000.0001) %MON DXC_mean                     =   3.1372497618153E+05
(PID.TID 0000.0001) %MON DXC_sd                       =   1.1216447457560E+05
(PID.TID 0000.0001) %MON DXF_max                      =   4.4443898815675E+05
(PID.TID 0000.0001) %MON DXF_min                      =   9.2460385861875E+04
(PID.TID 0000.0001) %MON DXF_mean                     =   3.1372497618153E+05
(PID.TID 0000.0001) %MON DXF_sd                       =   1.1216447457560E+05
(PID.TID 0000.0001) %MON DXG_max                      =   4.4470989340816E+05
(PID.TID 0000.0001) %MON DXG_min                      =   7.7223062580781E+04
(PID.TID 0000.0001) %MON DXG_mean                     =   3.1353386340260E+05
(PID.TID 0000.0001) %MON DXG_sd                       =   1.1256651772502E+05
(PID.TID 0000.0001) %MON DXV_max                      =   4.4470989340816E+05
(PID.TID 0000.0001) %MON DXV_min                      =   7.7223062580781E+04
(PID.TID 0000.0001) %MON DXV_mean                     =   3.1353386340260E+05
(PID.TID 0000.0001) %MON DXV_sd                       =   1.1256651772502E+05
(PID.TID 0000.0001) %MON YC_max                       =   7.8000000000000E+01
(PID.TID 0000.0001) %MON YC_min                       =  -7.8000000000000E+01
(PID.TID 0000.0001) %MON YC_mean                      =   0.0000000000000E+00
(PID.TID 0000.0001) %MON YC_sd                        =   4.6173585522461E+01
(PID.TID 0000.0001) %MON YG_max                       =   7.6000000000000E+01
(PID.TID 0000.0001) %MON YG_min                       =  -8.0000000000000E+01
(PID.TID 0000.0001) %MON YG_mean                      =  -2.0512820512821E+00
(PID.TID 0000.0001) %MON YG_sd                        =   4.6760682979564E+01
(PID.TID 0000.0001) %MON DYC_max                      =   4.4470989340816E+05
(PID.TID 0000.0001) %MON DYC_min                      =   4.4470989340816E+05
(PID.TID 0000.0001) %MON DYC_mean                     =   4.4470989340814E+05
(PID.TID 0000.0001) %MON DYC_sd                       =   1.9848812371492E-08
(PID.TID 0000.0001) %MON DYF_max                      =   4.4470989340816E+05
(PID.TID 0000.0001) %MON DYF_min                      =   4.4470989340816E+05
(PID.TID 0000.0001) %MON DYF_mean                     =   4.4470989340814E+05
(PID.TID 0000.0001) %MON DYF_sd                       =   1.9848812371492E-08
(PID.TID 0000.0001) %MON DYG_max                      =   4.4470989340816E+05
(PID.TID 0000.0001) %MON DYG_min                      =   4.4470989340816E+05
(PID.TID 0000.0001) %MON DYG_mean                     =   4.4470989340814E+05
(PID.TID 0000.0001) %MON DYG_sd                       =   1.9848812371492E-08
(PID.TID 0000.0001) %MON DYU_max                      =   4.4470989340816E+05
(PID.TID 0000.0001) %MON DYU_min                      =   4.4470989340816E+05
(PID.TID 0000.0001) %MON DYU_mean                     =   4.4470989340814E+05
(PID.TID 0000.0001) %MON DYU_sd                       =   1.9848812371492E-08
(PID.TID 0000.0001) %MON RA_max                       =   1.9760627980089E+11
(PID.TID 0000.0001) %MON RA_min                       =   4.1109698667290E+10
(PID.TID 0000.0001) %MON RA_mean                      =   1.3948826965197E+11
(PID.TID 0000.0001) %MON RA_sd                        =   4.9870522472902E+10
(PID.TID 0000.0001) %MON RAW_max                      =   1.9760627980089E+11
(PID.TID 0000.0001) %MON RAW_min                      =   4.1109698667290E+10
(PID.TID 0000.0001) %MON RAW_mean                     =   1.3948826965197E+11
(PID.TID 0000.0001) %MON RAW_sd                       =   4.9870522472902E+10
(PID.TID 0000.0001) %MON RAS_max                      =   1.9772672958215E+11
(PID.TID 0000.0001) %MON RAS_min                      =   3.4334886267982E+10
(PID.TID 0000.0001) %MON RAS_mean                     =   1.3940329716694E+11
(PID.TID 0000.0001) %MON RAS_sd                       =   5.0049278732354E+10
(PID.TID 0000.0001) %MON RAZ_max                      =   1.9772672958215E+11
(PID.TID 0000.0001) %MON RAZ_min                      =   3.4334886267982E+10
(PID.TID 0000.0001) %MON RAZ_mean                     =   1.3940329716694E+11
(PID.TID 0000.0001) %MON RAZ_sd                       =   5.0049278732354E+10
(PID.TID 0000.0001)  MDSREADFIELD: opening global file: bathymetry.bin
(PID.TID 0000.0001) // =======================================================
(PID.TID 0000.0001) // Field Model R_low (ini_masks_etc) at iteration          1
(PID.TID 0000.0001) // CMIN =         -5.200000000000000E+03
(PID.TID 0000.0001) // CMAX =         -1.200000000000000E+02
(PID.TID 0000.0001) // CINT =          1.881481481481482E+02
(PID.TID 0000.0001) // SYMBOLS (CMIN->CMAX): -abcdefghijklmnopqrstuvwxyz+
(PID.TID 0000.0001) //                  0.0: .
(PID.TID 0000.0001) // RANGE I (Lo:Hi:Step):(  -1:  92:   1)
(PID.TID 0000.0001) // RANGE J (Lo:Hi:Step):(  42:  -1:  -1)
(PID.TID 0000.0001) // RANGE K (Lo:Hi:Step):(   1:   1:   1)
(PID.TID 0000.0001) // =======================================================
(PID.TID 0000.0001) K =   1
(PID.TID 0000.0001) //                I=8       I=18      I=28      I=38      I=48      I=58      I=68      I=78      I=88
(PID.TID 0000.0001) // |--J--|*01234567|901234567|901234567|901234567|901234567|901234567|901234567|901234567|901234567|9012
(PID.TID 0000.0001) //     42 ............................................zyxxmgfeeefefgimnpwwwy..+zyy.....yyyyoiiihhz+.....
(PID.TID 0000.0001) //     41 ..............................................................................................
(PID.TID 0000.0001) //     40 qlloqz+.++++zzz++++++..................................................................+++qllo
(PID.TID 0000.0001) //     39 slloorzzzzzzzzz+...++.....................................................yxxz........+zvusllo
(PID.TID 0000.0001) //     38 mqpporzzzzzz+++...........................................................zxxy+......zyyvsmqpp
(PID.TID 0000.0001) //     37 mmmuz..................................................................++...zy+...yttyy.+smmmu
(PID.TID 0000.0001) //     36 utt+.........................................mm++....................+++++++znmm.yoowssvuyutt+
(PID.TID 0000.0001) //     35 ++++.................................+zzz..rrmmkk+...+gghn...........+++....+nmiijlsoopuww++++
(PID.TID 0000.0001) //     34 .....................................+vvy.ggqyxv+y.ccdffhim..................+nihhikkihhm+....
(PID.TID 0000.0001) //     33 +.....................................uuz---h------aaabdefin+.................zqvddflifffw+...
(PID.TID 0000.0001) //     32 +.....................................+t----h---------acdfgnn................+++gdffkofffm+...
(PID.TID 0000.0001) //     31 ......................................-----ad--------abddegil..............qbaafccdhqqgddm....
(PID.TID 0000.0001) //     30 .....................................f----b--b------------abd............zfbb--fbcdosjfddi....
(PID.TID 0000.0001) //     29 ...................................tu----e---fjg----------abdf...........eaac--abfmijaadgi....
(PID.TID 0000.0001) //     28 .................................+xfl-------------------bdedefi.........qbaa---aemfbbaaejz....
(PID.TID 0000.0001) //     27 ................xx..............+wfgfpf--------eallc---bbbccefgi...+++x.qb-----akfa---ah......
(PID.TID 0000.0001) //     26 ................xnn...........+vd---dna------a--aicfna---aabdfghku.++xssuy-----bgca---ci......
(PID.TID 0000.0001) //     25 ................iiik...oo+...+ivd---doaa-bc--ilglf--aa---aabcghhkll...ssum+xaaacjbaabdjk......
(PID.TID 0000.0001) //     24 ..............xnheeft.kkk+...uii.aagdm----aa-----a-------bbbcdefjljjju.zummwwbbchba--abi......
(PID.TID 0000.0001) //     23 ..............xgheefp.iikw...uuw..fihi----fed-----eaaa--bbbbcdfflkjiiiq....zykccefa--abd......
(PID.TID 0000.0001) //     22 uss...........bbelffslffkk...zz.wqkeeqoheccdfa-----egabaabcdddegghliiiqq......xeeehheehccquss.
(PID.TID 0000.0001) //     21 bbeir........nbbcdjhqdddiiz.....wqfeelgghmedea-----bibbcddddddefghklnqoo........ieeflhgcccbbei
(PID.TID 0000.0001) //     20 bbder.......ldcccdgkccccidd......z.vkkktqqhegg----aaacddddddddefghkiiijl.........nhfa--gfcbbde
(PID.TID 0000.0001) //     19 cdaaf.......kddosggpaaaibbccx...+z+.....r+nlec---agaaabcddccddefikfgffff...........d---cjhcdaa
(PID.TID 0000.0001) //     18 d---d.......kglggvliaaaibbcaaeaiv++...qqzolhecccfdgkaabcdfccdeeikgfgffdd+..........d---djhd---
(PID.TID 0000.0001) //     17 c---c.......l.feewlfaaaoaa----aiv.....qqnllslmlofcdbaacceffffhhligfigeddj.........hd---ckhc---
(PID.TID 0000.0001) //     16 ba--c......tn.ddgnlfdaaqa-----lv.......vnllvllnwv--accivomfffhilhgfffeddjf........re--aeigba--
(PID.TID 0000.0001) //     15 b--dpz....+ll.ccdfhmdddlc----av.........otsxoomv---abccddfihgijkhgfffeejfff......+fd---ckfb--d
(PID.TID 0000.0001) //     14 c--mcl....weeqbaafilkfend--eagy.........hhstofft----aacdheefijkmjhhjijiffff.....zlfdaaadlfc--m
(PID.TID 0000.0001) //     13 cclbbg....nccobaaiddgkffqrqeaal.........eeutqfft------aaceeffhijlkjhhigfffq....+jgfodccflhcclb
(PID.TID 0000.0001) //     12 hgaaacw+iiicclemhdddfliigfdcaabfaaaz....ccsurqpc--------abcifffikiiihhggff.....kbbbdfffglhhgaa
(PID.TID 0000.0001) //     11 gcaaacbbifccennhbbdefnihgfdccaaaa----..dcccnt.ncab-------aabcdfilhggjiggff....l---abcefjlkgcaa
(PID.TID 0000.0001) //     10 fcaaccbdaacfrllfbbdegkmmljhfdddba----d.dcccfx.nyrebaba----abcdgilhfeegijgi..+w--aa-abcfilkfcaa
(PID.TID 0000.0001) //      9 ffcdcccaaaoqsolfdeehikihhlllgfedcccccdmdcccf.vyfaaaaaaaa--abdehmjhfeeefglv.++w-----abcdfklffcd
(PID.TID 0000.0001) //      8 iffjklcaafddffeeccvznkfffhhhlkjifgjkkfeeddfsyvcaaaaaaccdcccdfgjligedbbceg+.++xffn--cfddefliffj
(PID.TID 0000.0001) //      7 mqnnbbkkf--bmbaabbgtykfddeffeeddccdfhlffeelfbaaaaaacddeghgjgjlligeddaaabedfiiiiiisvkfkecchmqnn
(PID.TID 0000.0001) //      6 ca-------------aabcelttdddedddddccccdfkkiiffbaaaabcdgimmkmefecaaabbbaaabbdfiiiiispmmregifcca--
(PID.TID 0000.0001) //      5 -------a-------aaccehhhiddeddddddcccdfiikomodddefffmlmigedccaaaaaaaababbbdfiijsqgeccccbaa-----
(PID.TID 0000.0001) //      4 -ahebaabbbbbeihffgijiiiijpywnnpokkomkiiijmmmolkommmgffeeedccaaaaaabbcccefhmz..yjgeccccbaa--ahe
(PID.TID 0000.0001) //      3 ffhhrpjiiwyy............................yxotmjjjjgfeeeeeeddeffffheddeghjkyy..yqjgeddccdbbgffhh
(PID.TID 0000.0001) //      2 ............................................zyxxmgfeeefefgimnpwwwy..+zyy.....yyyyoiiihhz+.....
(PID.TID 0000.0001) //      1 ..............................................................................................
(PID.TID 0000.0001) //      0 qlloqz+.++++zzz++++++..................................................................+++qllo
(PID.TID 0000.0001) //     -1 slloorzzzzzzzzz+...++.....................................................yxxz........+zvusllo
(PID.TID 0000.0001) // =======================================================
(PID.TID 0000.0001) // END OF FIELD                                          =
(PID.TID 0000.0001) // =======================================================
(PID.TID 0000.0001) 
(PID.TID 0000.0001) // =======================================================
(PID.TID 0000.0001) // Field Model Ro_surf (ini_masks_etc) at iteration          1
(PID.TID 0000.0001) // CMIN =          1.000000000000000E+32
(PID.TID 0000.0001) // CMAX =         -1.000000000000000E+32
(PID.TID 0000.0001) // CINT =          0.000000000000000E+00
(PID.TID 0000.0001) // SYMBOLS (CMIN->CMAX): -abcdefghijklmnopqrstuvwxyz+
(PID.TID 0000.0001) //                  0.0: .
(PID.TID 0000.0001) // RANGE I (Lo:Hi:Step):(  -1:  92:   1)
(PID.TID 0000.0001) // RANGE J (Lo:Hi:Step):(  42:  -1:  -1)
(PID.TID 0000.0001) // RANGE K (Lo:Hi:Step):(   1:   1:   1)
(PID.TID 0000.0001) // =======================================================
(PID.TID 0000.0001) K =   1
(PID.TID 0000.0001) //                I=8       I=18      I=28      I=38      I=48      I=58      I=68      I=78      I=88
(PID.TID 0000.0001) // |--J--|*01234567|901234567|901234567|901234567|901234567|901234567|901234567|901234567|901234567|9012
(PID.TID 0000.0001) //     42 ..............................................................................................
(PID.TID 0000.0001) //     41 ..............................................................................................
(PID.TID 0000.0001) //     40 ..............................................................................................
(PID.TID 0000.0001) //     39 ..............................................................................................
(PID.TID 0000.0001) //     38 ..............................................................................................
(PID.TID 0000.0001) //     37 ..............................................................................................
(PID.TID 0000.0001) //     36 ..............................................................................................
(PID.TID 0000.0001) //     35 ..............................................................................................
(PID.TID 0000.0001) //     34 ..............................................................................................
(PID.TID 0000.0001) //     33 ..............................................................................................
(PID.TID 0000.0001) //     32 ..............................................................................................
(PID.TID 0000.0001) //     31 ..............................................................................................
(PID.TID 0000.0001) //     30 ..............................................................................................
(PID.TID 0000.0001) //     29 ..............................................................................................
(PID.TID 0000.0001) //     28 ..............................................................................................
(PID.TID 0000.0001) //     27 ..............................................................................................
(PID.TID 0000.0001) //     26 ..............................................................................................
(PID.TID 0000.0001) //     25 ..............................................................................................
(PID.TID 0000.0001) //     24 ..............................................................................................
(PID.TID 0000.0001) //     23 ..............................................................................................
(PID.TID 0000.0001) //     22 ..............................................................................................
(PID.TID 0000.0001) //     21 ..............................................................................................
(PID.TID 0000.0001) //     20 ..............................................................................................
(PID.TID 0000.0001) //     19 ..............................................................................................
(PID.TID 0000.0001) //     18 ..............................................................................................
(PID.TID 0000.0001) //     17 ..............................................................................................
(PID.TID 0000.0001) //     16 ..............................................................................................
(PID.TID 0000.0001) //     15 ..............................................................................................
(PID.TID 0000.0001) //     14 ..............................................................................................
(PID.TID 0000.0001) //     13 ..............................................................................................
(PID.TID 0000.0001) //     12 ..............................................................................................
(PID.TID 0000.0001) //     11 ..............................................................................................
(PID.TID 0000.0001) //     10 ..............................................................................................
(PID.TID 0000.0001) //      9 ..............................................................................................
(PID.TID 0000.0001) //      8 ..............................................................................................
(PID.TID 0000.0001) //      7 ..............................................................................................
(PID.TID 0000.0001) //      6 ..............................................................................................
(PID.TID 0000.0001) //      5 ..............................................................................................
(PID.TID 0000.0001) //      4 ..............................................................................................
(PID.TID 0000.0001) //      3 ..............................................................................................
(PID.TID 0000.0001) //      2 ..............................................................................................
(PID.TID 0000.0001) //      1 ..............................................................................................
(PID.TID 0000.0001) //      0 ..............................................................................................
(PID.TID 0000.0001) //     -1 ..............................................................................................
(PID.TID 0000.0001) // =======================================================
(PID.TID 0000.0001) // END OF FIELD                                          =
(PID.TID 0000.0001) // =======================================================
(PID.TID 0000.0001) 
(PID.TID 0000.0001) // =======================================================
(PID.TID 0000.0001) // Field hFacC at iteration          1
(PID.TID 0000.0001) // CMIN =          1.000000000000000E+00
(PID.TID 0000.0001) // CMAX =          1.000000000000000E+00
(PID.TID 0000.0001) // CINT =          0.000000000000000E+00
(PID.TID 0000.0001) // SYMBOLS (CMIN->CMAX): -abcdefghijklmnopqrstuvwxyz+
(PID.TID 0000.0001) //                  0.0: .
(PID.TID 0000.0001) // RANGE I (Lo:Hi:Step):(  -1:  92:   1)
(PID.TID 0000.0001) // RANGE J (Lo:Hi:Step):(  42:  -1:  -1)
(PID.TID 0000.0001) // RANGE K (Lo:Hi:Step):(   1:   1:   1)
(PID.TID 0000.0001) // =======================================================
(PID.TID 0000.0001) K =   1
(PID.TID 0000.0001) //                I=8       I=18      I=28      I=38      I=48      I=58      I=68      I=78      I=88
(PID.TID 0000.0001) // |--J--|*01234567|901234567|901234567|901234567|901234567|901234567|901234567|901234567|901234567|9012
(PID.TID 0000.0001) //     42 ............................................----------------------..----.....------------.....
(PID.TID 0000.0001) //     41 ..............................................................................................
(PID.TID 0000.0001) //     40 -------.-------------..................................................................-------
(PID.TID 0000.0001) //     39 ----------------...--.....................................................----........--------
(PID.TID 0000.0001) //     38 ---------------...........................................................-----......---------
(PID.TID 0000.0001) //     37 -----..................................................................--...---...-----.------
(PID.TID 0000.0001) //     36 ----.........................................----....................-----------.-------------
(PID.TID 0000.0001) //     35 ----.................................----..-------...-----...........---....------------------
(PID.TID 0000.0001) //     34 .....................................----.--------.--------..................-------------....
(PID.TID 0000.0001) //     33 -.....................................-----------------------.................-------------...
(PID.TID 0000.0001) //     32 -.....................................-----------------------................--------------...
(PID.TID 0000.0001) //     31 ......................................-----------------------..............---------------....
(PID.TID 0000.0001) //     30 .....................................------------------------............-----------------....
(PID.TID 0000.0001) //     29 ...................................---------------------------...........-----------------....
(PID.TID 0000.0001) //     28 .................................------------------------------.........------------------....
(PID.TID 0000.0001) //     27 ................--..............--------------------------------...----.----------------......
(PID.TID 0000.0001) //     26 ................---...........------------------------------------.---------------------......
(PID.TID 0000.0001) //     25 ................----...---...--------------------------------------...------------------......
(PID.TID 0000.0001) //     24 ..............-------.----...---.-------------------------------------.-----------------......
(PID.TID 0000.0001) //     23 ..............-------.----...---..-------------------------------------....-------------......
(PID.TID 0000.0001) //     22 ---...........------------...--.----------------------------------------......---------------.
(PID.TID 0000.0001) //     21 -----........--------------.....----------------------------------------........--------------
(PID.TID 0000.0001) //     20 -----.......---------------......-.-------------------------------------.........-------------
(PID.TID 0000.0001) //     19 -----.......-----------------...---.....--------------------------------...........-----------
(PID.TID 0000.0001) //     18 -----.......-----------------------...-----------------------------------..........-----------
(PID.TID 0000.0001) //     17 -----.......-.-------------------.....-----------------------------------.........------------
(PID.TID 0000.0001) //     16 -----......--.------------------.......-----------------------------------........------------
(PID.TID 0000.0001) //     15 ------....---.-----------------.........-----------------------------------......-------------
(PID.TID 0000.0001) //     14 ------....---------------------.........-----------------------------------.....--------------
(PID.TID 0000.0001) //     13 ------....---------------------.........-----------------------------------....---------------
(PID.TID 0000.0001) //     12 ------------------------------------....----------------------------------.....---------------
(PID.TID 0000.0001) //     11 -------------------------------------..------.----------------------------....----------------
(PID.TID 0000.0001) //     10 --------------------------------------.------.----------------------------..------------------
(PID.TID 0000.0001) //      9 --------------------------------------------.-----------------------------.-------------------
(PID.TID 0000.0001) //      8 --------------------------------------------------------------------------.-------------------
(PID.TID 0000.0001) //      7 ----------------------------------------------------------------------------------------------
(PID.TID 0000.0001) //      6 ----------------------------------------------------------------------------------------------
(PID.TID 0000.0001) //      5 ----------------------------------------------------------------------------------------------
(PID.TID 0000.0001) //      4 ----------------------------------------------------------------------------..----------------
(PID.TID 0000.0001) //      3 ------------............................-----------------------------------..-----------------
(PID.TID 0000.0001) //      2 ............................................----------------------..----.....------------.....
(PID.TID 0000.0001) //      1 ..............................................................................................
(PID.TID 0000.0001) //      0 -------.-------------..................................................................-------
(PID.TID 0000.0001) //     -1 ----------------...--.....................................................----........--------
(PID.TID 0000.0001) // =======================================================
(PID.TID 0000.0001) // END OF FIELD                                          =
(PID.TID 0000.0001) // =======================================================
(PID.TID 0000.0001) 
(PID.TID 0000.0001) // =======================================================
(PID.TID 0000.0001) // Field hFacW at iteration          1
(PID.TID 0000.0001) // CMIN =          1.000000000000000E+00
(PID.TID 0000.0001) // CMAX =          1.000000000000000E+00
(PID.TID 0000.0001) // CINT =          0.000000000000000E+00
(PID.TID 0000.0001) // SYMBOLS (CMIN->CMAX): -abcdefghijklmnopqrstuvwxyz+
(PID.TID 0000.0001) //                  0.0: .
(PID.TID 0000.0001) // RANGE I (Lo:Hi:Step):(  -1:  92:   1)
(PID.TID 0000.0001) // RANGE J (Lo:Hi:Step):(  42:  -1:  -1)
(PID.TID 0000.0001) // RANGE K (Lo:Hi:Step):(   1:   1:   1)
(PID.TID 0000.0001) // =======================================================
(PID.TID 0000.0001) K =   1
(PID.TID 0000.0001) //                I=8       I=18      I=28      I=38      I=48      I=58      I=68      I=78      I=88
(PID.TID 0000.0001) // |--J--|*01234567|901234567|901234567|901234567|901234567|901234567|901234567|901234567|901234567|9012
(PID.TID 0000.0001) //     42 .............................................---------------------...---......-----------.....
(PID.TID 0000.0001) //     41 ..............................................................................................
(PID.TID 0000.0001) //     40 -------..------------...................................................................------
(PID.TID 0000.0001) //     39 ----------------....-......................................................---.........-------
(PID.TID 0000.0001) //     38 ---------------............................................................----.......--------
(PID.TID 0000.0001) //     37 -----...................................................................-....--....----..-----
(PID.TID 0000.0001) //     36 ----..........................................---.....................----------..------------
(PID.TID 0000.0001) //     35 ----..................................---...------....----............--.....-----------------
(PID.TID 0000.0001) //     34 ......................................---..-------..-------...................------------....
(PID.TID 0000.0001) //     33 -......................................----------------------..................------------...
(PID.TID 0000.0001) //     32 -......................................----------------------.................-------------...
(PID.TID 0000.0001) //     31 .......................................----------------------...............--------------....
(PID.TID 0000.0001) //     30 ......................................-----------------------.............----------------....
(PID.TID 0000.0001) //     29 ....................................--------------------------............----------------....
(PID.TID 0000.0001) //     28 ..................................-----------------------------..........-----------------....
(PID.TID 0000.0001) //     27 .................-...............-------------------------------....---..---------------......
(PID.TID 0000.0001) //     26 .................--............-----------------------------------..--------------------......
(PID.TID 0000.0001) //     25 .................---....--....-------------------------------------....-----------------......
(PID.TID 0000.0001) //     24 ...............------..---....--..------------------------------------..----------------......
(PID.TID 0000.0001) //     23 ...............------..---....--...------------------------------------.....------------......
(PID.TID 0000.0001) //     22 ---............-----------....-..---------------------------------------.......--------------.
(PID.TID 0000.0001) //     21 -----.........-------------......---------------------------------------.........-------------
(PID.TID 0000.0001) //     20 -----........--------------.........------------------------------------..........------------
(PID.TID 0000.0001) //     19 -----........----------------....--......-------------------------------............----------
(PID.TID 0000.0001) //     18 -----........----------------------....----------------------------------...........----------
(PID.TID 0000.0001) //     17 -----..........------------------......----------------------------------..........-----------
(PID.TID 0000.0001) //     16 -----.......-..-----------------........----------------------------------.........-----------
(PID.TID 0000.0001) //     15 ------.....--..----------------..........----------------------------------.......------------
(PID.TID 0000.0001) //     14 ------.....--------------------..........----------------------------------......-------------
(PID.TID 0000.0001) //     13 ------.....--------------------..........----------------------------------.....--------------
(PID.TID 0000.0001) //     12 ------------------------------------.....---------------------------------......--------------
(PID.TID 0000.0001) //     11 -------------------------------------...-----..---------------------------.....---------------
(PID.TID 0000.0001) //     10 --------------------------------------..-----..---------------------------...-----------------
(PID.TID 0000.0001) //      9 --------------------------------------------..----------------------------..------------------
(PID.TID 0000.0001) //      8 --------------------------------------------------------------------------..------------------
(PID.TID 0000.0001) //      7 ----------------------------------------------------------------------------------------------
(PID.TID 0000.0001) //      6 ----------------------------------------------------------------------------------------------
(PID.TID 0000.0001) //      5 ----------------------------------------------------------------------------------------------
(PID.TID 0000.0001) //      4 ----------------------------------------------------------------------------...---------------
(PID.TID 0000.0001) //      3 ------------.............................----------------------------------...----------------
(PID.TID 0000.0001) //      2 .............................................---------------------...---......-----------.....
(PID.TID 0000.0001) //      1 ..............................................................................................
(PID.TID 0000.0001) //      0 -------..------------...................................................................------
(PID.TID 0000.0001) //     -1 ----------------....-......................................................---.........-------
(PID.TID 0000.0001) // =======================================================
(PID.TID 0000.0001) // END OF FIELD                                          =
(PID.TID 0000.0001) // =======================================================
(PID.TID 0000.0001) 
(PID.TID 0000.0001) // =======================================================
(PID.TID 0000.0001) // Field hFacS at iteration          1
(PID.TID 0000.0001) // CMIN =          1.000000000000000E+00
(PID.TID 0000.0001) // CMAX =          1.000000000000000E+00
(PID.TID 0000.0001) // CINT =          0.000000000000000E+00
(PID.TID 0000.0001) // SYMBOLS (CMIN->CMAX): -abcdefghijklmnopqrstuvwxyz+
(PID.TID 0000.0001) //                  0.0: .
(PID.TID 0000.0001) // RANGE I (Lo:Hi:Step):(  -1:  92:   1)
(PID.TID 0000.0001) // RANGE J (Lo:Hi:Step):(  42:  -1:  -1)
(PID.TID 0000.0001) // RANGE K (Lo:Hi:Step):(   1:   1:   1)
(PID.TID 0000.0001) // =======================================================
(PID.TID 0000.0001) K =   1
(PID.TID 0000.0001) //                I=8       I=18      I=28      I=38      I=48      I=58      I=68      I=78      I=88
(PID.TID 0000.0001) // |--J--|*01234567|901234567|901234567|901234567|901234567|901234567|901234567|901234567|901234567|9012
(PID.TID 0000.0001) //     42 ..............................................................................................
(PID.TID 0000.0001) //     41 ..............................................................................................
(PID.TID 0000.0001) //     40 -------.--------...--..................................................................-------
(PID.TID 0000.0001) //     39 ---------------...........................................................----........--------
(PID.TID 0000.0001) //     38 -----.......................................................................---......--.------
(PID.TID 0000.0001) //     37 ----...................................................................--...---...-----.------
(PID.TID 0000.0001) //     36 ----.........................................----....................---....----.-------------
(PID.TID 0000.0001) //     35 .....................................----..-------...-----...................-------------....
(PID.TID 0000.0001) //     34 ......................................---.--------.--------...................------------....
(PID.TID 0000.0001) //     33 -.....................................-----------------------.................-------------...
(PID.TID 0000.0001) //     32 ......................................-----------------------................-------------....
(PID.TID 0000.0001) //     31 ......................................-----------------------..............---------------....
(PID.TID 0000.0001) //     30 .....................................------------------------............-----------------....
(PID.TID 0000.0001) //     29 ...................................---------------------------...........-----------------....
(PID.TID 0000.0001) //     28 .................................------------------------------.........----------------......
(PID.TID 0000.0001) //     27 ................--..............--------------------------------...----.----------------......
(PID.TID 0000.0001) //     26 ................---...........------------------------------------....------------------......
(PID.TID 0000.0001) //     25 ................----...---...---.----------------------------------....-----------------......
(PID.TID 0000.0001) //     24 ..............-------.----...---..------------------------------------.....-------------......
(PID.TID 0000.0001) //     23 ..............-------.----...--...-------------------------------------.......----------......
(PID.TID 0000.0001) //     22 ---...........------------......----------------------------------------........-------------.
(PID.TID 0000.0001) //     21 -----........--------------......-.-------------------------------------.........-------------
(PID.TID 0000.0001) //     20 -----.......---------------......-......--------------------------------...........-----------
(PID.TID 0000.0001) //     19 -----.......-----------------...---.....--------------------------------...........-----------
(PID.TID 0000.0001) //     18 -----.......-.-------------------.....-----------------------------------..........-----------
(PID.TID 0000.0001) //     17 -----.......-.------------------.......----------------------------------.........------------
(PID.TID 0000.0001) //     16 -----......--.-----------------.........----------------------------------........------------
(PID.TID 0000.0001) //     15 ------....---.-----------------.........-----------------------------------......-------------
(PID.TID 0000.0001) //     14 ------....---------------------.........-----------------------------------.....--------------
(PID.TID 0000.0001) //     13 ------....---------------------.........----------------------------------.....---------------
(PID.TID 0000.0001) //     12 ------------------------------------....-----.----------------------------.....---------------
(PID.TID 0000.0001) //     11 -------------------------------------..------.----------------------------....----------------
(PID.TID 0000.0001) //     10 --------------------------------------.-----..----------------------------..------------------
(PID.TID 0000.0001) //      9 --------------------------------------------.-----------------------------.-------------------
(PID.TID 0000.0001) //      8 --------------------------------------------------------------------------.-------------------
(PID.TID 0000.0001) //      7 ----------------------------------------------------------------------------------------------
(PID.TID 0000.0001) //      6 ----------------------------------------------------------------------------------------------
(PID.TID 0000.0001) //      5 ----------------------------------------------------------------------------..----------------
(PID.TID 0000.0001) //      4 ------------............................-----------------------------------...----------------
(PID.TID 0000.0001) //      3 ............................................----------------------..----.....------------.....
(PID.TID 0000.0001) //      2 ..............................................................................................
(PID.TID 0000.0001) //      1 ..............................................................................................
(PID.TID 0000.0001) //      0 -------.--------...--..................................................................-------
(PID.TID 0000.0001) //     -1 ---------------...........................................................----........--------
(PID.TID 0000.0001) // =======================================================
(PID.TID 0000.0001) // END OF FIELD                                          =
(PID.TID 0000.0001) // =======================================================
(PID.TID 0000.0001) 
(PID.TID 0000.0001)  PACKAGES_BOOT: opening data.pkg
(PID.TID 0000.0001)  OPEN_COPY_DATA_FILE: opening file data.pkg
(PID.TID 0000.0001) // =======================================================
(PID.TID 0000.0001) // Parameter file "data.pkg"
(PID.TID 0000.0001) // =======================================================
(PID.TID 0000.0001) ># Packages
(PID.TID 0000.0001) > &PACKAGES
(PID.TID 0000.0001) > useGMRedi=.TRUE.,
(PID.TID 0000.0001) ># use genmake with  -enable=ptracers  before uncommenting this line.
(PID.TID 0000.0001) >#usePTRACERS=.TRUE.,
(PID.TID 0000.0001) > &
(PID.TID 0000.0001) >
(PID.TID 0000.0001) 
(PID.TID 0000.0001)  PACKAGES_BOOT: finished reading data.pkg
(PID.TID 0000.0001)  GM_READPARMS: opening data.gmredi
(PID.TID 0000.0001)  OPEN_COPY_DATA_FILE: opening file data.gmredi
(PID.TID 0000.0001) // =======================================================
(PID.TID 0000.0001) // Parameter file "data.gmredi"
(PID.TID 0000.0001) // =======================================================
(PID.TID 0000.0001) ># GM+Redi package parameters:
(PID.TID 0000.0001) >
(PID.TID 0000.0001) >#-from MOM :
(PID.TID 0000.0001) ># GM_background_K: 	G & Mc.W  diffusion coefficient
(PID.TID 0000.0001) ># GM_maxSlope    :	max slope of isopycnals
(PID.TID 0000.0001) ># GM_Scrit       :	transition for scaling diffusion coefficient
(PID.TID 0000.0001) ># GM_Sd          :	half width scaling for diffusion coefficient
(PID.TID 0000.0001) ># GM_taper_scheme:	slope clipping or one of the tapering schemes
(PID.TID 0000.0001) ># GM_Kmin_horiz  :	horizontal diffusion minimum value
(PID.TID 0000.0001) >
(PID.TID 0000.0001) >#-Option parameters (needs to "define" options in GMREDI_OPTIONS.h")
(PID.TID 0000.0001) ># GM_isopycK     :	isopycnal diffusion coefficient (default=GM_background_K)
(PID.TID 0000.0001) ># GM_AdvForm     :	turn on GM Advective form       (default=Skew flux form)
(PID.TID 0000.0001) >
(PID.TID 0000.0001) > &GM_PARM01
(PID.TID 0000.0001) >  GM_background_K    = 1.e+3,
(PID.TID 0000.0001) >  GM_taper_scheme    = 'gkw91',
(PID.TID 0000.0001) >  GM_maxSlope        = 1.e-2,
(PID.TID 0000.0001) >  GM_Kmin_horiz      = 50.,
(PID.TID 0000.0001) >  GM_Scrit           = 4.e-3,
(PID.TID 0000.0001) >  GM_Sd              = 1.e-3,
(PID.TID 0000.0001) ># GM_Visbeck_alpha   = 0.,
(PID.TID 0000.0001) ># GM_Visbeck_length  = 2.e+5,
(PID.TID 0000.0001) ># GM_Visbeck_depth   = 1.e+3,
(PID.TID 0000.0001) ># GM_Visbeck_maxval_K= 2.5e+3,
(PID.TID 0000.0001) > &end
(PID.TID 0000.0001) >
(PID.TID 0000.0001) >
(PID.TID 0000.0001) 
(PID.TID 0000.0001)  GM_READPARMS: finished reading data.gmredi
(PID.TID 0000.0001) GMREDI_CHECK: #define GMREDI
(PID.TID 0000.0001) GM_AdvForm =  /* if FALSE => use SkewFlux Form */
(PID.TID 0000.0001)                   F
(PID.TID 0000.0001)     ;
(PID.TID 0000.0001) GM_AdvSeparate = /* Calc Bolus & Euler Adv. separately */
(PID.TID 0000.0001)                   F
(PID.TID 0000.0001)     ;
(PID.TID 0000.0001) GM_ExtraDiag =  /* Tensor Extra Diag (line 1&2) non 0 */
(PID.TID 0000.0001)                   F
(PID.TID 0000.0001)     ;
(PID.TID 0000.0001) GM_isopycK =   /* Background Isopyc. Diffusivity ( m^2/s ) */
(PID.TID 0000.0001)                 1.000000000000000E+03
(PID.TID 0000.0001)     ;
(PID.TID 0000.0001)  GM_skewflx*K =   /* Background GM_SkewFlx Diffusivity ( m^2/s ) */
(PID.TID 0000.0001)                 1.000000000000000E+03
(PID.TID 0000.0001)     ;
(PID.TID 0000.0001)  GM_advec*K =   /* Backg. GM-Advec(=Bolus) Diffusivity ( m^2/s ) */
(PID.TID 0000.0001)                 0.000000000000000E+00
(PID.TID 0000.0001)     ;
(PID.TID 0000.0001)  GM_Visbeck_alpha =   /* Visbeck alpha coeff. ( ) */
(PID.TID 0000.0001)                 0.000000000000000E+00
(PID.TID 0000.0001)     ;
(PID.TID 0000.0001)  Tapering/Cliping : gkw91
(PID.TID 0000.0001)  GM_Small_Number =  /* epsilon used in slope calc */
(PID.TID 0000.0001)                 1.000000000000000E-12
(PID.TID 0000.0001)     ;
(PID.TID 0000.0001)  GM_slopeSqCutoff =  /* Slope^2 cut-off value */
(PID.TID 0000.0001)                 1.000000000000000E+48
(PID.TID 0000.0001)     ;
(PID.TID 0000.0001) 
(PID.TID 0000.0001) // ===================================
(PID.TID 0000.0001) // GAD parameters :
(PID.TID 0000.0001) // ===================================
(PID.TID 0000.0001) tempAdvScheme =   /* Temp. advection scheme selector */
(PID.TID 0000.0001)                       2
(PID.TID 0000.0001)     ;
(PID.TID 0000.0001) tempMultiDimAdvec =   /* use Muti-Dim Advec method for Temp */
(PID.TID 0000.0001)                   F
(PID.TID 0000.0001)     ;
(PID.TID 0000.0001) tempAdamsBashforth =   /* use Adams-Bashforth time-stepping for Temp */
(PID.TID 0000.0001)                   T
(PID.TID 0000.0001)     ;
(PID.TID 0000.0001) saltAdvScheme =   /* Salt. advection scheme selector */
(PID.TID 0000.0001)                       2
(PID.TID 0000.0001)     ;
(PID.TID 0000.0001) saltMultiDimAdvec =   /* use Muti-Dim Advec method for Salt */
(PID.TID 0000.0001)                   F
(PID.TID 0000.0001)     ;
(PID.TID 0000.0001) saltAdamsBashforth =   /* use Adams-Bashforth time-stepping for Salt */
(PID.TID 0000.0001)                   T
(PID.TID 0000.0001)     ;
(PID.TID 0000.0001) // ===================================
(PID.TID 0000.0001) %MON fCori_max                    =   1.4226580169407E-04
(PID.TID 0000.0001) %MON fCori_min                    =  -1.4226580169407E-04
(PID.TID 0000.0001) %MON fCori_mean                   =   7.5291817533716E-23
(PID.TID 0000.0001) %MON fCori_sd                     =   9.6335367303778E-05
(PID.TID 0000.0001) %MON fCoriG_max                   =   1.4112379284621E-04
(PID.TID 0000.0001) %MON fCoriG_min                   =  -1.4323448157692E-04
(PID.TID 0000.0001) %MON fCoriG_mean                  =  -3.6726790147928E-06
(PID.TID 0000.0001) %MON fCoriG_sd                    =   9.7510077443652E-05
(PID.TID 0000.0001) %MON fCoriCos_max                 =   1.4535550371427E-04
(PID.TID 0000.0001) %MON fCoriCos_min                 =   3.0239529651320E-05
(PID.TID 0000.0001) %MON fCoriCos_mean                =   1.0260497651149E-04
(PID.TID 0000.0001) %MON fCoriCos_sd                  =   3.6683828681187E-05
(PID.TID 0000.0001) // CG2D normalisation factor =          0.6568267742571170272718184E-04
(PID.TID 0000.0001) 
(PID.TID 0000.0001) CONFIG_CHECK: OK
(PID.TID 0000.0001) // =======================================================
(PID.TID 0000.0001) // Model configuration
(PID.TID 0000.0001) // =======================================================
(PID.TID 0000.0001) //
(PID.TID 0000.0001) // "Physical" paramters ( PARM01 in namelist )
(PID.TID 0000.0001) //
(PID.TID 0000.0001) buoyancyRelation = OCEANIC
(PID.TID 0000.0001) tRef =   /* Reference temperature profile ( oC or oK ) */
(PID.TID 0000.0001)    15 @  2.000000000000000E+01              /* K =  1: 15 */
(PID.TID 0000.0001)     ;
(PID.TID 0000.0001) sRef =   /* Reference salinity profile ( ppt ) */
(PID.TID 0000.0001)    15 @  3.500000000000000E+01              /* K =  1: 15 */
(PID.TID 0000.0001)     ;
(PID.TID 0000.0001) viscAh =   /* Lateral eddy viscosity ( m^2/s ) */
(PID.TID 0000.0001)                 5.000000000000000E+05
(PID.TID 0000.0001)     ;
(PID.TID 0000.0001) viscAh =   /* Lateral biharmonic viscosity ( m^4/s ) */
(PID.TID 0000.0001)                 0.000000000000000E+00
(PID.TID 0000.0001)     ;
(PID.TID 0000.0001) no_slip_sides =  /* Viscous BCs: No-slip sides */
(PID.TID 0000.0001)                   T
(PID.TID 0000.0001)     ;
(PID.TID 0000.0001) viscAr =   /* Vertical eddy viscosity ( units of r^2/s ) */
(PID.TID 0000.0001)                 1.000000000000000E-03
(PID.TID 0000.0001)     ;
(PID.TID 0000.0001) diffKhT =   /* Laplacian diffusion of heat laterally ( m^2/s ) */
(PID.TID 0000.0001)                 0.000000000000000E+00
(PID.TID 0000.0001)     ;
(PID.TID 0000.0001) diffK4T =   /* Bihaarmonic diffusion of heat laterally ( m^4/s ) */
(PID.TID 0000.0001)                 0.000000000000000E+00
(PID.TID 0000.0001)     ;
(PID.TID 0000.0001) diffKzT =   /* Laplacian diffusion of heat vertically ( m^2/s ) */
(PID.TID 0000.0001)                 1.234567000000000E+05
(PID.TID 0000.0001)     ;
(PID.TID 0000.0001) diffKrT =   /* Laplacian diffusion of heat vertically ( m^2/s ) */
(PID.TID 0000.0001)                 3.000000000000000E-05
(PID.TID 0000.0001)     ;
(PID.TID 0000.0001) diffKhS =   /* Laplacian diffusion of salt laterally ( m^2/s ) */
(PID.TID 0000.0001)                 0.000000000000000E+00
(PID.TID 0000.0001)     ;
(PID.TID 0000.0001) diffK4S =   /* Bihaarmonic diffusion of salt laterally ( m^4/s ) */
(PID.TID 0000.0001)                 0.000000000000000E+00
(PID.TID 0000.0001)     ;
(PID.TID 0000.0001) diffKzS =   /* Laplacian diffusion of salt vertically ( m^2/s ) */
(PID.TID 0000.0001)                 1.234567000000000E+05
(PID.TID 0000.0001)     ;
(PID.TID 0000.0001) diffKrS =   /* Laplacian diffusion of salt vertically ( m^2/s ) */
(PID.TID 0000.0001)                 3.000000000000000E-05
(PID.TID 0000.0001)     ;
(PID.TID 0000.0001)  Equation of State : eosType = POLY3
(PID.TID 0000.0001) tAlpha =   /* Linear EOS thermal expansion coefficient ( 1/degree ) */
(PID.TID 0000.0001)                 1.234567000000000E+05
(PID.TID 0000.0001)     ;
(PID.TID 0000.0001) sBeta =   /* Linear EOS haline contraction coefficient ( 1/ppt ) */
(PID.TID 0000.0001)                 1.234567000000000E+05
(PID.TID 0000.0001)     ;
(PID.TID 0000.0001)   1  13.497  32.600  24.548  -0.202   0.773  -0.005  -0.002   0.000   0.000   0.000   0.000   0.000
(PID.TID 0000.0001)   2  13.488  32.600  24.819  -0.204   0.773  -0.005  -0.002   0.000   0.000   0.000   0.000   0.000
(PID.TID 0000.0001)   3  13.476  32.600  25.201  -0.205   0.772  -0.005  -0.002   0.000   0.000   0.000   0.000   0.000
(PID.TID 0000.0001)   4   8.469  35.150  28.642  -0.163   0.784  -0.005  -0.002   0.000   0.000   0.000   0.000   0.000
(PID.TID 0000.0001)   5   8.451  35.150  29.393  -0.167   0.782  -0.005  -0.002   0.000   0.000   0.000   0.000   0.000
(PID.TID 0000.0001)   6   5.940  34.900  30.563  -0.144   0.786  -0.005  -0.002  -0.001   0.000   0.000   0.000   0.000
(PID.TID 0000.0001)   7   4.425  34.900  31.985  -0.134   0.788  -0.005  -0.003   0.000   0.000   0.000   0.000   0.000
(PID.TID 0000.0001)   8   2.911  34.750  33.505  -0.125   0.789  -0.006  -0.003   0.000   0.000   0.000   0.000   0.000
(PID.TID 0000.0001)   9   1.893  34.800  35.341  -0.123   0.789  -0.006  -0.003   0.000   0.000   0.000   0.000   0.000
(PID.TID 0000.0001)  10   1.367  34.800  37.299  -0.129   0.787  -0.006  -0.003   0.000   0.000   0.000   0.000   0.000
(PID.TID 0000.0001)  11   1.327  34.800  39.405  -0.141   0.783  -0.005  -0.003   0.000   0.000   0.000   0.000   0.000
(PID.TID 0000.0001)  12   0.791  34.800  41.788  -0.149   0.780  -0.005  -0.003   0.000   0.000   0.000   0.000   0.000
(PID.TID 0000.0001)  13   0.736  34.750  44.259  -0.164   0.776  -0.005  -0.002   0.000   0.000   0.000   0.000   0.000
(PID.TID 0000.0001)  14   0.186  34.750  47.044  -0.175   0.773  -0.005  -0.002   0.000   0.000   0.000   0.000   0.000
(PID.TID 0000.0001)  15   0.595  34.750  49.835  -0.196   0.767  -0.004  -0.002   0.000   0.000   0.000   0.000   0.000
(PID.TID 0000.0001) rhonil =   /* Reference density ( kg/m^3 ) */
(PID.TID 0000.0001)                 1.035000000000000E+03
(PID.TID 0000.0001)     ;
(PID.TID 0000.0001) rhoConst =   /* Reference density ( kg/m^3 ) */
(PID.TID 0000.0001)                 1.035000000000000E+03
(PID.TID 0000.0001)     ;
(PID.TID 0000.0001) rhoConstFresh =   /* Reference density ( kg/m^3 ) */
(PID.TID 0000.0001)                 9.998000000000000E+02
(PID.TID 0000.0001)     ;
(PID.TID 0000.0001) gravity =   /* Gravitational acceleration ( m/s^2 ) */
(PID.TID 0000.0001)                 9.810000000000000E+00
(PID.TID 0000.0001)     ;
(PID.TID 0000.0001) gBaro =   /* Barotropic gravity ( m/s^2 ) */
(PID.TID 0000.0001)                 9.810000000000000E+00
(PID.TID 0000.0001)     ;
(PID.TID 0000.0001) rotationPeriod =   /* Rotation Period ( s ) */
(PID.TID 0000.0001)                 8.640000000000000E+04
(PID.TID 0000.0001)     ;
(PID.TID 0000.0001) omega =   /* Angular velocity ( rad/s ) */
(PID.TID 0000.0001)                 7.272205216643040E-05
(PID.TID 0000.0001)     ;
(PID.TID 0000.0001) f0 =   /* Reference coriolis parameter ( 1/s ) */
(PID.TID 0000.0001)                 1.000000000000000E-04
(PID.TID 0000.0001)     ;
(PID.TID 0000.0001) beta =   /* Beta ( 1/(m.s) ) */
(PID.TID 0000.0001)                 9.999999999999999E-12
(PID.TID 0000.0001)     ;
(PID.TID 0000.0001) freeSurfFac =   /* Implicit free surface factor */
(PID.TID 0000.0001)                 1.000000000000000E+00
(PID.TID 0000.0001)     ;
(PID.TID 0000.0001) implicitFreeSurface =   /* Implicit free surface on/off flag */
(PID.TID 0000.0001)                   T
(PID.TID 0000.0001)     ;
(PID.TID 0000.0001) rigidLid =   /* Rigid lid on/off flag */
(PID.TID 0000.0001)                   F
(PID.TID 0000.0001)     ;
(PID.TID 0000.0001) implicSurfPress =   /* Surface Pressure implicit factor (0-1)*/
(PID.TID 0000.0001)                 1.000000000000000E+00
(PID.TID 0000.0001)     ;
(PID.TID 0000.0001) implicDiv2Dflow =   /* Barot. Flow Div. implicit factor (0-1)*/
(PID.TID 0000.0001)                 1.000000000000000E+00
(PID.TID 0000.0001)     ;
(PID.TID 0000.0001) exactConserv =   /* Exact Volume Conservation on/off flag*/
(PID.TID 0000.0001)                   F
(PID.TID 0000.0001)     ;
(PID.TID 0000.0001) uniformLin_PhiSurf =   /* use uniform Bo_surf on/off flag*/
(PID.TID 0000.0001)                   T
(PID.TID 0000.0001)     ;
(PID.TID 0000.0001) nonlinFreeSurf =   /* Non-linear Free Surf. options (-1,0,1,2,3)*/
(PID.TID 0000.0001)                       0
(PID.TID 0000.0001)     ;
(PID.TID 0000.0001)      -1,0= Off ; 1,2,3= On, 2=+rescale gU,gV, 3=+update cg2d solv.
(PID.TID 0000.0001) hFacInf =   /* lower threshold for hFac (nonlinFreeSurf only)*/
(PID.TID 0000.0001)                 2.000000000000000E-01
(PID.TID 0000.0001)     ;
(PID.TID 0000.0001) hFacSup =   /* upper threshold for hFac (nonlinFreeSurf only)*/
(PID.TID 0000.0001)                 2.000000000000000E+00
(PID.TID 0000.0001)     ;
(PID.TID 0000.0001) select_rStar =   /* r* Coordinate options (not yet implemented)*/
(PID.TID 0000.0001)                       0
(PID.TID 0000.0001)     ;
(PID.TID 0000.0001) useRealFreshWaterFlux =   /* Real Fresh Water Flux on/off flag*/
(PID.TID 0000.0001)                   T
(PID.TID 0000.0001)     ;
(PID.TID 0000.0001) convertFW2Salt = /* convert F.W. Flux to Salt Flux (-1=use local S)(ppt)*/
(PID.TID 0000.0001)                -1.000000000000000E+00
(PID.TID 0000.0001)     ;
(PID.TID 0000.0001) multiDimAdvection =   /* enable/disable Multi-Dim Advection */
(PID.TID 0000.0001)                   T
(PID.TID 0000.0001)     ;
(PID.TID 0000.0001) staggerTimeStep =   /* Stagger time stepping on/off flag */
(PID.TID 0000.0001)                   F
(PID.TID 0000.0001)     ;
(PID.TID 0000.0001) momStepping =  /* Momentum equation on/off flag */
(PID.TID 0000.0001)                   T
(PID.TID 0000.0001)     ;
(PID.TID 0000.0001) momAdvection =  /* Momentum advection on/off flag */
(PID.TID 0000.0001)                   T
(PID.TID 0000.0001)     ;
(PID.TID 0000.0001) momViscosity =  /* Momentum viscosity on/off flag */
(PID.TID 0000.0001)                   T
(PID.TID 0000.0001)     ;
(PID.TID 0000.0001) useCoriolis =  /* Coriolis on/off flag */
(PID.TID 0000.0001)                   T
(PID.TID 0000.0001)     ;
(PID.TID 0000.0001) momForcing =  /* Momentum forcing on/off flag */
(PID.TID 0000.0001)                   T
(PID.TID 0000.0001)     ;
(PID.TID 0000.0001) momPressureForcing =  /* Momentum pressure term on/off flag */
(PID.TID 0000.0001)                   T
(PID.TID 0000.0001)     ;
(PID.TID 0000.0001) tempStepping =  /* Temperature equation on/off flag */
(PID.TID 0000.0001)                   T
(PID.TID 0000.0001)     ;
(PID.TID 0000.0001) tempAdvection=  /* Temperature advection on/off flag */
(PID.TID 0000.0001)                   T
(PID.TID 0000.0001)     ;
(PID.TID 0000.0001) tempForcing  =  /* Temperature forcing on/off flag */
(PID.TID 0000.0001)                   T
(PID.TID 0000.0001)     ;
(PID.TID 0000.0001) saltStepping =  /* Salinity equation on/off flag */
(PID.TID 0000.0001)                   T
(PID.TID 0000.0001)     ;
(PID.TID 0000.0001) saltAdvection=  /* Salinity advection on/off flag */
(PID.TID 0000.0001)                   T
(PID.TID 0000.0001)     ;
(PID.TID 0000.0001) saltForcing  =  /* Salinity forcing on/off flag */
(PID.TID 0000.0001)                   T
(PID.TID 0000.0001)     ;
(PID.TID 0000.0001) nonHydrostatic =  /* Non-Hydrostatic on/off flag */
(PID.TID 0000.0001)                   F
(PID.TID 0000.0001)     ;
(PID.TID 0000.0001) useCDscheme =  /* CD scheme on/off flag */
(PID.TID 0000.0001)                   T
(PID.TID 0000.0001)     ;
(PID.TID 0000.0001) useJamartWetPoints= /* Coriolis WetPoints method flag */
(PID.TID 0000.0001)                   F
(PID.TID 0000.0001)     ;
(PID.TID 0000.0001) //
(PID.TID 0000.0001) // Elliptic solver(s) paramters ( PARM02 in namelist )
(PID.TID 0000.0001) //
(PID.TID 0000.0001) cg2dMaxIters =   /* Upper limit on 2d con. grad iterations  */
(PID.TID 0000.0001)                     500
(PID.TID 0000.0001)     ;
(PID.TID 0000.0001) cg2dChkResFreq =   /* 2d con. grad convergence test frequency */
(PID.TID 0000.0001)                       1
(PID.TID 0000.0001)     ;
(PID.TID 0000.0001) cg2dTargetResidual =   /* 2d con. grad target residual  */
(PID.TID 0000.0001)                 1.000000000000000E-13
(PID.TID 0000.0001)     ;
(PID.TID 0000.0001) //
(PID.TID 0000.0001) // Time stepping paramters ( PARM03 in namelist )
(PID.TID 0000.0001) //
(PID.TID 0000.0001) nIter0 =   /* Base timestep number  */
(PID.TID 0000.0001)                       0
(PID.TID 0000.0001)     ;
(PID.TID 0000.0001) nTimeSteps =   /* Number of timesteps */
(PID.TID 0000.0001)                      20
(PID.TID 0000.0001)     ;
(PID.TID 0000.0001) deltatTmom =   /* Momentum equation timestep ( s ) */
(PID.TID 0000.0001)                 1.200000000000000E+03
(PID.TID 0000.0001)     ;
(PID.TID 0000.0001) deltaTfreesurf =   /* FreeSurface equation timestep ( s ) */
(PID.TID 0000.0001)                 1.200000000000000E+03
(PID.TID 0000.0001)     ;
(PID.TID 0000.0001) deltatTtracer =   /* Tracer equation timestep ( s ) */
(PID.TID 0000.0001)                 4.320000000000000E+04
(PID.TID 0000.0001)     ;
(PID.TID 0000.0001) deltatTClock  =   /* Model clock timestep ( s ) */
(PID.TID 0000.0001)                 4.320000000000000E+04
(PID.TID 0000.0001)     ;
(PID.TID 0000.0001) cAdjFreq =   /* Convective adjustment interval ( s ) */
(PID.TID 0000.0001)                 0.000000000000000E+00
(PID.TID 0000.0001)     ;
(PID.TID 0000.0001) forcing_In_AB =   /* put T,S Forcing in Adams-Bash. stepping */
(PID.TID 0000.0001)                   T
(PID.TID 0000.0001)     ;
(PID.TID 0000.0001) abeps =   /* Adams-Bashforth stabilizing weight */
(PID.TID 0000.0001)                 1.000000000000000E-01
(PID.TID 0000.0001)     ;
(PID.TID 0000.0001) tauCD =   /* CD coupling time-scale ( s ) */
(PID.TID 0000.0001)                 3.214280000000000E+05
(PID.TID 0000.0001)     ;
(PID.TID 0000.0001) rCD =   /* Normalised CD coupling parameter */
(PID.TID 0000.0001)                 9.962666600296178E-01
(PID.TID 0000.0001)     ;
(PID.TID 0000.0001) startTime =   /* Run start time ( s ). */
(PID.TID 0000.0001)                 0.000000000000000E+00
(PID.TID 0000.0001)     ;
(PID.TID 0000.0001) endTime =   /* Integration ending time ( s ). */
(PID.TID 0000.0001)                 8.640000000000000E+05
(PID.TID 0000.0001)     ;
(PID.TID 0000.0001) pChkPtFreq =   /* Permanent restart/checkpoint file interval ( s ). */
(PID.TID 0000.0001)                 3.110400000000000E+08
(PID.TID 0000.0001)     ;
(PID.TID 0000.0001) chkPtFreq =   /* Rolling restart/checkpoint file interval ( s ). */
(PID.TID 0000.0001)                 0.000000000000000E+00
(PID.TID 0000.0001)     ;
(PID.TID 0000.0001) dumpFreq =   /* Model state write out interval ( s ). */
(PID.TID 0000.0001)                 8.640000000000000E+05
(PID.TID 0000.0001)     ;
(PID.TID 0000.0001) externForcingPeriod =   /* forcing period (s) */
(PID.TID 0000.0001)                 2.592000000000000E+06
(PID.TID 0000.0001)     ;
(PID.TID 0000.0001) externForcingCycle =   /* period of the cyle (s). */
(PID.TID 0000.0001)                 3.110400000000000E+07
(PID.TID 0000.0001)     ;
(PID.TID 0000.0001) tauThetaClimRelax =   /* relaxation time scale (s) */
(PID.TID 0000.0001)                 5.184000000000000E+06
(PID.TID 0000.0001)     ;
(PID.TID 0000.0001) tauSaltClimRelax =   /* relaxation time scale (s) */
(PID.TID 0000.0001)                 1.555200000000000E+07
(PID.TID 0000.0001)     ;
(PID.TID 0000.0001) latBandClimRelax =   /* max. Lat. where relaxation */
(PID.TID 0000.0001)                 1.800000000000000E+02
(PID.TID 0000.0001)     ;
(PID.TID 0000.0001) //
(PID.TID 0000.0001) // Gridding paramters ( PARM04 in namelist )
(PID.TID 0000.0001) //
(PID.TID 0000.0001) usingCartesianGrid =   /* Cartesian coordinates flag ( True / False ) */
(PID.TID 0000.0001)                   F
(PID.TID 0000.0001)     ;
(PID.TID 0000.0001) usingSphericalPolarGrid =   /* Spherical coordinates flag ( True / False ) */
(PID.TID 0000.0001)                   T
(PID.TID 0000.0001)     ;
(PID.TID 0000.0001) groundAtK1 =   /* Lower Boundary (ground) at the surface(k=1) ( T / F ) */
(PID.TID 0000.0001)                   F
(PID.TID 0000.0001)     ;
(PID.TID 0000.0001) Ro_SeaLevel =   /* r(1) ( units of r ) */
(PID.TID 0000.0001)                 0.000000000000000E+00
(PID.TID 0000.0001)     ;
(PID.TID 0000.0001) rkFac =   /* minus Vertical index orientation  */
(PID.TID 0000.0001)                 1.000000000000000E+00
(PID.TID 0000.0001)     ;
(PID.TID 0000.0001) horiVertRatio =   /* Ratio on units : Horiz - Vertical */
(PID.TID 0000.0001)                 1.000000000000000E+00
(PID.TID 0000.0001)     ;
(PID.TID 0000.0001) drC =   /* C spacing ( units of r ) */
(PID.TID 0000.0001)                 2.500000000000000E+01,      /* K =  1 */
(PID.TID 0000.0001)                 6.000000000000000E+01,      /* K =  2 */
(PID.TID 0000.0001)                 8.500000000000000E+01,      /* K =  3 */
(PID.TID 0000.0001)                 1.200000000000000E+02,      /* K =  4 */
(PID.TID 0000.0001)                 1.650000000000000E+02,      /* K =  5 */
(PID.TID 0000.0001)                 2.150000000000000E+02,      /* K =  6 */
(PID.TID 0000.0001)                 2.650000000000000E+02,      /* K =  7 */
(PID.TID 0000.0001)                 3.150000000000000E+02,      /* K =  8 */
(PID.TID 0000.0001)                 3.650000000000000E+02,      /* K =  9 */
(PID.TID 0000.0001)                 4.150000000000000E+02,      /* K = 10 */
(PID.TID 0000.0001)                 4.650000000000000E+02,      /* K = 11 */
(PID.TID 0000.0001)                 5.150000000000000E+02,      /* K = 12 */
(PID.TID 0000.0001)                 5.650000000000000E+02,      /* K = 13 */
(PID.TID 0000.0001)                 6.150000000000000E+02,      /* K = 14 */
(PID.TID 0000.0001)                 6.650000000000000E+02       /* K = 15 */
(PID.TID 0000.0001)     ;
(PID.TID 0000.0001) drF =   /* W spacing ( units of r ) */
(PID.TID 0000.0001)                 5.000000000000000E+01,      /* K =  1 */
(PID.TID 0000.0001)                 7.000000000000000E+01,      /* K =  2 */
(PID.TID 0000.0001)                 1.000000000000000E+02,      /* K =  3 */
(PID.TID 0000.0001)                 1.400000000000000E+02,      /* K =  4 */
(PID.TID 0000.0001)                 1.900000000000000E+02,      /* K =  5 */
(PID.TID 0000.0001)                 2.400000000000000E+02,      /* K =  6 */
(PID.TID 0000.0001)                 2.900000000000000E+02,      /* K =  7 */
(PID.TID 0000.0001)                 3.400000000000000E+02,      /* K =  8 */
(PID.TID 0000.0001)                 3.900000000000000E+02,      /* K =  9 */
(PID.TID 0000.0001)                 4.400000000000000E+02,      /* K = 10 */
(PID.TID 0000.0001)                 4.900000000000000E+02,      /* K = 11 */
(PID.TID 0000.0001)                 5.400000000000000E+02,      /* K = 12 */
(PID.TID 0000.0001)                 5.900000000000000E+02,      /* K = 13 */
(PID.TID 0000.0001)                 6.400000000000000E+02,      /* K = 14 */
(PID.TID 0000.0001)                 6.900000000000000E+02       /* K = 15 */
(PID.TID 0000.0001)     ;
(PID.TID 0000.0001) delX =   /* U spacing ( m - cartesian, degrees - spherical ) */
(PID.TID 0000.0001)    90 @  4.000000000000000E+00              /* I =  1: 90 */
(PID.TID 0000.0001)     ;
(PID.TID 0000.0001) delY =   /* V spacing ( m - cartesian, degrees - spherical ) */
(PID.TID 0000.0001)    40 @  4.000000000000000E+00              /* J =  1: 40 */
(PID.TID 0000.0001)     ;
(PID.TID 0000.0001) phiMin =    /* South edge (ignored - cartesian, degrees - spherical ) */
(PID.TID 0000.0001)                -8.000000000000000E+01
(PID.TID 0000.0001)     ;
(PID.TID 0000.0001) thetaMin =    /* West edge ( ignored - cartesian, degrees - spherical ) */
(PID.TID 0000.0001)                 0.000000000000000E+00
(PID.TID 0000.0001)     ;
(PID.TID 0000.0001) rSphere =    /* Radius ( ignored - cartesian, m - spherical ) */
(PID.TID 0000.0001)                 6.370000000000000E+06
(PID.TID 0000.0001)     ;
(PID.TID 0000.0001) xcoord =   /* P-point X coord ( m - cartesian, degrees - spherical ) */
(PID.TID 0000.0001)                 2.000000000000000E+00,      /* I =  1 */
(PID.TID 0000.0001)                 6.000000000000000E+00,      /* I =  2 */
(PID.TID 0000.0001)                 1.000000000000000E+01,      /* I =  3 */
(PID.TID 0000.0001)                 1.400000000000000E+01,      /* I =  4 */
(PID.TID 0000.0001)                 1.800000000000000E+01,      /* I =  5 */
(PID.TID 0000.0001)                 2.200000000000000E+01,      /* I =  6 */
(PID.TID 0000.0001)                 2.600000000000000E+01,      /* I =  7 */
(PID.TID 0000.0001)                 3.000000000000000E+01,      /* I =  8 */
(PID.TID 0000.0001)                 3.400000000000000E+01,      /* I =  9 */
(PID.TID 0000.0001)                 3.800000000000000E+01,      /* I = 10 */
(PID.TID 0000.0001)                 4.200000000000000E+01,      /* I = 11 */
(PID.TID 0000.0001)                 4.600000000000000E+01,      /* I = 12 */
(PID.TID 0000.0001)                 5.000000000000000E+01,      /* I = 13 */
(PID.TID 0000.0001)                 5.400000000000000E+01,      /* I = 14 */
(PID.TID 0000.0001)                 5.800000000000000E+01,      /* I = 15 */
(PID.TID 0000.0001)                 6.200000000000000E+01,      /* I = 16 */
(PID.TID 0000.0001)                 6.600000000000000E+01,      /* I = 17 */
(PID.TID 0000.0001)                 7.000000000000000E+01,      /* I = 18 */
(PID.TID 0000.0001)                 7.400000000000000E+01,      /* I = 19 */
(PID.TID 0000.0001)                 7.800000000000000E+01,      /* I = 20 */
(PID.TID 0000.0001)                 8.200000000000000E+01,      /* I = 21 */
(PID.TID 0000.0001)                 8.600000000000000E+01,      /* I = 22 */
(PID.TID 0000.0001)                 9.000000000000000E+01,      /* I = 23 */
(PID.TID 0000.0001)                 9.400000000000000E+01,      /* I = 24 */
(PID.TID 0000.0001)                 9.800000000000000E+01,      /* I = 25 */
(PID.TID 0000.0001)                 1.020000000000000E+02,      /* I = 26 */
(PID.TID 0000.0001)                 1.060000000000000E+02,      /* I = 27 */
(PID.TID 0000.0001)                 1.100000000000000E+02,      /* I = 28 */
(PID.TID 0000.0001)                 1.140000000000000E+02,      /* I = 29 */
(PID.TID 0000.0001)                 1.180000000000000E+02,      /* I = 30 */
(PID.TID 0000.0001)                 1.220000000000000E+02,      /* I = 31 */
(PID.TID 0000.0001)                 1.260000000000000E+02,      /* I = 32 */
(PID.TID 0000.0001)                 1.300000000000000E+02,      /* I = 33 */
(PID.TID 0000.0001)                 1.340000000000000E+02,      /* I = 34 */
(PID.TID 0000.0001)                 1.380000000000000E+02,      /* I = 35 */
(PID.TID 0000.0001)                 1.420000000000000E+02,      /* I = 36 */
(PID.TID 0000.0001)                 1.460000000000000E+02,      /* I = 37 */
(PID.TID 0000.0001)                 1.500000000000000E+02,      /* I = 38 */
(PID.TID 0000.0001)                 1.540000000000000E+02,      /* I = 39 */
(PID.TID 0000.0001)                 1.580000000000000E+02,      /* I = 40 */
(PID.TID 0000.0001)                 1.620000000000000E+02,      /* I = 41 */
(PID.TID 0000.0001)                 1.660000000000000E+02,      /* I = 42 */
(PID.TID 0000.0001)                 1.700000000000000E+02,      /* I = 43 */
(PID.TID 0000.0001)                 1.740000000000000E+02,      /* I = 44 */
(PID.TID 0000.0001)                 1.780000000000000E+02,      /* I = 45 */
(PID.TID 0000.0001)                 1.820000000000000E+02,      /* I = 46 */
(PID.TID 0000.0001)                 1.860000000000000E+02,      /* I = 47 */
(PID.TID 0000.0001)                 1.900000000000000E+02,      /* I = 48 */
(PID.TID 0000.0001)                 1.940000000000000E+02,      /* I = 49 */
(PID.TID 0000.0001)                 1.980000000000000E+02,      /* I = 50 */
(PID.TID 0000.0001)                 2.020000000000000E+02,      /* I = 51 */
(PID.TID 0000.0001)                 2.060000000000000E+02,      /* I = 52 */
(PID.TID 0000.0001)                 2.100000000000000E+02,      /* I = 53 */
(PID.TID 0000.0001)                 2.140000000000000E+02,      /* I = 54 */
(PID.TID 0000.0001)                 2.180000000000000E+02,      /* I = 55 */
(PID.TID 0000.0001)                 2.220000000000000E+02,      /* I = 56 */
(PID.TID 0000.0001)                 2.260000000000000E+02,      /* I = 57 */
(PID.TID 0000.0001)                 2.300000000000000E+02,      /* I = 58 */
(PID.TID 0000.0001)                 2.340000000000000E+02,      /* I = 59 */
(PID.TID 0000.0001)                 2.380000000000000E+02,      /* I = 60 */
(PID.TID 0000.0001)                 2.420000000000000E+02,      /* I = 61 */
(PID.TID 0000.0001)                 2.460000000000000E+02,      /* I = 62 */
(PID.TID 0000.0001)                 2.500000000000000E+02,      /* I = 63 */
(PID.TID 0000.0001)                 2.540000000000000E+02,      /* I = 64 */
(PID.TID 0000.0001)                 2.580000000000000E+02,      /* I = 65 */
(PID.TID 0000.0001)                 2.620000000000000E+02,      /* I = 66 */
(PID.TID 0000.0001)                 2.660000000000000E+02,      /* I = 67 */
(PID.TID 0000.0001)                 2.700000000000000E+02,      /* I = 68 */
(PID.TID 0000.0001)                 2.740000000000000E+02,      /* I = 69 */
(PID.TID 0000.0001)                 2.780000000000000E+02,      /* I = 70 */
(PID.TID 0000.0001)                 2.820000000000000E+02,      /* I = 71 */
(PID.TID 0000.0001)                 2.860000000000000E+02,      /* I = 72 */
(PID.TID 0000.0001)                 2.900000000000000E+02,      /* I = 73 */
(PID.TID 0000.0001)                 2.940000000000000E+02,      /* I = 74 */
(PID.TID 0000.0001)                 2.980000000000000E+02,      /* I = 75 */
(PID.TID 0000.0001)                 3.020000000000000E+02,      /* I = 76 */
(PID.TID 0000.0001)                 3.060000000000000E+02,      /* I = 77 */
(PID.TID 0000.0001)                 3.100000000000000E+02,      /* I = 78 */
(PID.TID 0000.0001)                 3.140000000000000E+02,      /* I = 79 */
(PID.TID 0000.0001)                 3.180000000000000E+02,      /* I = 80 */
(PID.TID 0000.0001)                 3.220000000000000E+02,      /* I = 81 */
(PID.TID 0000.0001)                 3.260000000000000E+02,      /* I = 82 */
(PID.TID 0000.0001)                 3.300000000000000E+02,      /* I = 83 */
(PID.TID 0000.0001)                 3.340000000000000E+02,      /* I = 84 */
(PID.TID 0000.0001)                 3.380000000000000E+02,      /* I = 85 */
(PID.TID 0000.0001)                 3.420000000000000E+02,      /* I = 86 */
(PID.TID 0000.0001)                 3.460000000000000E+02,      /* I = 87 */
(PID.TID 0000.0001)                 3.500000000000000E+02,      /* I = 88 */
(PID.TID 0000.0001)                 3.540000000000000E+02,      /* I = 89 */
(PID.TID 0000.0001)                 3.580000000000000E+02       /* I = 90 */
(PID.TID 0000.0001)     ;
(PID.TID 0000.0001) ycoord =   /* P-point Y coord ( m - cartesian, degrees - spherical ) */
(PID.TID 0000.0001)                -7.800000000000000E+01,      /* J =  1 */
(PID.TID 0000.0001)                -7.400000000000000E+01,      /* J =  2 */
(PID.TID 0000.0001)                -7.000000000000000E+01,      /* J =  3 */
(PID.TID 0000.0001)                -6.600000000000000E+01,      /* J =  4 */
(PID.TID 0000.0001)                -6.200000000000000E+01,      /* J =  5 */
(PID.TID 0000.0001)                -5.800000000000000E+01,      /* J =  6 */
(PID.TID 0000.0001)                -5.400000000000000E+01,      /* J =  7 */
(PID.TID 0000.0001)                -5.000000000000000E+01,      /* J =  8 */
(PID.TID 0000.0001)                -4.600000000000000E+01,      /* J =  9 */
(PID.TID 0000.0001)                -4.200000000000000E+01,      /* J = 10 */
(PID.TID 0000.0001)                -3.800000000000000E+01,      /* J = 11 */
(PID.TID 0000.0001)                -3.400000000000000E+01,      /* J = 12 */
(PID.TID 0000.0001)                -3.000000000000000E+01,      /* J = 13 */
(PID.TID 0000.0001)                -2.600000000000000E+01,      /* J = 14 */
(PID.TID 0000.0001)                -2.200000000000000E+01,      /* J = 15 */
(PID.TID 0000.0001)                -1.800000000000000E+01,      /* J = 16 */
(PID.TID 0000.0001)                -1.400000000000000E+01,      /* J = 17 */
(PID.TID 0000.0001)                -1.000000000000000E+01,      /* J = 18 */
(PID.TID 0000.0001)                -6.000000000000000E+00,      /* J = 19 */
(PID.TID 0000.0001)                -2.000000000000000E+00,      /* J = 20 */
(PID.TID 0000.0001)                 2.000000000000000E+00,      /* J = 21 */
(PID.TID 0000.0001)                 6.000000000000000E+00,      /* J = 22 */
(PID.TID 0000.0001)                 1.000000000000000E+01,      /* J = 23 */
(PID.TID 0000.0001)                 1.400000000000000E+01,      /* J = 24 */
(PID.TID 0000.0001)                 1.800000000000000E+01,      /* J = 25 */
(PID.TID 0000.0001)                 2.200000000000000E+01,      /* J = 26 */
(PID.TID 0000.0001)                 2.600000000000000E+01,      /* J = 27 */
(PID.TID 0000.0001)                 3.000000000000000E+01,      /* J = 28 */
(PID.TID 0000.0001)                 3.400000000000000E+01,      /* J = 29 */
(PID.TID 0000.0001)                 3.800000000000000E+01,      /* J = 30 */
(PID.TID 0000.0001)                 4.200000000000000E+01,      /* J = 31 */
(PID.TID 0000.0001)                 4.600000000000000E+01,      /* J = 32 */
(PID.TID 0000.0001)                 5.000000000000000E+01,      /* J = 33 */
(PID.TID 0000.0001)                 5.400000000000000E+01,      /* J = 34 */
(PID.TID 0000.0001)                 5.800000000000000E+01,      /* J = 35 */
(PID.TID 0000.0001)                 6.200000000000000E+01,      /* J = 36 */
(PID.TID 0000.0001)                 6.600000000000000E+01,      /* J = 37 */
(PID.TID 0000.0001)                 7.000000000000000E+01,      /* J = 38 */
(PID.TID 0000.0001)                 7.400000000000000E+01,      /* J = 39 */
(PID.TID 0000.0001)                 7.800000000000000E+01       /* J = 40 */
(PID.TID 0000.0001)     ;
(PID.TID 0000.0001) rcoord =   /* P-point R coordinate (  units of r ) */
(PID.TID 0000.0001)                -2.500000000000000E+01,      /* K =  1 */
(PID.TID 0000.0001)                -8.500000000000000E+01,      /* K =  2 */
(PID.TID 0000.0001)                -1.700000000000000E+02,      /* K =  3 */
(PID.TID 0000.0001)                -2.900000000000000E+02,      /* K =  4 */
(PID.TID 0000.0001)                -4.550000000000000E+02,      /* K =  5 */
(PID.TID 0000.0001)                -6.700000000000000E+02,      /* K =  6 */
(PID.TID 0000.0001)                -9.350000000000000E+02,      /* K =  7 */
(PID.TID 0000.0001)                -1.250000000000000E+03,      /* K =  8 */
(PID.TID 0000.0001)                -1.615000000000000E+03,      /* K =  9 */
(PID.TID 0000.0001)                -2.030000000000000E+03,      /* K = 10 */
(PID.TID 0000.0001)                -2.495000000000000E+03,      /* K = 11 */
(PID.TID 0000.0001)                -3.010000000000000E+03,      /* K = 12 */
(PID.TID 0000.0001)                -3.575000000000000E+03,      /* K = 13 */
(PID.TID 0000.0001)                -4.190000000000000E+03,      /* K = 14 */
(PID.TID 0000.0001)                -4.855000000000000E+03       /* K = 15 */
(PID.TID 0000.0001)     ;
(PID.TID 0000.0001) rF =   /* W-Interf. R coordinate (  units of r ) */
(PID.TID 0000.0001)                 0.000000000000000E+00,      /* K =  1 */
(PID.TID 0000.0001)                -5.000000000000000E+01,      /* K =  2 */
(PID.TID 0000.0001)                -1.200000000000000E+02,      /* K =  3 */
(PID.TID 0000.0001)                -2.200000000000000E+02,      /* K =  4 */
(PID.TID 0000.0001)                -3.600000000000000E+02,      /* K =  5 */
(PID.TID 0000.0001)                -5.500000000000000E+02,      /* K =  6 */
(PID.TID 0000.0001)                -7.900000000000000E+02,      /* K =  7 */
(PID.TID 0000.0001)                -1.080000000000000E+03,      /* K =  8 */
(PID.TID 0000.0001)                -1.420000000000000E+03,      /* K =  9 */
(PID.TID 0000.0001)                -1.810000000000000E+03,      /* K = 10 */
(PID.TID 0000.0001)                -2.250000000000000E+03,      /* K = 11 */
(PID.TID 0000.0001)                -2.740000000000000E+03,      /* K = 12 */
(PID.TID 0000.0001)                -3.280000000000000E+03,      /* K = 13 */
(PID.TID 0000.0001)                -3.870000000000000E+03,      /* K = 14 */
(PID.TID 0000.0001)                -4.510000000000000E+03,      /* K = 15 */
(PID.TID 0000.0001)                -5.200000000000000E+03       /* K = 16 */
(PID.TID 0000.0001)     ;
(PID.TID 0000.0001) dxF =  /* dxF(:,1,:,1) ( m - cartesian, degrees - spherical ) */
(PID.TID 0000.0001)    90 @  9.246038586187513E+04              /* I =  1: 90 */
(PID.TID 0000.0001)     ;
(PID.TID 0000.0001) dxF =  /* dxF(1,:,1,:) ( m - cartesian, degrees - spherical ) */
(PID.TID 0000.0001)                 9.246038586187513E+04,      /* J =  1 */
(PID.TID 0000.0001)                 1.225786591246834E+05,      /* J =  2 */
(PID.TID 0000.0001)                 1.520997414818001E+05,      /* J =  3 */
(PID.TID 0000.0001)                 1.808798091874300E+05,      /* J =  4 */
(PID.TID 0000.0001)                 2.087786486446736E+05,      /* J =  5 */
(PID.TID 0000.0001)                 2.356603395120766E+05,      /* J =  6 */
(PID.TID 0000.0001)                 2.613939168938713E+05,      /* J =  7 */
(PID.TID 0000.0001)                 2.858540093877838E+05,      /* J =  8 */
(PID.TID 0000.0001)                 3.089214498819035E+05,      /* J =  9 */
(PID.TID 0000.0001)                 3.304838561248741E+05,      /* J = 10 */
(PID.TID 0000.0001)                 3.504361782409254E+05,      /* J = 11 */
(PID.TID 0000.0001)                 3.686812105223083E+05,      /* J = 12 */
(PID.TID 0000.0001)                 3.851300650057322E+05,      /* J = 13 */
(PID.TID 0000.0001)                 3.997026045255871E+05,      /* J = 14 */
(PID.TID 0000.0001)                 4.123278331341585E+05,      /* J = 15 */
(PID.TID 0000.0001)                 4.229442419867491E+05,      /* J = 16 */
(PID.TID 0000.0001)                 4.315001090065869E+05,      /* J = 17 */
(PID.TID 0000.0001)                 4.379537508695839E+05,      /* J = 18 */
(PID.TID 0000.0001)                 4.422737260813013E+05,      /* J = 19 */
(PID.TID 0000.0001)     2 @  4.444389881567501E+05,             /* J = 20: 21 */
(PID.TID 0000.0001)                 4.422737260813013E+05,      /* J = 22 */
(PID.TID 0000.0001)                 4.379537508695839E+05,      /* J = 23 */
(PID.TID 0000.0001)                 4.315001090065869E+05,      /* J = 24 */
(PID.TID 0000.0001)                 4.229442419867491E+05,      /* J = 25 */
(PID.TID 0000.0001)                 4.123278331341585E+05,      /* J = 26 */
(PID.TID 0000.0001)                 3.997026045255871E+05,      /* J = 27 */
(PID.TID 0000.0001)                 3.851300650057322E+05,      /* J = 28 */
(PID.TID 0000.0001)                 3.686812105223083E+05,      /* J = 29 */
(PID.TID 0000.0001)                 3.504361782409254E+05,      /* J = 30 */
(PID.TID 0000.0001)                 3.304838561248741E+05,      /* J = 31 */
(PID.TID 0000.0001)                 3.089214498819035E+05,      /* J = 32 */
(PID.TID 0000.0001)                 2.858540093877838E+05,      /* J = 33 */
(PID.TID 0000.0001)                 2.613939168938713E+05,      /* J = 34 */
(PID.TID 0000.0001)                 2.356603395120766E+05,      /* J = 35 */
(PID.TID 0000.0001)                 2.087786486446736E+05,      /* J = 36 */
(PID.TID 0000.0001)                 1.808798091874300E+05,      /* J = 37 */
(PID.TID 0000.0001)                 1.520997414818001E+05,      /* J = 38 */
(PID.TID 0000.0001)                 1.225786591246834E+05,      /* J = 39 */
(PID.TID 0000.0001)                 9.246038586187513E+04       /* J = 40 */
(PID.TID 0000.0001)     ;
(PID.TID 0000.0001) dyF =  /* dyF(:,1,:,1) ( m - cartesian, degrees - spherical ) */
(PID.TID 0000.0001)    90 @  4.447098934081552E+05              /* I =  1: 90 */
(PID.TID 0000.0001)     ;
(PID.TID 0000.0001) dyF =  /* dyF(1,:,1,:) ( m - cartesian, degrees - spherical ) */
(PID.TID 0000.0001)    40 @  4.447098934081552E+05              /* J =  1: 40 */
(PID.TID 0000.0001)     ;
(PID.TID 0000.0001) dxG =  /* dxG(:,1,:,1) ( m - cartesian, degrees - spherical ) */
(PID.TID 0000.0001)    90 @  7.722306258078101E+04              /* I =  1: 90 */
(PID.TID 0000.0001)     ;
(PID.TID 0000.0001) dxG =  /* dxG(1,:,1,:) ( m - cartesian, degrees - spherical ) */
(PID.TID 0000.0001)                 7.722306258078101E+04,      /* J =  1 */
(PID.TID 0000.0001)                 1.075850604052271E+05,      /* J =  2 */
(PID.TID 0000.0001)                 1.374229146297914E+05,      /* J =  3 */
(PID.TID 0000.0001)                 1.665912582279823E+05,      /* J =  4 */
(PID.TID 0000.0001)                 1.949479859617814E+05,      /* J =  5 */
(PID.TID 0000.0001)                 2.223549467040776E+05,      /* J =  6 */
(PID.TID 0000.0001)                 2.486786164970726E+05,      /* J =  7 */
(PID.TID 0000.0001)                 2.737907490675810E+05,      /* J =  8 */
(PID.TID 0000.0001)                 2.975690006299820E+05,      /* J =  9 */
(PID.TID 0000.0001)                 3.198975259328452E+05,      /* J = 10 */
(PID.TID 0000.0001)                 3.406675426453503E+05,      /* J = 11 */
(PID.TID 0000.0001)                 3.597778613338689E+05,      /* J = 12 */
(PID.TID 0000.0001)                 3.771353784467131E+05,      /* J = 13 */
(PID.TID 0000.0001)                 3.926555299052806E+05,      /* J = 14 */
(PID.TID 0000.0001)                 4.062627030917454E+05,      /* J = 15 */
(PID.TID 0000.0001)                 4.178906052261313E+05,      /* J = 16 */
(PID.TID 0000.0001)                 4.274825863380723E+05,      /* J = 17 */
(PID.TID 0000.0001)                 4.349919152597734E+05,      /* J = 18 */
(PID.TID 0000.0001)                 4.403820072955634E+05,      /* J = 19 */
(PID.TID 0000.0001)                 4.436266024588540E+05,      /* J = 20 */
(PID.TID 0000.0001)                 4.447098934081552E+05,      /* J = 21 */
(PID.TID 0000.0001)                 4.436266024588540E+05,      /* J = 22 */
(PID.TID 0000.0001)                 4.403820072955634E+05,      /* J = 23 */
(PID.TID 0000.0001)                 4.349919152597734E+05,      /* J = 24 */
(PID.TID 0000.0001)                 4.274825863380723E+05,      /* J = 25 */
(PID.TID 0000.0001)                 4.178906052261313E+05,      /* J = 26 */
(PID.TID 0000.0001)                 4.062627030917454E+05,      /* J = 27 */
(PID.TID 0000.0001)                 3.926555299052806E+05,      /* J = 28 */
(PID.TID 0000.0001)                 3.771353784467131E+05,      /* J = 29 */
(PID.TID 0000.0001)                 3.597778613338689E+05,      /* J = 30 */
(PID.TID 0000.0001)                 3.406675426453503E+05,      /* J = 31 */
(PID.TID 0000.0001)                 3.198975259328452E+05,      /* J = 32 */
(PID.TID 0000.0001)                 2.975690006299820E+05,      /* J = 33 */
(PID.TID 0000.0001)                 2.737907490675810E+05,      /* J = 34 */
(PID.TID 0000.0001)                 2.486786164970726E+05,      /* J = 35 */
(PID.TID 0000.0001)                 2.223549467040776E+05,      /* J = 36 */
(PID.TID 0000.0001)                 1.949479859617814E+05,      /* J = 37 */
(PID.TID 0000.0001)                 1.665912582279823E+05,      /* J = 38 */
(PID.TID 0000.0001)                 1.374229146297914E+05,      /* J = 39 */
(PID.TID 0000.0001)                 1.075850604052271E+05       /* J = 40 */
(PID.TID 0000.0001)     ;
(PID.TID 0000.0001) dyG =  /* dyG(:,1,:,1) ( m - cartesian, degrees - spherical ) */
(PID.TID 0000.0001)    90 @  4.447098934081552E+05              /* I =  1: 90 */
(PID.TID 0000.0001)     ;
(PID.TID 0000.0001) dyG =  /* dyG(1,:,1,:) ( m - cartesian, degrees - spherical ) */
(PID.TID 0000.0001)    40 @  4.447098934081552E+05              /* J =  1: 40 */
(PID.TID 0000.0001)     ;
(PID.TID 0000.0001) dxC =  /* dxC(:,1,:,1) ( m - cartesian, degrees - spherical ) */
(PID.TID 0000.0001)    90 @  9.246038586187513E+04              /* I =  1: 90 */
(PID.TID 0000.0001)     ;
(PID.TID 0000.0001) dxC =  /* dxC(1,:,1,:) ( m - cartesian, degrees - spherical ) */
(PID.TID 0000.0001)                 9.246038586187513E+04,      /* J =  1 */
(PID.TID 0000.0001)                 1.225786591246834E+05,      /* J =  2 */
(PID.TID 0000.0001)                 1.520997414818001E+05,      /* J =  3 */
(PID.TID 0000.0001)                 1.808798091874300E+05,      /* J =  4 */
(PID.TID 0000.0001)                 2.087786486446736E+05,      /* J =  5 */
(PID.TID 0000.0001)                 2.356603395120766E+05,      /* J =  6 */
(PID.TID 0000.0001)                 2.613939168938713E+05,      /* J =  7 */
(PID.TID 0000.0001)                 2.858540093877838E+05,      /* J =  8 */
(PID.TID 0000.0001)                 3.089214498819035E+05,      /* J =  9 */
(PID.TID 0000.0001)                 3.304838561248741E+05,      /* J = 10 */
(PID.TID 0000.0001)                 3.504361782409254E+05,      /* J = 11 */
(PID.TID 0000.0001)                 3.686812105223083E+05,      /* J = 12 */
(PID.TID 0000.0001)                 3.851300650057322E+05,      /* J = 13 */
(PID.TID 0000.0001)                 3.997026045255871E+05,      /* J = 14 */
(PID.TID 0000.0001)                 4.123278331341585E+05,      /* J = 15 */
(PID.TID 0000.0001)                 4.229442419867491E+05,      /* J = 16 */
(PID.TID 0000.0001)                 4.315001090065869E+05,      /* J = 17 */
(PID.TID 0000.0001)                 4.379537508695839E+05,      /* J = 18 */
(PID.TID 0000.0001)                 4.422737260813013E+05,      /* J = 19 */
(PID.TID 0000.0001)     2 @  4.444389881567501E+05,             /* J = 20: 21 */
(PID.TID 0000.0001)                 4.422737260813013E+05,      /* J = 22 */
(PID.TID 0000.0001)                 4.379537508695839E+05,      /* J = 23 */
(PID.TID 0000.0001)                 4.315001090065869E+05,      /* J = 24 */
(PID.TID 0000.0001)                 4.229442419867491E+05,      /* J = 25 */
(PID.TID 0000.0001)                 4.123278331341585E+05,      /* J = 26 */
(PID.TID 0000.0001)                 3.997026045255871E+05,      /* J = 27 */
(PID.TID 0000.0001)                 3.851300650057322E+05,      /* J = 28 */
(PID.TID 0000.0001)                 3.686812105223083E+05,      /* J = 29 */
(PID.TID 0000.0001)                 3.504361782409254E+05,      /* J = 30 */
(PID.TID 0000.0001)                 3.304838561248741E+05,      /* J = 31 */
(PID.TID 0000.0001)                 3.089214498819035E+05,      /* J = 32 */
(PID.TID 0000.0001)                 2.858540093877838E+05,      /* J = 33 */
(PID.TID 0000.0001)                 2.613939168938713E+05,      /* J = 34 */
(PID.TID 0000.0001)                 2.356603395120766E+05,      /* J = 35 */
(PID.TID 0000.0001)                 2.087786486446736E+05,      /* J = 36 */
(PID.TID 0000.0001)                 1.808798091874300E+05,      /* J = 37 */
(PID.TID 0000.0001)                 1.520997414818001E+05,      /* J = 38 */
(PID.TID 0000.0001)                 1.225786591246834E+05,      /* J = 39 */
(PID.TID 0000.0001)                 9.246038586187513E+04       /* J = 40 */
(PID.TID 0000.0001)     ;
(PID.TID 0000.0001) dyC =  /* dyC(:,1,:,1) ( m - cartesian, degrees - spherical ) */
(PID.TID 0000.0001)    90 @  4.447098934081552E+05              /* I =  1: 90 */
(PID.TID 0000.0001)     ;
(PID.TID 0000.0001) dyC =  /* dyC(1,:,1,:) ( m - cartesian, degrees - spherical ) */
(PID.TID 0000.0001)    40 @  4.447098934081552E+05              /* J =  1: 40 */
(PID.TID 0000.0001)     ;
(PID.TID 0000.0001) dxV =  /* dxV(:,1,:,1) ( m - cartesian, degrees - spherical ) */
(PID.TID 0000.0001)    90 @  7.722306258078101E+04              /* I =  1: 90 */
(PID.TID 0000.0001)     ;
(PID.TID 0000.0001) dxV =  /* dxV(1,:,1,:) ( m - cartesian, degrees - spherical ) */
(PID.TID 0000.0001)                 7.722306258078101E+04,      /* J =  1 */
(PID.TID 0000.0001)                 1.075850604052271E+05,      /* J =  2 */
(PID.TID 0000.0001)                 1.374229146297914E+05,      /* J =  3 */
(PID.TID 0000.0001)                 1.665912582279823E+05,      /* J =  4 */
(PID.TID 0000.0001)                 1.949479859617814E+05,      /* J =  5 */
(PID.TID 0000.0001)                 2.223549467040776E+05,      /* J =  6 */
(PID.TID 0000.0001)                 2.486786164970726E+05,      /* J =  7 */
(PID.TID 0000.0001)                 2.737907490675810E+05,      /* J =  8 */
(PID.TID 0000.0001)                 2.975690006299820E+05,      /* J =  9 */
(PID.TID 0000.0001)                 3.198975259328452E+05,      /* J = 10 */
(PID.TID 0000.0001)                 3.406675426453503E+05,      /* J = 11 */
(PID.TID 0000.0001)                 3.597778613338689E+05,      /* J = 12 */
(PID.TID 0000.0001)                 3.771353784467131E+05,      /* J = 13 */
(PID.TID 0000.0001)                 3.926555299052806E+05,      /* J = 14 */
(PID.TID 0000.0001)                 4.062627030917454E+05,      /* J = 15 */
(PID.TID 0000.0001)                 4.178906052261313E+05,      /* J = 16 */
(PID.TID 0000.0001)                 4.274825863380723E+05,      /* J = 17 */
(PID.TID 0000.0001)                 4.349919152597734E+05,      /* J = 18 */
(PID.TID 0000.0001)                 4.403820072955634E+05,      /* J = 19 */
(PID.TID 0000.0001)                 4.436266024588540E+05,      /* J = 20 */
(PID.TID 0000.0001)                 4.447098934081552E+05,      /* J = 21 */
(PID.TID 0000.0001)                 4.436266024588540E+05,      /* J = 22 */
(PID.TID 0000.0001)                 4.403820072955634E+05,      /* J = 23 */
(PID.TID 0000.0001)                 4.349919152597734E+05,      /* J = 24 */
(PID.TID 0000.0001)                 4.274825863380723E+05,      /* J = 25 */
(PID.TID 0000.0001)                 4.178906052261313E+05,      /* J = 26 */
(PID.TID 0000.0001)                 4.062627030917454E+05,      /* J = 27 */
(PID.TID 0000.0001)                 3.926555299052806E+05,      /* J = 28 */
(PID.TID 0000.0001)                 3.771353784467131E+05,      /* J = 29 */
(PID.TID 0000.0001)                 3.597778613338689E+05,      /* J = 30 */
(PID.TID 0000.0001)                 3.406675426453503E+05,      /* J = 31 */
(PID.TID 0000.0001)                 3.198975259328452E+05,      /* J = 32 */
(PID.TID 0000.0001)                 2.975690006299820E+05,      /* J = 33 */
(PID.TID 0000.0001)                 2.737907490675810E+05,      /* J = 34 */
(PID.TID 0000.0001)                 2.486786164970726E+05,      /* J = 35 */
(PID.TID 0000.0001)                 2.223549467040776E+05,      /* J = 36 */
(PID.TID 0000.0001)                 1.949479859617814E+05,      /* J = 37 */
(PID.TID 0000.0001)                 1.665912582279823E+05,      /* J = 38 */
(PID.TID 0000.0001)                 1.374229146297914E+05,      /* J = 39 */
(PID.TID 0000.0001)                 1.075850604052271E+05       /* J = 40 */
(PID.TID 0000.0001)     ;
(PID.TID 0000.0001) dyU =  /* dyU(:,1,:,1) ( m - cartesian, degrees - spherical ) */
(PID.TID 0000.0001)    90 @  4.447098934081552E+05              /* I =  1: 90 */
(PID.TID 0000.0001)     ;
(PID.TID 0000.0001) dyU =  /* dyU(1,:,1,:) ( m - cartesian, degrees - spherical ) */
(PID.TID 0000.0001)    40 @  4.447098934081552E+05              /* J =  1: 40 */
(PID.TID 0000.0001)     ;
(PID.TID 0000.0001) rA =  /* rA(:,1,:,1) ( m - cartesian, degrees - spherical ) */
(PID.TID 0000.0001)    90 @  4.110969866729054E+10              /* I =  1: 90 */
(PID.TID 0000.0001)     ;
(PID.TID 0000.0001) rA =  /* rA(1,:,1,:) ( m - cartesian, degrees - spherical ) */
(PID.TID 0000.0001)                 4.110969866729054E+10,      /* J =  1 */
(PID.TID 0000.0001)                 5.450087291636668E+10,      /* J =  2 */
(PID.TID 0000.0001)                 6.762652439100243E+10,      /* J =  3 */
(PID.TID 0000.0001)                 8.042270623659999E+10,      /* J =  4 */
(PID.TID 0000.0001)                 9.282707674147508E+10,      /* J =  5 */
(PID.TID 0000.0001)                 1.047792030594103E+11,      /* J =  6 */
(PID.TID 0000.0001)                 1.162208556324092E+11,      /* J =  7 */
(PID.TID 0000.0001)                 1.270962918792467E+11,      /* J =  8 */
(PID.TID 0000.0001)                 1.373525277677230E+11,      /* J =  9 */
(PID.TID 0000.0001)                 1.469395959475425E+11,      /* J = 10 */
(PID.TID 0000.0001)                 1.558107891862221E+11,      /* J = 11 */
(PID.TID 0000.0001)                 1.639228879220325E+11,      /* J = 12 */
(PID.TID 0000.0001)                 1.712363708253575E+11,      /* J = 13 */
(PID.TID 0000.0001)                 1.777156073426414E+11,      /* J = 14 */
(PID.TID 0000.0001)                 1.833290312848624E+11,      /* J = 15 */
(PID.TID 0000.0001)                 1.880492946148330E+11,      /* J = 16 */
(PID.TID 0000.0001)                 1.918534006840893E+11,      /* J = 17 */
(PID.TID 0000.0001)                 1.947228162702492E+11,      /* J = 18 */
(PID.TID 0000.0001)                 1.966435618690094E+11,      /* J = 19 */
(PID.TID 0000.0001)                 1.976062798008855E+11,      /* J = 20 */
(PID.TID 0000.0001)                 1.976062798008856E+11,      /* J = 21 */
(PID.TID 0000.0001)                 1.966435618690094E+11,      /* J = 22 */
(PID.TID 0000.0001)                 1.947228162702492E+11,      /* J = 23 */
(PID.TID 0000.0001)                 1.918534006840893E+11,      /* J = 24 */
(PID.TID 0000.0001)                 1.880492946148330E+11,      /* J = 25 */
(PID.TID 0000.0001)                 1.833290312848623E+11,      /* J = 26 */
(PID.TID 0000.0001)                 1.777156073426414E+11,      /* J = 27 */
(PID.TID 0000.0001)                 1.712363708253574E+11,      /* J = 28 */
(PID.TID 0000.0001)                 1.639228879220325E+11,      /* J = 29 */
(PID.TID 0000.0001)                 1.558107891862220E+11,      /* J = 30 */
(PID.TID 0000.0001)                 1.469395959475424E+11,      /* J = 31 */
(PID.TID 0000.0001)                 1.373525277677230E+11,      /* J = 32 */
(PID.TID 0000.0001)                 1.270962918792467E+11,      /* J = 33 */
(PID.TID 0000.0001)                 1.162208556324095E+11,      /* J = 34 */
(PID.TID 0000.0001)                 1.047792030594104E+11,      /* J = 35 */
(PID.TID 0000.0001)                 9.282707674147527E+10,      /* J = 36 */
(PID.TID 0000.0001)                 8.042270623660011E+10,      /* J = 37 */
(PID.TID 0000.0001)                 6.762652439100233E+10,      /* J = 38 */
(PID.TID 0000.0001)                 5.450087291636658E+10,      /* J = 39 */
(PID.TID 0000.0001)                 4.110969866729044E+10       /* J = 40 */
(PID.TID 0000.0001)     ;
(PID.TID 0000.0001) rAw =  /* rAw(:,1,:,1) ( m - cartesian, degrees - spherical ) */
(PID.TID 0000.0001)    90 @  4.110969866729054E+10              /* I =  1: 90 */
(PID.TID 0000.0001)     ;
(PID.TID 0000.0001) rAw =  /* rAw(1,:,1,:) ( m - cartesian, degrees - spherical ) */
(PID.TID 0000.0001)                 4.110969866729054E+10,      /* J =  1 */
(PID.TID 0000.0001)                 5.450087291636668E+10,      /* J =  2 */
(PID.TID 0000.0001)                 6.762652439100243E+10,      /* J =  3 */
(PID.TID 0000.0001)                 8.042270623659999E+10,      /* J =  4 */
(PID.TID 0000.0001)                 9.282707674147508E+10,      /* J =  5 */
(PID.TID 0000.0001)                 1.047792030594103E+11,      /* J =  6 */
(PID.TID 0000.0001)                 1.162208556324092E+11,      /* J =  7 */
(PID.TID 0000.0001)                 1.270962918792467E+11,      /* J =  8 */
(PID.TID 0000.0001)                 1.373525277677230E+11,      /* J =  9 */
(PID.TID 0000.0001)                 1.469395959475425E+11,      /* J = 10 */
(PID.TID 0000.0001)                 1.558107891862221E+11,      /* J = 11 */
(PID.TID 0000.0001)                 1.639228879220325E+11,      /* J = 12 */
(PID.TID 0000.0001)                 1.712363708253575E+11,      /* J = 13 */
(PID.TID 0000.0001)                 1.777156073426414E+11,      /* J = 14 */
(PID.TID 0000.0001)                 1.833290312848624E+11,      /* J = 15 */
(PID.TID 0000.0001)                 1.880492946148330E+11,      /* J = 16 */
(PID.TID 0000.0001)                 1.918534006840893E+11,      /* J = 17 */
(PID.TID 0000.0001)                 1.947228162702492E+11,      /* J = 18 */
(PID.TID 0000.0001)                 1.966435618690094E+11,      /* J = 19 */
(PID.TID 0000.0001)                 1.976062798008855E+11,      /* J = 20 */
(PID.TID 0000.0001)                 1.976062798008856E+11,      /* J = 21 */
(PID.TID 0000.0001)                 1.966435618690094E+11,      /* J = 22 */
(PID.TID 0000.0001)                 1.947228162702492E+11,      /* J = 23 */
(PID.TID 0000.0001)                 1.918534006840893E+11,      /* J = 24 */
(PID.TID 0000.0001)                 1.880492946148330E+11,      /* J = 25 */
(PID.TID 0000.0001)                 1.833290312848623E+11,      /* J = 26 */
(PID.TID 0000.0001)                 1.777156073426414E+11,      /* J = 27 */
(PID.TID 0000.0001)                 1.712363708253574E+11,      /* J = 28 */
(PID.TID 0000.0001)                 1.639228879220325E+11,      /* J = 29 */
(PID.TID 0000.0001)                 1.558107891862220E+11,      /* J = 30 */
(PID.TID 0000.0001)                 1.469395959475424E+11,      /* J = 31 */
(PID.TID 0000.0001)                 1.373525277677230E+11,      /* J = 32 */
(PID.TID 0000.0001)                 1.270962918792467E+11,      /* J = 33 */
(PID.TID 0000.0001)                 1.162208556324095E+11,      /* J = 34 */
(PID.TID 0000.0001)                 1.047792030594104E+11,      /* J = 35 */
(PID.TID 0000.0001)                 9.282707674147527E+10,      /* J = 36 */
(PID.TID 0000.0001)                 8.042270623660011E+10,      /* J = 37 */
(PID.TID 0000.0001)                 6.762652439100233E+10,      /* J = 38 */
(PID.TID 0000.0001)                 5.450087291636658E+10,      /* J = 39 */
(PID.TID 0000.0001)                 4.110969866729044E+10       /* J = 40 */
(PID.TID 0000.0001)     ;
(PID.TID 0000.0001) rAs =  /* rAs(:,1,:,1) ( m - cartesian, degrees - spherical ) */
(PID.TID 0000.0001)    90 @  3.433488626798236E+10              /* I =  1: 90 */
(PID.TID 0000.0001)     ;
(PID.TID 0000.0001) rAs =  /* rAs(1,:,1,:) ( m - cartesian, degrees - spherical ) */
(PID.TID 0000.0001)                 3.433488626798236E+10,      /* J =  1 */
(PID.TID 0000.0001)                 4.783442523123635E+10,      /* J =  2 */
(PID.TID 0000.0001)                 6.110091968306405E+10,      /* J =  3 */
(PID.TID 0000.0001)                 7.406973659603827E+10,      /* J =  4 */
(PID.TID 0000.0001)                 8.667769319778091E+10,      /* J =  5 */
(PID.TID 0000.0001)                 9.886336479107472E+10,      /* J =  6 */
(PID.TID 0000.0001)                 1.105673840088174E+11,      /* J =  7 */
(PID.TID 0000.0001)                 1.217327300458637E+11,      /* J =  8 */
(PID.TID 0000.0001)                 1.323050064586579E+11,      /* J =  9 */
(PID.TID 0000.0001)                 1.422327061792379E+11,      /* J = 10 */
(PID.TID 0000.0001)                 1.514674624524945E+11,      /* J = 11 */
(PID.TID 0000.0001)                 1.599642844741385E+11,      /* J = 12 */
(PID.TID 0000.0001)                 1.676817765813787E+11,      /* J = 13 */
(PID.TID 0000.0001)                 1.745823399284268E+11,      /* J = 14 */
(PID.TID 0000.0001)                 1.806323556642997E+11,      /* J = 15 */
(PID.TID 0000.0001)                 1.858023487204767E+11,      /* J = 16 */
(PID.TID 0000.0001)                 1.900671314104744E+11,      /* J = 17 */
(PID.TID 0000.0001)                 1.934059261417216E+11,      /* J = 18 */
(PID.TID 0000.0001)                 1.958024666419019E+11,      /* J = 19 */
(PID.TID 0000.0001)                 1.972450772065981E+11,      /* J = 20 */
(PID.TID 0000.0001)                 1.977267295821495E+11,      /* J = 21 */
(PID.TID 0000.0001)                 1.972450772065981E+11,      /* J = 22 */
(PID.TID 0000.0001)                 1.958024666419019E+11,      /* J = 23 */
(PID.TID 0000.0001)                 1.934059261417216E+11,      /* J = 24 */
(PID.TID 0000.0001)                 1.900671314104744E+11,      /* J = 25 */
(PID.TID 0000.0001)                 1.858023487204767E+11,      /* J = 26 */
(PID.TID 0000.0001)                 1.806323556642997E+11,      /* J = 27 */
(PID.TID 0000.0001)                 1.745823399284267E+11,      /* J = 28 */
(PID.TID 0000.0001)                 1.676817765813788E+11,      /* J = 29 */
(PID.TID 0000.0001)                 1.599642844741386E+11,      /* J = 30 */
(PID.TID 0000.0001)                 1.514674624524945E+11,      /* J = 31 */
(PID.TID 0000.0001)                 1.422327061792377E+11,      /* J = 32 */
(PID.TID 0000.0001)                 1.323050064586577E+11,      /* J = 33 */
(PID.TID 0000.0001)                 1.217327300458638E+11,      /* J = 34 */
(PID.TID 0000.0001)                 1.105673840088174E+11,      /* J = 35 */
(PID.TID 0000.0001)                 9.886336479107451E+10,      /* J = 36 */
(PID.TID 0000.0001)                 8.667769319778070E+10,      /* J = 37 */
(PID.TID 0000.0001)                 7.406973659603806E+10,      /* J = 38 */
(PID.TID 0000.0001)                 6.110091968306404E+10,      /* J = 39 */
(PID.TID 0000.0001)                 4.783442523123634E+10       /* J = 40 */
(PID.TID 0000.0001)     ;
(PID.TID 0000.0001) 
(PID.TID 0000.0001)  MDSREADFIELD: opening global file: lev_t.bin
(PID.TID 0000.0001) // =======================================================
(PID.TID 0000.0001) // Field Initial Temperature at iteration          1
(PID.TID 0000.0001) // CMIN =         -1.899999976158142E+00
(PID.TID 0000.0001) // CMAX =          2.973338890075684E+01
(PID.TID 0000.0001) // CINT =          1.171606995441296E+00
(PID.TID 0000.0001) // SYMBOLS (CMIN->CMAX): -abcdefghijklmnopqrstuvwxyz+
(PID.TID 0000.0001) //                  0.0: .
(PID.TID 0000.0001) // RANGE I (Lo:Hi:Step):(   1:  90:   1)
(PID.TID 0000.0001) // RANGE J (Lo:Hi:Step):(  40:   1:  -1)
(PID.TID 0000.0001) // RANGE K (Lo:Hi:Step):(   1:   1:   1)
(PID.TID 0000.0001) // =======================================================
(PID.TID 0000.0001) K =   1
(PID.TID 0000.0001)                I=10      I=20      I=30      I=40      I=50      I=60      I=70      I=80      I=90
(PID.TID 0000.0001) |--J--|123456789|123456789|123456789|123456789|123456789|123456789|123456789|123456789|123456789|
(PID.TID 0000.0001)     40 bccdd.baa----abdedd..................................................................bbbbb
(PID.TID 0000.0001)     39 ccdddddccbbbaa...ed.....................................................----........bbbbbb
(PID.TID 0000.0001)     38 fffgfedeedddc...........................................................-----......cbbbcde
(PID.TID 0000.0001)     37 ghh..................................................................bc...bbc...edeed.defg
(PID.TID 0000.0001)     36 hh.........................................ddcb....................dcccbabccdd.eefghhihhih
(PID.TID 0000.0001)     35 hh.................................aaab..dddeddd...ffggg...........ccc....ddeeeffghijjjjih
(PID.TID 0000.0001)     34 ...................................babb.deeeeeee.ffffgghh..................ccdffghijkkkj..
(PID.TID 0000.0001)     33 ....................................accdddeeeeefffffgghhiii.................bcfijkkllllkk.
(PID.TID 0000.0001)     32 ....................................bdddeffgffgghhhhhiiijjj................dccglmnmmmmlll.
(PID.TID 0000.0001)     31 ....................................fghiiiijjjjjjkkkkklllkk..............ikkjjmooooonnmm..
(PID.TID 0000.0001)     30 ...................................mmmnmmmmmmmmmmmmmnnnnnmm............moqrrrqrqqqpppooo..
(PID.TID 0000.0001)     29 .................................pqqqqqpppppppppoppoppppponm...........ssssssrrrrrqqqqpp..
(PID.TID 0000.0001)     28 ...............................prssssrrrsssrrrrrrrrrrrrrqqpoo.........uttssstssrssrrrqqq..
(PID.TID 0000.0001)     27 ..............vv..............stuttuuuuutuuuuuuuuuuttttssrrqqq...stuu.vvvuuuuutttttsss....
(PID.TID 0000.0001)     26 ..............vvv...........uuvvvvvwwwwwwwwvvvvvvvvvuuutttsssttv.uuvxxwwwwwwvvvvuuttsr....
(PID.TID 0000.0001)     25 ..............wwwx...xxx...vvvxxxxxyyxxxxxxxxxwwwwwvvvvvuuuuuvwwx...xxxxxxwwwwwwvvutsr....
(PID.TID 0000.0001)     24 ............wwwwxyy.xxyy...wxx.yyyyyyyyyyyxxxxxxxxwwwwwwwvvwwxxyywww.xxxxxxxxxxwwwvvur....
(PID.TID 0000.0001)     23 ............xxxyyyz.xyyy...xxx..yyyyzzyyyyyyyyxxxxxxxxxwwwwwxxxwwwwwx....vwxxxxwwwwwvu....
(PID.TID 0000.0001)     22 w...........xxyyyzyyyyyz...xx.yyzzzzzzzzzzzzzyyzyyyyyyxxwwxxxxwvvvwwxw......yyyyxxxxxxwxxw
(PID.TID 0000.0001)     21 xxx........xxxxyyzzzzzzz+.....zyzzzzzzz++zzzzyyyyyyyyxxwvvwwwwvvvvvvvu........yyyyyyyyyxxx
(PID.TID 0000.0001)     20 xww.......xyyyyxyyzzzzzz+......z.zzzzz+++zzzzzzyyyyyxxxxwvwxwvuuuuuuut.........yyyyxxxxwww
(PID.TID 0000.0001)     19 vvv.......yyyyxwwxyzyyzzzzz...zzz.....++++++z++z+zzzyyyyxxxxwwvvvvvvvu...........yyxxxwwww
(PID.TID 0000.0001)     18 uut.......zzyyywwxyzyyyyzzyzzzzzz...z+z++++zz+++++++zzzyyyyxxwwwvvvvvtt..........yyxxwvvwv
(PID.TID 0000.0001)     17 uus.......z.yyyyyyxyzzyyyyyyyzz.....yzzzzzzzzzzzzzzzzzzyyyyxxwwvuuvvuut.........yyyxxwttvu
(PID.TID 0000.0001)     16 utr......yy.zyyyyxxxxxxxwxxxxy.......yyyyyyyyyyyyyyyyyyyyyyyxxwvvvuuutts........xyyyxwvuuu
(PID.TID 0000.0001)     15 ttrr....xxx.xxxwxwwwwvwwvvvww.........xwxxxxxxxxxxxxxxxxxyyyxwwwvvuttssrr......wxxxxxwwvuu
(PID.TID 0000.0001)     14 ttsq....xyxwwxwvwwwvutuuuuuuu.........wwvwwwwvwvvwwwvwvvwwwwwwvvvuuutssrr.....vwwwwwwwvvvu
(PID.TID 0000.0001)     13 tttr....wwwvvvtttuuuutttssttt.........vvvuuuuuuutttttuuuuuvwwwuuuttttssrr....uvvvvvvvvvvut
(PID.TID 0000.0001)     12 sssssstttutssssrrrrrstrqqrrssqqrrq....uuttssssrrrrrrrrrrrstttssssrssrrqp.....uuuttssttssss
(PID.TID 0000.0001)     11 poprsssrqqqqqrqppooopqpoppppppppppp..sssrrr.rqpppqqqqppppqqqoppqqqqrqqpp....prsrqqqqqppppq
(PID.TID 0000.0001)     10 lllmoooonmnnmnnnnmmmmmmlmmlllmnnnnon.qqqppp.ppppppooooooooonmnnnonnooooo..nmoponnmnnnnnmll
(PID.TID 0000.0001)      9 ihhiiiihhhhhhiiihiiiiihhhiiiijjkkmnllnnnnn.mmmmnnnnmmmmnnmmlklllllklllll.mllmmllkjiijjihhi
(PID.TID 0000.0001)      8 eeeeeeeedefgggffeeffggffffggghiiiijjijklklkkkkkkkklllkkkkjjiiijkjjjjjjkj.kkjjiihggffffedde
(PID.TID 0000.0001)      7 cccccddeedddefeddddddddddefeefffffgggghiiiiiijjjihhgggghhhhhghhhhhhhiiiihiihhgfeddddddcccc
(PID.TID 0000.0001)      6 abbcccddcccccdddddccdddddddccddddddeeeeffggggghhgeddddddeeeeeeefggggghggggffeedccbbbbbbbba
(PID.TID 0000.0001)      5 bbbcccccccccccccccccccccbbccccdddddddcccddeeddeedcbbbbbbccccccdddeeeeeddddddccbbbbaaaaaaab
(PID.TID 0000.0001)      4 bbbbbbbaaabbbbbbbbbbbbaabbabbbbcbbbbbbbbbbbbbbbbbbbabbaaabbbbbbbbbbbbbbbbb..a--aaabbbaaabb
(PID.TID 0000.0001)      3 bbbbaaa-a-............................bbaaaaaaaaaaaaaaaaaaaaaaaaaaaaaaaab..aaaaaaaabbbaaaa
(PID.TID 0000.0001)      2 ..........................................baaaaaaaaaaaa-------aa..aaaa.....aaaaaaaaaaaa...
(PID.TID 0000.0001)      1 ..........................................................................................
(PID.TID 0000.0001) // =======================================================
(PID.TID 0000.0001) // END OF FIELD                                          =
(PID.TID 0000.0001) // =======================================================
(PID.TID 0000.0001) 
(PID.TID 0000.0001)  MDSREADFIELD: opening global file: lev_s.bin
(PID.TID 0000.0001) // =======================================================
(PID.TID 0000.0001) // Field Initial Salinity at iteration          1
(PID.TID 0000.0001) // CMIN =          2.975276947021484E+01
(PID.TID 0000.0001) // CMAX =          3.747562789916992E+01
(PID.TID 0000.0001) // CINT =          2.860317936650029E-01
(PID.TID 0000.0001) // SYMBOLS (CMIN->CMAX): -abcdefghijklmnopqrstuvwxyz+
(PID.TID 0000.0001) //                  0.0: .
(PID.TID 0000.0001) // RANGE I (Lo:Hi:Step):(   1:  90:   1)
(PID.TID 0000.0001) // RANGE J (Lo:Hi:Step):(  40:   1:  -1)
(PID.TID 0000.0001) // RANGE K (Lo:Hi:Step):(   1:   1:   1)
(PID.TID 0000.0001) // =======================================================
(PID.TID 0000.0001) K =   1
(PID.TID 0000.0001)                I=10      I=20      I=30      I=40      I=50      I=60      I=70      I=80      I=90
(PID.TID 0000.0001) |--J--|123456789|123456789|123456789|123456789|123456789|123456789|123456789|123456789|123456789|
(PID.TID 0000.0001)     40 qrrrr.oonnooopqtutt..................................................................mnnop
(PID.TID 0000.0001)     39 rssrrrrrrrqqpn...ut.....................................................mmmm........opqqqr
(PID.TID 0000.0001)     38 ssrrqqqqrrqpo...........................................................lkkll......onoqrrs
(PID.TID 0000.0001)     37 ssr..................................................................hg...lln...qppqr.rrrs
(PID.TID 0000.0001)     36 rr.........................................lkji....................feeegikmoop.pqrssssssss
(PID.TID 0000.0001)     35 rr.................................kkkk..lllllki...jijjj...........aa-....opqrrrrrrrssttss
(PID.TID 0000.0001)     34 ...................................jlll.kklllllk.ijkkkjih..................hlpqrqrrsstts..
(PID.TID 0000.0001)     33 ....................................iklkkkkkkkkkjkkjjjjjjii.................jmprrsstttttt.
(PID.TID 0000.0001)     32 ....................................iklllkllllllllkkkkkkkji................gilpstuuttuuut.
(PID.TID 0000.0001)     31 ....................................lmnonnnnoooonnmmmmllkjj..............loopqtvvvuuuuuu..
(PID.TID 0000.0001)     30 ...................................pppppppqqqqpppoooonnmlkk............ptvxwwvvwvvvvvvvu..
(PID.TID 0000.0001)     29 .................................pqqrqqqqqqrrrqqppqqqpponmll...........vxxxxxxwwwwwxwwxw..
(PID.TID 0000.0001)     28 ...............................prrrrrqqrrrrrsrrsrssssssrqonmm.........wxxxxxxxyyyyyyyyxx..
(PID.TID 0000.0001)     27 ..............xx..............prrrrrrrrrssssssstttssssssrqpoop...uwww.wwxxxyyy++zzzzyy....
(PID.TID 0000.0001)     26 ..............wxx...........ppqrrrrrrsssrrstsstttssrrrrrrrqppqqp.wwwvvwwwwwxyy+++zzyxw....
(PID.TID 0000.0001)     25 ..............wxxv...kkk...ooopqrrrrrssrrrrrrrssssqqpppppppppppoo...vvutuuvvwxyyyxxvvu....
(PID.TID 0000.0001)     24 ............uvvwwur.lmlk...nmm.pqqqqrrrrrqqqqrrqqrpppppooooonmmmnooo.uuuuuuttuvvvuvuut....
(PID.TID 0000.0001)     23 ............vvuvtqp.lmml...mln..ppppqpqppppppqpppppppppqppponnnnnoopm....xvuuuvvvvuuut....
(PID.TID 0000.0001)     22 r...........vuttsqqpnppn...mm.oppqqrrqqqqqqppppqqrrrqqqrrppppoopooomjj......uuvvvvvuttssrr
(PID.TID 0000.0001)     21 qmm........ttsssssssrsqon.....opqqqqqqqrrrrqqqssssssrrrrrrrrpqqqppomll........tvvvvuttssrr
(PID.TID 0000.0001)     20 sqq.......sttssrrsrrrrpol......p.qrqpqrrrrrrrstttttsssrrsssrqrrrrqqqpo.........wwwvvvuuutt
(PID.TID 0000.0001)     19 tsr.......ssssrrrrpppppnmmm...oqq.....qrqqsrrstttuuuttssttssrrssrrrrqq...........wwwvuvvvv
(PID.TID 0000.0001)     18 wut.......ssrrrrrqppppppppoooorrr...poqqqprrrttttuuutuuuuuutttttttutsss..........yyxwwxwxx
(PID.TID 0000.0001)     17 wwu.......s.rrrrrrqppppqqqqqqqr.....rrsrqrsssuusrtuuuvvvwwvvvuuuuutttss.........xyzyyyyxxx
(PID.TID 0000.0001)     16 vvt......ss.qrrssrqrqpqrrrrrrr.......ssrrstsstusrsuuuvwwwwxxwwvvvuttttsr........yz+zzzxwww
(PID.TID 0000.0001)     15 utss....stt.rrssstttsrrsrstsr.........ssstttssttsuuttuvvvvwxwwwwwuttsssrr......xyyyyxyyxwv
(PID.TID 0000.0001)     14 utts....sstrrssstuuuuuuuuuutt.........stttuutttttttuttttttuvvvvvvutsrqrrr.....vxxwwwwxwvwv
(PID.TID 0000.0001)     13 uuut....ttttttttuuuuuvtuuuuuu.........ttttuutttttttuutsssstttttstsqrqqppp....uwwwvuvvvutvv
(PID.TID 0000.0001)     12 ttttttttttttttttttttttssuuuuutuuut....tttttttttttsssssrrrrrrrqqqqqppppoo.....rvvuuttttttuu
(PID.TID 0000.0001)     11 rqsttttttttuuttttsssssrrstttttttsss..ttttts.tsssrrrrqqqqqppppoonnooooooo....oruttttsssrqrs
(PID.TID 0000.0001)     10 pppqrssrqqrqpqrssrrqqqqqqrrrrrrrrrrs.sssssr.rssrrqqpppppppooooonnnoooonn..moqrrrqqqqqqqqqq
(PID.TID 0000.0001)      9 oonooooooooonnnooooooooooppppppqqqqqrrrqrq.pppqqqqqppppppppppoooooooooll.lmoqqqqppooooopoo
(PID.TID 0000.0001)      8 nnnoonooooooonnnnnnnoooonoonoooppopqqqqqqqppopppqqqpppppppppppppppooopon.lnopppoooonnnnooo
(PID.TID 0000.0001)      7 ooooooooooopponnnooooooonnnnnonnooooooooopppppppoooooooooopppppppppoopqnnmnoooonnnonnnnnno
(PID.TID 0000.0001)      6 oooonnoonnnnooooooooooooonnnnnnnnnnnnnnnnoooopppooooooooooooooppppppppppoooooooonnnnnmnnnn
(PID.TID 0000.0001)      5 oooonnnnnnnnnnnnnnnnnoooooonnnnnnonnnnnnnnnoooooooooooonnnnnnooooooopoooonoooonnnnnnnooooo
(PID.TID 0000.0001)      4 oooonnnooonnnnnnnnnnnnnnoooooonnnooooonnnooooooooppponnnnmmmnnnnmnnoonnnnn..nnnooooooooooo
(PID.TID 0000.0001)      3 ooonnnnnnn............................nnoooooonnooooonnnnnnnoonnnnnnnnmmm..ooopooooooooooo
(PID.TID 0000.0001)      2 ..........................................pppooooonnnnnnoooppppo..nnnn.....qqqpppoooooo...
(PID.TID 0000.0001)      1 ..........................................................................................
(PID.TID 0000.0001) // =======================================================
(PID.TID 0000.0001) // END OF FIELD                                          =
(PID.TID 0000.0001) // =======================================================
(PID.TID 0000.0001) 
(PID.TID 0000.0001) Start initial hydrostatic pressure computation
(PID.TID 0000.0001) Pressure is predetermined for buoyancyRelation OCEANIC
(PID.TID 0000.0001) 
(PID.TID 0000.0001)  MDSREADFIELD: opening global file: trenberth_taux.bin
(PID.TID 0000.0001)  MDSREADFIELD: opening global file: trenberth_tauy.bin
(PID.TID 0000.0001)  MDSREADFIELD: opening global file: ncep_qnet.bin
(PID.TID 0000.0001)  MDSREADFIELD: opening global file: lev_sst.bin
(PID.TID 0000.0001)  MDSREADFIELD: opening global file: lev_sss.bin
(PID.TID 0000.0001) // =======================================================
(PID.TID 0000.0001) // Model current state
(PID.TID 0000.0001) // =======================================================
(PID.TID 0000.0001) 
(PID.TID 0000.0001) // =======================================================
(PID.TID 0000.0001) // Begin MONITOR dynamic field statistics
(PID.TID 0000.0001) // =======================================================
(PID.TID 0000.0001) %MON time_tsnumber                =                     0
(PID.TID 0000.0001) %MON time_secondsf                =   0.0000000000000E+00
(PID.TID 0000.0001) %MON dynstat_eta_max              =   0.0000000000000E+00
(PID.TID 0000.0001) %MON dynstat_eta_min              =   0.0000000000000E+00
(PID.TID 0000.0001) %MON dynstat_eta_mean             =   0.0000000000000E+00
(PID.TID 0000.0001) %MON dynstat_eta_sd               =   0.0000000000000E+00
(PID.TID 0000.0001) %MON dynstat_eta_del2             =   0.0000000000000E+00
(PID.TID 0000.0001) %MON dynstat_uvel_max             =   0.0000000000000E+00
(PID.TID 0000.0001) %MON dynstat_uvel_min             =   0.0000000000000E+00
(PID.TID 0000.0001) %MON dynstat_uvel_mean            =   0.0000000000000E+00
(PID.TID 0000.0001) %MON dynstat_uvel_sd              =   0.0000000000000E+00
(PID.TID 0000.0001) %MON dynstat_uvel_del2            =   0.0000000000000E+00
(PID.TID 0000.0001) %MON dynstat_vvel_max             =   0.0000000000000E+00
(PID.TID 0000.0001) %MON dynstat_vvel_min             =   0.0000000000000E+00
(PID.TID 0000.0001) %MON dynstat_vvel_mean            =   0.0000000000000E+00
(PID.TID 0000.0001) %MON dynstat_vvel_sd              =   0.0000000000000E+00
(PID.TID 0000.0001) %MON dynstat_vvel_del2            =   0.0000000000000E+00
(PID.TID 0000.0001) %MON dynstat_wvel_max             =   0.0000000000000E+00
(PID.TID 0000.0001) %MON dynstat_wvel_min             =   0.0000000000000E+00
(PID.TID 0000.0001) %MON dynstat_wvel_mean            =   0.0000000000000E+00
(PID.TID 0000.0001) %MON dynstat_wvel_sd              =   0.0000000000000E+00
(PID.TID 0000.0001) %MON dynstat_wvel_del2            =   0.0000000000000E+00
(PID.TID 0000.0001) %MON dynstat_theta_max            =   2.9733388900757E+01
(PID.TID 0000.0001) %MON dynstat_theta_min            =  -1.8999999761581E+00
(PID.TID 0000.0001) %MON dynstat_theta_mean           =   3.6197074666147E+00
(PID.TID 0000.0001) %MON dynstat_theta_sd             =   4.4174614518546E+00
(PID.TID 0000.0001) %MON dynstat_theta_del2           =   1.5097301765945E-01
(PID.TID 0000.0001) %MON dynstat_salt_max             =   3.7475627899170E+01
(PID.TID 0000.0001) %MON dynstat_salt_min             =   2.9752769470215E+01
(PID.TID 0000.0001) %MON dynstat_salt_mean            =   3.4718006161475E+01
(PID.TID 0000.0001) %MON dynstat_salt_sd              =   2.9628819587990E-01
(PID.TID 0000.0001) %MON dynstat_salt_del2            =   2.6251884861846E-02
(PID.TID 0000.0001) %MON advcfl_uvel_max              =   0.0000000000000E+00
(PID.TID 0000.0001) %MON advcfl_vvel_max              =   0.0000000000000E+00
(PID.TID 0000.0001) %MON advcfl_wvel_max              =   0.0000000000000E+00
(PID.TID 0000.0001) %MON advcfl_W_hf_max              =   0.0000000000000E+00
(PID.TID 0000.0001) %MON pe_b_mean                    =   0.0000000000000E+00
(PID.TID 0000.0001) %MON ke_max                       =   0.0000000000000E+00
(PID.TID 0000.0001) %MON ke_mean                      =   0.0000000000000E+00
(PID.TID 0000.0001) %MON ke_vol                       =   1.3226782436723E+18
(PID.TID 0000.0001) %MON vort_r_min                   =   0.0000000000000E+00
(PID.TID 0000.0001) %MON vort_r_max                   =   0.0000000000000E+00
(PID.TID 0000.0001) %MON vort_a_mean                  =  -2.5205769728596E-05
(PID.TID 0000.0001) %MON vort_a_sd                    =   7.3403301351717E-05
(PID.TID 0000.0001) %MON vort_p_mean                  =  -3.1758669979760E-05
(PID.TID 0000.0001) %MON vort_p_sd                    =   1.3126616755304E-04
(PID.TID 0000.0001) %MON surfExpan_theta_mean         =   0.0000000000000E+00
(PID.TID 0000.0001) %MON surfExpan_salt_mean          =   0.0000000000000E+00
(PID.TID 0000.0001) // =======================================================
(PID.TID 0000.0001) // End MONITOR dynamic field statistics
(PID.TID 0000.0001) // =======================================================
 S/R EXTERNAL_FIELDS_LOAD: Reading new data  0. 0
(PID.TID 0000.0001)  MDSREADFIELD: opening global file: trenberth_taux.bin
(PID.TID 0000.0001)  MDSREADFIELD: opening global file: trenberth_taux.bin
(PID.TID 0000.0001)  MDSREADFIELD: opening global file: trenberth_tauy.bin
(PID.TID 0000.0001)  MDSREADFIELD: opening global file: trenberth_tauy.bin
(PID.TID 0000.0001)  MDSREADFIELD: opening global file: ncep_qnet.bin
(PID.TID 0000.0001)  MDSREADFIELD: opening global file: ncep_qnet.bin
(PID.TID 0000.0001)  MDSREADFIELD: opening global file: lev_sst.bin
(PID.TID 0000.0001)  MDSREADFIELD: opening global file: lev_sst.bin
(PID.TID 0000.0001)  MDSREADFIELD: opening global file: lev_sss.bin
(PID.TID 0000.0001)  MDSREADFIELD: opening global file: lev_sss.bin
time,SST,SSS,fu,fv,Q,E-P,i0,i1,a,b =   0.0000E+00  5.3151E-02  3.4364E+01 -4.0500E-02 -6.3753E-02  2.6510E+02  0.0000E+00    12     1  5.0000E-01  5.0000E-01
time,fu0,fu1,fu =   0.0000E+00 -4.5368E-02 -3.5633E-02 -4.0500E-02  5.0000E-01  5.0000E-01
 cg2d: Sum(rhs),rhsMax =   5.43347918741111E-16  2.53364304519874E+00
(PID.TID 0000.0001)                    cg2d_init_res =    6.22532208289531E+00
(PID.TID 0000.0001)                       cg2d_iters =    26
(PID.TID 0000.0001)                         cg2d_res =    5.02297506720287E-14
(PID.TID 0000.0001) // =======================================================
(PID.TID 0000.0001) // Begin MONITOR dynamic field statistics
(PID.TID 0000.0001) // =======================================================
(PID.TID 0000.0001) %MON time_tsnumber                =                     1
(PID.TID 0000.0001) %MON time_secondsf                =   4.3200000000000E+04
(PID.TID 0000.0001) %MON dynstat_eta_max              =   1.7856749921513E-01
(PID.TID 0000.0001) %MON dynstat_eta_min              =  -1.1521465430466E-01
(PID.TID 0000.0001) %MON dynstat_eta_mean             =  -1.3377021923742E-17
(PID.TID 0000.0001) %MON dynstat_eta_sd               =   2.6330834449539E-02
(PID.TID 0000.0001) %MON dynstat_eta_del2             =   1.1668318012689E-02
(PID.TID 0000.0001) %MON dynstat_uvel_max             =   8.3278858756599E-03
(PID.TID 0000.0001) %MON dynstat_uvel_min             =  -8.9104646414738E-03
(PID.TID 0000.0001) %MON dynstat_uvel_mean            =  -3.6106680133214E-04
(PID.TID 0000.0001) %MON dynstat_uvel_sd              =   1.2326309547657E-03
(PID.TID 0000.0001) %MON dynstat_uvel_del2            =   4.2133103754272E-04
(PID.TID 0000.0001) %MON dynstat_vvel_max             =   1.8795311464058E-02
(PID.TID 0000.0001) %MON dynstat_vvel_min             =  -1.1292773495360E-02
(PID.TID 0000.0001) %MON dynstat_vvel_mean            =   9.2368598766407E-04
(PID.TID 0000.0001) %MON dynstat_vvel_sd              =   3.4433687416685E-03
(PID.TID 0000.0001) %MON dynstat_vvel_del2            =   5.2656180783398E-04
(PID.TID 0000.0001) %MON dynstat_wvel_max             =   1.5979209663759E-04
(PID.TID 0000.0001) %MON dynstat_wvel_min             =  -1.0322817826396E-04
(PID.TID 0000.0001) %MON dynstat_wvel_mean            =  -3.3519867066105E-22
(PID.TID 0000.0001) %MON dynstat_wvel_sd              =   1.6851361663166E-05
(PID.TID 0000.0001) %MON dynstat_wvel_del2            =   8.8304738703714E-06
(PID.TID 0000.0001) %MON dynstat_theta_max            =   2.9730291022209E+01
(PID.TID 0000.0001) %MON dynstat_theta_min            =  -1.9000526467740E+00
(PID.TID 0000.0001) %MON dynstat_theta_mean           =   3.6197399484339E+00
(PID.TID 0000.0001) %MON dynstat_theta_sd             =   4.4171701089969E+00
(PID.TID 0000.0001) %MON dynstat_theta_del2           =   1.5240314840659E-01
(PID.TID 0000.0001) %MON dynstat_salt_max             =   3.7470516461991E+01
(PID.TID 0000.0001) %MON dynstat_salt_min             =   2.9754192314250E+01
(PID.TID 0000.0001) %MON dynstat_salt_mean            =   3.4718006046543E+01
(PID.TID 0000.0001) %MON dynstat_salt_sd              =   2.9615331645459E-01
(PID.TID 0000.0001) %MON dynstat_salt_del2            =   2.6476002365687E-02
(PID.TID 0000.0001) %MON advcfl_uvel_max              =   2.6512729685057E-03
(PID.TID 0000.0001) %MON advcfl_vvel_max              =   1.8258137884558E-03
(PID.TID 0000.0001) %MON advcfl_wvel_max              =   2.5713719886979E-01
(PID.TID 0000.0001) %MON advcfl_W_hf_max              =   2.6084575826616E-01
(PID.TID 0000.0001) %MON pe_b_mean                    =   8.8717734933380E-07
(PID.TID 0000.0001) %MON ke_max                       =   1.2389974061821E-04
(PID.TID 0000.0001) %MON ke_mean                      =   6.4555747103452E-06
(PID.TID 0000.0001) %MON ke_vol                       =   1.3226782436723E+18
(PID.TID 0000.0001) %MON vort_r_min                   =  -5.9901656470325E-08
(PID.TID 0000.0001) %MON vort_r_max                   =   6.7789443932799E-08
(PID.TID 0000.0001) %MON vort_a_mean                  =  -2.5205769395234E-05
(PID.TID 0000.0001) %MON vort_a_sd                    =   7.3403223082111E-05
(PID.TID 0000.0001) %MON vort_p_mean                  =  -3.1758669559733E-05
(PID.TID 0000.0001) %MON vort_p_sd                    =   1.3126608087620E-04
(PID.TID 0000.0001) %MON surfExpan_theta_mean         =   4.7002542977887E-05
(PID.TID 0000.0001) %MON surfExpan_salt_mean          =   3.5352607095841E-06
(PID.TID 0000.0001) // =======================================================
(PID.TID 0000.0001) // End MONITOR dynamic field statistics
(PID.TID 0000.0001) // =======================================================
time,SST,SSS,fu,fv,Q,E-P,i0,i1,a,b =   4.3200E+04  8.3327E-02  3.4375E+01 -4.0338E-02 -6.3536E-02  2.6512E+02  0.0000E+00    12     1  5.1667E-01  4.8333E-01
time,fu0,fu1,fu =   4.3200E+04 -4.5368E-02 -3.5633E-02 -4.0338E-02  5.1667E-01  4.8333E-01
 cg2d: Sum(rhs),rhsMax =   3.88462252274256E-14  5.05254937853464E+00
(PID.TID 0000.0001)                    cg2d_init_res =    3.38978685962091E+00
(PID.TID 0000.0001)                       cg2d_iters =    26
(PID.TID 0000.0001)                         cg2d_res =    3.27105413517381E-14
(PID.TID 0000.0001) // =======================================================
(PID.TID 0000.0001) // Begin MONITOR dynamic field statistics
(PID.TID 0000.0001) // =======================================================
(PID.TID 0000.0001) %MON time_tsnumber                =                     2
(PID.TID 0000.0001) %MON time_secondsf                =   8.6400000000000E+04
(PID.TID 0000.0001) %MON dynstat_eta_max              =   3.7993121844741E-01
(PID.TID 0000.0001) %MON dynstat_eta_min              =  -2.5475970825222E-01
(PID.TID 0000.0001) %MON dynstat_eta_mean             =  -2.1850549921998E-17
(PID.TID 0000.0001) %MON dynstat_eta_sd               =   6.0825433526757E-02
(PID.TID 0000.0001) %MON dynstat_eta_del2             =   2.2746693657262E-02
(PID.TID 0000.0001) %MON dynstat_uvel_max             =   1.9171713388399E-02
(PID.TID 0000.0001) %MON dynstat_uvel_min             =  -1.7248662860504E-02
(PID.TID 0000.0001) %MON dynstat_uvel_mean            =  -8.9860855218019E-04
(PID.TID 0000.0001) %MON dynstat_uvel_sd              =   2.1515746122251E-03
(PID.TID 0000.0001) %MON dynstat_uvel_del2            =   7.8792100457643E-04
(PID.TID 0000.0001) %MON dynstat_vvel_max             =   3.4259519878303E-02
(PID.TID 0000.0001) %MON dynstat_vvel_min             =  -1.8171404450057E-02
(PID.TID 0000.0001) %MON dynstat_vvel_mean            =   1.7999719820870E-03
(PID.TID 0000.0001) %MON dynstat_vvel_sd              =   6.3042641072942E-03
(PID.TID 0000.0001) %MON dynstat_vvel_del2            =   9.5258679548521E-04
(PID.TID 0000.0001) %MON dynstat_wvel_max             =   2.1013444449702E-04
(PID.TID 0000.0001) %MON dynstat_wvel_min             =  -1.4862936751021E-04
(PID.TID 0000.0001) %MON dynstat_wvel_mean            =  -6.3241422261484E-22
(PID.TID 0000.0001) %MON dynstat_wvel_sd              =   2.4438510979902E-05
(PID.TID 0000.0001) %MON dynstat_wvel_del2            =   1.0162459284195E-05
(PID.TID 0000.0001) %MON dynstat_theta_max            =   2.9678785796854E+01
(PID.TID 0000.0001) %MON dynstat_theta_min            =  -1.9016523966515E+00
(PID.TID 0000.0001) %MON dynstat_theta_mean           =   3.6189252092580E+00
(PID.TID 0000.0001) %MON dynstat_theta_sd             =   4.4153544606539E+00
(PID.TID 0000.0001) %MON dynstat_theta_del2           =   1.5029450849248E-01
(PID.TID 0000.0001) %MON dynstat_salt_max             =   3.7465157731617E+01
(PID.TID 0000.0001) %MON dynstat_salt_min             =   2.9756614945369E+01
(PID.TID 0000.0001) %MON dynstat_salt_mean            =   3.4717942214327E+01
(PID.TID 0000.0001) %MON dynstat_salt_sd              =   2.9608879004012E-01
(PID.TID 0000.0001) %MON dynstat_salt_del2            =   2.6590333123163E-02
(PID.TID 0000.0001) %MON advcfl_uvel_max              =   4.7322616082658E-03
(PID.TID 0000.0001) %MON advcfl_vvel_max              =   3.3280376278572E-03
(PID.TID 0000.0001) %MON advcfl_wvel_max              =   2.8996375569448E-01
(PID.TID 0000.0001) %MON advcfl_W_hf_max              =   3.0075754710180E-01
(PID.TID 0000.0001) %MON pe_b_mean                    =   4.7342547782129E-06
(PID.TID 0000.0001) %MON ke_max                       =   4.1680621619797E-04
(PID.TID 0000.0001) %MON ke_mean                      =   2.1767249932446E-05
(PID.TID 0000.0001) %MON ke_vol                       =   1.3226782436723E+18
(PID.TID 0000.0001) %MON vort_r_min                   =  -1.0607033714034E-07
(PID.TID 0000.0001) %MON vort_r_max                   =   1.2898167861693E-07
(PID.TID 0000.0001) %MON vort_a_mean                  =  -2.5205769316185E-05
(PID.TID 0000.0001) %MON vort_a_sd                    =   7.3403112759376E-05
(PID.TID 0000.0001) %MON vort_p_mean                  =  -3.1758669460132E-05
(PID.TID 0000.0001) %MON vort_p_sd                    =   1.3126588795523E-04
(PID.TID 0000.0001) %MON surfExpan_theta_mean         =   8.4673538073696E-05
(PID.TID 0000.0001) %MON surfExpan_salt_mean          =   6.7424038908731E-06
(PID.TID 0000.0001) // =======================================================
(PID.TID 0000.0001) // End MONITOR dynamic field statistics
(PID.TID 0000.0001) // =======================================================
time,SST,SSS,fu,fv,Q,E-P,i0,i1,a,b =   8.6400E+04  1.1350E-01  3.4387E+01 -4.0176E-02 -6.3320E-02  2.6514E+02  0.0000E+00    12     1  5.3333E-01  4.6667E-01
time,fu0,fu1,fu =   8.6400E+04 -4.5368E-02 -3.5633E-02 -4.0176E-02  5.3333E-01  4.6667E-01
 cg2d: Sum(rhs),rhsMax =   7.05082829144735E-14  6.32439548736643E+00
(PID.TID 0000.0001)                    cg2d_init_res =    2.20357871122599E+00
(PID.TID 0000.0001)                       cg2d_iters =    26
(PID.TID 0000.0001)                         cg2d_res =    2.89405613777761E-14
(PID.TID 0000.0001) // =======================================================
(PID.TID 0000.0001) // Begin MONITOR dynamic field statistics
(PID.TID 0000.0001) // =======================================================
(PID.TID 0000.0001) %MON time_tsnumber                =                     3
(PID.TID 0000.0001) %MON time_secondsf                =   1.2960000000000E+05
(PID.TID 0000.0001) %MON dynstat_eta_max              =   5.1559481024695E-01
(PID.TID 0000.0001) %MON dynstat_eta_min              =  -3.8632624018583E-01
(PID.TID 0000.0001) %MON dynstat_eta_mean             =  -3.7177115479279E-17
(PID.TID 0000.0001) %MON dynstat_eta_sd               =   9.3631682162380E-02
(PID.TID 0000.0001) %MON dynstat_eta_del2             =   2.8106528028375E-02
(PID.TID 0000.0001) %MON dynstat_uvel_max             =   3.1249293239666E-02
(PID.TID 0000.0001) %MON dynstat_uvel_min             =  -3.0297768486345E-02
(PID.TID 0000.0001) %MON dynstat_uvel_mean            =  -1.5822524093006E-03
(PID.TID 0000.0001) %MON dynstat_uvel_sd              =   3.0663952400694E-03
(PID.TID 0000.0001) %MON dynstat_uvel_del2            =   1.1499485854754E-03
(PID.TID 0000.0001) %MON dynstat_vvel_max             =   4.5742354983291E-02
(PID.TID 0000.0001) %MON dynstat_vvel_min             =  -2.4642475328428E-02
(PID.TID 0000.0001) %MON dynstat_vvel_mean            =   2.6059284822640E-03
(PID.TID 0000.0001) %MON dynstat_vvel_sd              =   8.6511975545164E-03
(PID.TID 0000.0001) %MON dynstat_vvel_del2            =   1.3516253613323E-03
(PID.TID 0000.0001) %MON dynstat_wvel_max             =   1.9796947129506E-04
(PID.TID 0000.0001) %MON dynstat_wvel_min             =  -1.6853471707691E-04
(PID.TID 0000.0001) %MON dynstat_wvel_mean            =   1.8129187835546E-21
(PID.TID 0000.0001) %MON dynstat_wvel_sd              =   2.7015140629596E-05
(PID.TID 0000.0001) %MON dynstat_wvel_del2            =   8.5205034261403E-06
(PID.TID 0000.0001) %MON dynstat_theta_max            =   2.9642012615675E+01
(PID.TID 0000.0001) %MON dynstat_theta_min            =  -1.9090952676905E+00
(PID.TID 0000.0001) %MON dynstat_theta_mean           =   3.6177489118983E+00
(PID.TID 0000.0001) %MON dynstat_theta_sd             =   4.4129126104438E+00
(PID.TID 0000.0001) %MON dynstat_theta_del2           =   1.4830249067056E-01
(PID.TID 0000.0001) %MON dynstat_salt_max             =   3.7460962048093E+01
(PID.TID 0000.0001) %MON dynstat_salt_min             =   2.9759494182332E+01
(PID.TID 0000.0001) %MON dynstat_salt_mean            =   3.4717844458365E+01
(PID.TID 0000.0001) %MON dynstat_salt_sd              =   2.9610456276069E-01
(PID.TID 0000.0001) %MON dynstat_salt_del2            =   2.6520449140125E-02
(PID.TID 0000.0001) %MON advcfl_uvel_max              =   5.9874115293618E-03
(PID.TID 0000.0001) %MON advcfl_vvel_max              =   4.4435029770398E-03
(PID.TID 0000.0001) %MON advcfl_wvel_max              =   2.1258303439631E-01
(PID.TID 0000.0001) %MON advcfl_W_hf_max              =   2.1720450565703E-01
(PID.TID 0000.0001) %MON pe_b_mean                    =   1.1218294890180E-05
(PID.TID 0000.0001) %MON ke_max                       =   8.0824033867116E-04
(PID.TID 0000.0001) %MON ke_mean                      =   4.2058331951634E-05
(PID.TID 0000.0001) %MON ke_vol                       =   1.3226782436723E+18
(PID.TID 0000.0001) %MON vort_r_min                   =  -1.5859184659086E-07
(PID.TID 0000.0001) %MON vort_r_max                   =   1.8492774895125E-07
(PID.TID 0000.0001) %MON vort_a_mean                  =  -2.5205769324251E-05
(PID.TID 0000.0001) %MON vort_a_sd                    =   7.3402977532785E-05
(PID.TID 0000.0001) %MON vort_p_mean                  =  -3.1758669470296E-05
(PID.TID 0000.0001) %MON vort_p_sd                    =   1.3126560822666E-04
(PID.TID 0000.0001) %MON surfExpan_theta_mean         =   1.1378168478080E-04
(PID.TID 0000.0001) %MON surfExpan_salt_mean          =   9.3770494509750E-06
(PID.TID 0000.0001) // =======================================================
(PID.TID 0000.0001) // End MONITOR dynamic field statistics
(PID.TID 0000.0001) // =======================================================
time,SST,SSS,fu,fv,Q,E-P,i0,i1,a,b =   1.2960E+05  1.4368E-01  3.4399E+01 -4.0014E-02 -6.3103E-02  2.6516E+02  0.0000E+00    12     1  5.5000E-01  4.5000E-01
time,fu0,fu1,fu =   1.2960E+05 -4.5368E-02 -3.5633E-02 -4.0014E-02  5.5000E-01  4.5000E-01
 cg2d: Sum(rhs),rhsMax =   8.67682390780916E-14  6.76027372741980E+00
(PID.TID 0000.0001)                    cg2d_init_res =    1.89666572460479E+00
(PID.TID 0000.0001)                       cg2d_iters =    26
(PID.TID 0000.0001)                         cg2d_res =    2.60046349942768E-14
(PID.TID 0000.0001) // =======================================================
(PID.TID 0000.0001) // Begin MONITOR dynamic field statistics
(PID.TID 0000.0001) // =======================================================
(PID.TID 0000.0001) %MON time_tsnumber                =                     4
(PID.TID 0000.0001) %MON time_secondsf                =   1.7280000000000E+05
(PID.TID 0000.0001) %MON dynstat_eta_max              =   5.9317825160805E-01
(PID.TID 0000.0001) %MON dynstat_eta_min              =  -5.0419929407072E-01
(PID.TID 0000.0001) %MON dynstat_eta_mean             =  -2.1289962750039E-17
(PID.TID 0000.0001) %MON dynstat_eta_sd               =   1.2392521142627E-01
(PID.TID 0000.0001) %MON dynstat_eta_del2             =   2.9305792901341E-02
(PID.TID 0000.0001) %MON dynstat_uvel_max             =   4.3681295157247E-02
(PID.TID 0000.0001) %MON dynstat_uvel_min             =  -4.2643878067366E-02
(PID.TID 0000.0001) %MON dynstat_uvel_mean            =  -2.3837131465503E-03
(PID.TID 0000.0001) %MON dynstat_uvel_sd              =   4.1260358816713E-03
(PID.TID 0000.0001) %MON dynstat_uvel_del2            =   1.4972988060613E-03
(PID.TID 0000.0001) %MON dynstat_vvel_max             =   5.3470033439942E-02
(PID.TID 0000.0001) %MON dynstat_vvel_min             =  -3.6368612304988E-02
(PID.TID 0000.0001) %MON dynstat_vvel_mean            =   3.3227911956404E-03
(PID.TID 0000.0001) %MON dynstat_vvel_sd              =   1.0605602948330E-02
(PID.TID 0000.0001) %MON dynstat_vvel_del2            =   1.7514811203042E-03
(PID.TID 0000.0001) %MON dynstat_wvel_max             =   2.0350403176400E-04
(PID.TID 0000.0001) %MON dynstat_wvel_min             =  -2.0404778615030E-04
(PID.TID 0000.0001) %MON dynstat_wvel_mean            =   9.3068152712003E-22
(PID.TID 0000.0001) %MON dynstat_wvel_sd              =   2.8756145900315E-05
(PID.TID 0000.0001) %MON dynstat_wvel_del2            =   8.0962174927255E-06
(PID.TID 0000.0001) %MON dynstat_theta_max            =   2.9646227290836E+01
(PID.TID 0000.0001) %MON dynstat_theta_min            =  -1.9216959727695E+00
(PID.TID 0000.0001) %MON dynstat_theta_mean           =   3.6163026715008E+00
(PID.TID 0000.0001) %MON dynstat_theta_sd             =   4.4099473154944E+00
(PID.TID 0000.0001) %MON dynstat_theta_del2           =   1.4731941994468E-01
(PID.TID 0000.0001) %MON dynstat_salt_max             =   3.7457239404721E+01
(PID.TID 0000.0001) %MON dynstat_salt_min             =   2.9762708214150E+01
(PID.TID 0000.0001) %MON dynstat_salt_mean            =   3.4717720889831E+01
(PID.TID 0000.0001) %MON dynstat_salt_sd              =   2.9612196297668E-01
(PID.TID 0000.0001) %MON dynstat_salt_del2            =   2.6452534972834E-02
(PID.TID 0000.0001) %MON advcfl_uvel_max              =   9.2228417835476E-03
(PID.TID 0000.0001) %MON advcfl_vvel_max              =   5.1941849705724E-03
(PID.TID 0000.0001) %MON advcfl_wvel_max              =   2.3975899717903E-01
(PID.TID 0000.0001) %MON advcfl_W_hf_max              =   2.4014774391423E-01
(PID.TID 0000.0001) %MON pe_b_mean                    =   1.9651718623496E-05
(PID.TID 0000.0001) %MON ke_max                       =   1.2539639063466E-03
(PID.TID 0000.0001) %MON ke_mean                      =   6.5769231186111E-05
(PID.TID 0000.0001) %MON ke_vol                       =   1.3226782436723E+18
(PID.TID 0000.0001) %MON vort_r_min                   =  -2.0761991983201E-07
(PID.TID 0000.0001) %MON vort_r_max                   =   2.3455202722352E-07
(PID.TID 0000.0001) %MON vort_a_mean                  =  -2.5205769320762E-05
(PID.TID 0000.0001) %MON vort_a_sd                    =   7.3402823135857E-05
(PID.TID 0000.0001) %MON vort_p_mean                  =  -3.1758669465899E-05
(PID.TID 0000.0001) %MON vort_p_sd                    =   1.3126523992691E-04
(PID.TID 0000.0001) %MON surfExpan_theta_mean         =   1.3600805352462E-04
(PID.TID 0000.0001) %MON surfExpan_salt_mean          =   1.1329430173724E-05
(PID.TID 0000.0001) // =======================================================
(PID.TID 0000.0001) // End MONITOR dynamic field statistics
(PID.TID 0000.0001) // =======================================================
time,SST,SSS,fu,fv,Q,E-P,i0,i1,a,b =   1.7280E+05  1.7385E-01  3.4410E+01 -3.9851E-02 -6.2886E-02  2.6519E+02  0.0000E+00    12     1  5.6667E-01  4.3333E-01
time,fu0,fu1,fu =   1.7280E+05 -4.5368E-02 -3.5633E-02 -3.9851E-02  5.6667E-01  4.3333E-01
 cg2d: Sum(rhs),rhsMax =   7.83691145832266E-14  6.90919385898357E+00
(PID.TID 0000.0001)                    cg2d_init_res =    1.79503564535610E+00
(PID.TID 0000.0001)                       cg2d_iters =    26
(PID.TID 0000.0001)                         cg2d_res =    2.69235481099444E-14
(PID.TID 0000.0001) // =======================================================
(PID.TID 0000.0001) // Begin MONITOR dynamic field statistics
(PID.TID 0000.0001) // =======================================================
(PID.TID 0000.0001) %MON time_tsnumber                =                     5
(PID.TID 0000.0001) %MON time_secondsf                =   2.1600000000000E+05
(PID.TID 0000.0001) %MON dynstat_eta_max              =   6.3886206282377E-01
(PID.TID 0000.0001) %MON dynstat_eta_min              =  -5.8466579019026E-01
(PID.TID 0000.0001) %MON dynstat_eta_mean             =  -7.4628383416890E-17
(PID.TID 0000.0001) %MON dynstat_eta_sd               =   1.5274823442590E-01
(PID.TID 0000.0001) %MON dynstat_eta_del2             =   2.8795418186615E-02
(PID.TID 0000.0001) %MON dynstat_uvel_max             =   5.5990852402229E-02
(PID.TID 0000.0001) %MON dynstat_uvel_min             =  -5.2967700881403E-02
(PID.TID 0000.0001) %MON dynstat_uvel_mean            =  -3.2726938141878E-03
(PID.TID 0000.0001) %MON dynstat_uvel_sd              =   5.3064480462494E-03
(PID.TID 0000.0001) %MON dynstat_uvel_del2            =   1.8086515716003E-03
(PID.TID 0000.0001) %MON dynstat_vvel_max             =   5.8230386951928E-02
(PID.TID 0000.0001) %MON dynstat_vvel_min             =  -4.7537515839137E-02
(PID.TID 0000.0001) %MON dynstat_vvel_mean            =   3.9344856613267E-03
(PID.TID 0000.0001) %MON dynstat_vvel_sd              =   1.2202140177479E-02
(PID.TID 0000.0001) %MON dynstat_vvel_del2            =   2.1139934886065E-03
(PID.TID 0000.0001) %MON dynstat_wvel_max             =   2.3123941076261E-04
(PID.TID 0000.0001) %MON dynstat_wvel_min             =  -2.3633126750240E-04
(PID.TID 0000.0001) %MON dynstat_wvel_mean            =   9.0401533832773E-22
(PID.TID 0000.0001) %MON dynstat_wvel_sd              =   3.0510315726547E-05
(PID.TID 0000.0001) %MON dynstat_wvel_del2            =   8.8366646482154E-06
(PID.TID 0000.0001) %MON dynstat_theta_max            =   2.9675799229608E+01
(PID.TID 0000.0001) %MON dynstat_theta_min            =  -1.9445993315075E+00
(PID.TID 0000.0001) %MON dynstat_theta_mean           =   3.6146528396788E+00
(PID.TID 0000.0001) %MON dynstat_theta_sd             =   4.4065592879816E+00
(PID.TID 0000.0001) %MON dynstat_theta_del2           =   1.4681330400261E-01
(PID.TID 0000.0001) %MON dynstat_salt_max             =   3.7453465994894E+01
(PID.TID 0000.0001) %MON dynstat_salt_min             =   2.9766119704077E+01
(PID.TID 0000.0001) %MON dynstat_salt_mean            =   3.4717579940772E+01
(PID.TID 0000.0001) %MON dynstat_salt_sd              =   2.9614615849822E-01
(PID.TID 0000.0001) %MON dynstat_salt_del2            =   2.6392019525461E-02
(PID.TID 0000.0001) %MON advcfl_uvel_max              =   1.1917372289238E-02
(PID.TID 0000.0001) %MON advcfl_vvel_max              =   5.6566151408161E-03
(PID.TID 0000.0001) %MON advcfl_wvel_max              =   2.4864374032653E-01
(PID.TID 0000.0001) %MON advcfl_W_hf_max              =   2.5255201968078E-01
(PID.TID 0000.0001) %MON pe_b_mean                    =   2.9856135857130E-05
(PID.TID 0000.0001) %MON ke_max                       =   1.7533288253702E-03
(PID.TID 0000.0001) %MON ke_mean                      =   9.1452714356791E-05
(PID.TID 0000.0001) %MON ke_vol                       =   1.3226782436723E+18
(PID.TID 0000.0001) %MON vort_r_min                   =  -2.5047348047851E-07
(PID.TID 0000.0001) %MON vort_r_max                   =   2.7638899114773E-07
(PID.TID 0000.0001) %MON vort_a_mean                  =  -2.5205769312955E-05
(PID.TID 0000.0001) %MON vort_a_sd                    =   7.3402654505777E-05
(PID.TID 0000.0001) %MON vort_p_mean                  =  -3.1758669456063E-05
(PID.TID 0000.0001) %MON vort_p_sd                    =   1.3126478922194E-04
(PID.TID 0000.0001) %MON surfExpan_theta_mean         =   1.5218327955835E-04
(PID.TID 0000.0001) %MON surfExpan_salt_mean          =   1.2646370885876E-05
(PID.TID 0000.0001) // =======================================================
(PID.TID 0000.0001) // End MONITOR dynamic field statistics
(PID.TID 0000.0001) // =======================================================
time,SST,SSS,fu,fv,Q,E-P,i0,i1,a,b =   2.1600E+05  2.0403E-01  3.4422E+01 -3.9689E-02 -6.2670E-02  2.6521E+02  0.0000E+00    12     1  5.8333E-01  4.1667E-01
time,fu0,fu1,fu =   2.1600E+05 -4.5368E-02 -3.5633E-02 -3.9689E-02  5.8333E-01  4.1667E-01
 cg2d: Sum(rhs),rhsMax =   4.72401523281263E-14  6.95796306635463E+00
(PID.TID 0000.0001)                    cg2d_init_res =    1.72339081535578E+00
(PID.TID 0000.0001)                       cg2d_iters =    26
(PID.TID 0000.0001)                         cg2d_res =    2.75807821902642E-14
(PID.TID 0000.0001) // =======================================================
(PID.TID 0000.0001) // Begin MONITOR dynamic field statistics
(PID.TID 0000.0001) // =======================================================
(PID.TID 0000.0001) %MON time_tsnumber                =                     6
(PID.TID 0000.0001) %MON time_secondsf                =   2.5920000000000E+05
(PID.TID 0000.0001) %MON dynstat_eta_max              =   7.2954555992946E-01
(PID.TID 0000.0001) %MON dynstat_eta_min              =  -6.4961154095620E-01
(PID.TID 0000.0001) %MON dynstat_eta_mean             =   7.3670428285472E-18
(PID.TID 0000.0001) %MON dynstat_eta_sd               =   1.8063851236704E-01
(PID.TID 0000.0001) %MON dynstat_eta_del2             =   2.7892612565634E-02
(PID.TID 0000.0001) %MON dynstat_uvel_max             =   6.7870932159948E-02
(PID.TID 0000.0001) %MON dynstat_uvel_min             =  -6.1343275470592E-02
(PID.TID 0000.0001) %MON dynstat_uvel_mean            =  -4.2172599818288E-03
(PID.TID 0000.0001) %MON dynstat_uvel_sd              =   6.5684345409834E-03
(PID.TID 0000.0001) %MON dynstat_uvel_del2            =   2.0889741854221E-03
(PID.TID 0000.0001) %MON dynstat_vvel_max             =   6.7658678465419E-02
(PID.TID 0000.0001) %MON dynstat_vvel_min             =  -5.8015017722314E-02
(PID.TID 0000.0001) %MON dynstat_vvel_mean            =   4.4283119843623E-03
(PID.TID 0000.0001) %MON dynstat_vvel_sd              =   1.3457357267769E-02
(PID.TID 0000.0001) %MON dynstat_vvel_del2            =   2.4292824769330E-03
(PID.TID 0000.0001) %MON dynstat_wvel_max             =   2.5357760658129E-04
(PID.TID 0000.0001) %MON dynstat_wvel_min             =  -2.6311873197566E-04
(PID.TID 0000.0001) %MON dynstat_wvel_mean            =  -2.7811586315222E-21
(PID.TID 0000.0001) %MON dynstat_wvel_sd              =   3.2285495663543E-05
(PID.TID 0000.0001) %MON dynstat_wvel_del2            =   9.9863446140225E-06
(PID.TID 0000.0001) %MON dynstat_theta_max            =   2.9704203918043E+01
(PID.TID 0000.0001) %MON dynstat_theta_min            =  -1.9734586898172E+00
(PID.TID 0000.0001) %MON dynstat_theta_mean           =   3.6128622292501E+00
(PID.TID 0000.0001) %MON dynstat_theta_sd             =   4.4028267867836E+00
(PID.TID 0000.0001) %MON dynstat_theta_del2           =   1.4634782487822E-01
(PID.TID 0000.0001) %MON dynstat_salt_max             =   3.7449687470407E+01
(PID.TID 0000.0001) %MON dynstat_salt_min             =   2.9769589955140E+01
(PID.TID 0000.0001) %MON dynstat_salt_mean            =   3.4717428463432E+01
(PID.TID 0000.0001) %MON dynstat_salt_sd              =   2.9616595113678E-01
(PID.TID 0000.0001) %MON dynstat_salt_del2            =   2.6336883116870E-02
(PID.TID 0000.0001) %MON advcfl_uvel_max              =   1.4693879011757E-02
(PID.TID 0000.0001) %MON advcfl_vvel_max              =   6.5724980555436E-03
(PID.TID 0000.0001) %MON advcfl_wvel_max              =   2.1403734072048E-01
(PID.TID 0000.0001) %MON advcfl_W_hf_max              =   2.2284122860554E-01
(PID.TID 0000.0001) %MON pe_b_mean                    =   4.1754366235226E-05
(PID.TID 0000.0001) %MON ke_max                       =   2.3320382969282E-03
(PID.TID 0000.0001) %MON ke_mean                      =   1.1778894897083E-04
(PID.TID 0000.0001) %MON ke_vol                       =   1.3226782436723E+18
(PID.TID 0000.0001) %MON vort_r_min                   =  -2.8519236312674E-07
(PID.TID 0000.0001) %MON vort_r_max                   =   3.1015908733175E-07
(PID.TID 0000.0001) %MON vort_a_mean                  =  -2.5205769324003E-05
(PID.TID 0000.0001) %MON vort_a_sd                    =   7.3402476675741E-05
(PID.TID 0000.0001) %MON vort_p_mean                  =  -3.1758669469983E-05
(PID.TID 0000.0001) %MON vort_p_sd                    =   1.3126427073739E-04
(PID.TID 0000.0001) %MON surfExpan_theta_mean         =   1.6288541231746E-04
(PID.TID 0000.0001) %MON surfExpan_salt_mean          =   1.3421014223680E-05
(PID.TID 0000.0001) // =======================================================
(PID.TID 0000.0001) // End MONITOR dynamic field statistics
(PID.TID 0000.0001) // =======================================================
time,SST,SSS,fu,fv,Q,E-P,i0,i1,a,b =   2.5920E+05  2.3421E-01  3.4434E+01 -3.9527E-02 -6.2453E-02  2.6523E+02  0.0000E+00    12     1  6.0000E-01  4.0000E-01
time,fu0,fu1,fu =   2.5920E+05 -4.5368E-02 -3.5633E-02 -3.9527E-02  6.0000E-01  4.0000E-01
 cg2d: Sum(rhs),rhsMax =   1.79153566981505E-15  7.26142895006534E+00
(PID.TID 0000.0001)                    cg2d_init_res =    1.59127813927819E+00
(PID.TID 0000.0001)                       cg2d_iters =    26
(PID.TID 0000.0001)                         cg2d_res =    2.59541771713982E-14
(PID.TID 0000.0001) // =======================================================
(PID.TID 0000.0001) // Begin MONITOR dynamic field statistics
(PID.TID 0000.0001) // =======================================================
(PID.TID 0000.0001) %MON time_tsnumber                =                     7
(PID.TID 0000.0001) %MON time_secondsf                =   3.0240000000000E+05
(PID.TID 0000.0001) %MON dynstat_eta_max              =   8.3343518968385E-01
(PID.TID 0000.0001) %MON dynstat_eta_min              =  -7.0392183236459E-01
(PID.TID 0000.0001) %MON dynstat_eta_mean             =   3.9536451592141E-17
(PID.TID 0000.0001) %MON dynstat_eta_sd               =   2.0762366211268E-01
(PID.TID 0000.0001) %MON dynstat_eta_del2             =   2.6994007831519E-02
(PID.TID 0000.0001) %MON dynstat_uvel_max             =   7.9138186794602E-02
(PID.TID 0000.0001) %MON dynstat_uvel_min             =  -7.4905594579523E-02
(PID.TID 0000.0001) %MON dynstat_uvel_mean            =  -5.1848169210650E-03
(PID.TID 0000.0001) %MON dynstat_uvel_sd              =   7.8759332996617E-03
(PID.TID 0000.0001) %MON dynstat_uvel_del2            =   2.3427902983542E-03
(PID.TID 0000.0001) %MON dynstat_vvel_max             =   7.6939469706234E-02
(PID.TID 0000.0001) %MON dynstat_vvel_min             =  -6.8510207005249E-02
(PID.TID 0000.0001) %MON dynstat_vvel_mean            =   4.7959816447869E-03
(PID.TID 0000.0001) %MON dynstat_vvel_sd              =   1.4389391754975E-02
(PID.TID 0000.0001) %MON dynstat_vvel_del2            =   2.6988115008382E-03
(PID.TID 0000.0001) %MON dynstat_wvel_max             =   2.7051516476254E-04
(PID.TID 0000.0001) %MON dynstat_wvel_min             =  -2.8373946384446E-04
(PID.TID 0000.0001) %MON dynstat_wvel_mean            =   2.1241008580052E-21
(PID.TID 0000.0001) %MON dynstat_wvel_sd              =   3.3910586302856E-05
(PID.TID 0000.0001) %MON dynstat_wvel_del2            =   1.0985788117378E-05
(PID.TID 0000.0001) %MON dynstat_theta_max            =   2.9714219474298E+01
(PID.TID 0000.0001) %MON dynstat_theta_min            =  -2.0061809479046E+00
(PID.TID 0000.0001) %MON dynstat_theta_mean           =   3.6109886459806E+00
(PID.TID 0000.0001) %MON dynstat_theta_sd             =   4.3988335725468E+00
(PID.TID 0000.0001) %MON dynstat_theta_del2           =   1.4577750827864E-01
(PID.TID 0000.0001) %MON dynstat_salt_max             =   3.7446164458085E+01
(PID.TID 0000.0001) %MON dynstat_salt_min             =   2.9772986371632E+01
(PID.TID 0000.0001) %MON dynstat_salt_mean            =   3.4717271939766E+01
(PID.TID 0000.0001) %MON dynstat_salt_sd              =   2.9617837385922E-01
(PID.TID 0000.0001) %MON dynstat_salt_del2            =   2.6284756176044E-02
(PID.TID 0000.0001) %MON advcfl_uvel_max              =   1.7010444927603E-02
(PID.TID 0000.0001) %MON advcfl_vvel_max              =   7.4740525015906E-03
(PID.TID 0000.0001) %MON advcfl_wvel_max              =   1.8661391501105E-01
(PID.TID 0000.0001) %MON advcfl_W_hf_max              =   1.8450615815173E-01
(PID.TID 0000.0001) %MON pe_b_mean                    =   5.5161350975150E-05
(PID.TID 0000.0001) %MON ke_max                       =   3.1796296035392E-03
(PID.TID 0000.0001) %MON ke_mean                      =   1.4367660334405E-04
(PID.TID 0000.0001) %MON ke_vol                       =   1.3226782436723E+18
(PID.TID 0000.0001) %MON vort_r_min                   =  -3.1104945319815E-07
(PID.TID 0000.0001) %MON vort_r_max                   =   3.3687051307237E-07
(PID.TID 0000.0001) %MON vort_a_mean                  =  -2.5205769365696E-05
(PID.TID 0000.0001) %MON vort_a_sd                    =   7.3402294898955E-05
(PID.TID 0000.0001) %MON vort_p_mean                  =  -3.1758669522515E-05
(PID.TID 0000.0001) %MON vort_p_sd                    =   1.3126370185055E-04
(PID.TID 0000.0001) %MON surfExpan_theta_mean         =   1.6859473632651E-04
(PID.TID 0000.0001) %MON surfExpan_salt_mean          =   1.3730473313433E-05
(PID.TID 0000.0001) // =======================================================
(PID.TID 0000.0001) // End MONITOR dynamic field statistics
(PID.TID 0000.0001) // =======================================================
time,SST,SSS,fu,fv,Q,E-P,i0,i1,a,b =   3.0240E+05  2.6438E-01  3.4446E+01 -3.9365E-02 -6.2237E-02  2.6525E+02  0.0000E+00    12     1  6.1667E-01  3.8333E-01
time,fu0,fu1,fu =   3.0240E+05 -4.5368E-02 -3.5633E-02 -3.9365E-02  6.1667E-01  3.8333E-01
 cg2d: Sum(rhs),rhsMax =  -4.10236352266918E-14  7.87405341587757E+00
(PID.TID 0000.0001)                    cg2d_init_res =    1.41263773554475E+00
(PID.TID 0000.0001)                       cg2d_iters =    26
(PID.TID 0000.0001)                         cg2d_res =    2.31728758733665E-14
(PID.TID 0000.0001) // =======================================================
(PID.TID 0000.0001) // Begin MONITOR dynamic field statistics
(PID.TID 0000.0001) // =======================================================
(PID.TID 0000.0001) %MON time_tsnumber                =                     8
(PID.TID 0000.0001) %MON time_secondsf                =   3.4560000000000E+05
(PID.TID 0000.0001) %MON dynstat_eta_max              =   9.0728606744279E-01
(PID.TID 0000.0001) %MON dynstat_eta_min              =  -7.4822221983617E-01
(PID.TID 0000.0001) %MON dynstat_eta_mean             =   1.4111594165174E-16
(PID.TID 0000.0001) %MON dynstat_eta_sd               =   2.3348839159306E-01
(PID.TID 0000.0001) %MON dynstat_eta_del2             =   2.6378400259973E-02
(PID.TID 0000.0001) %MON dynstat_uvel_max             =   8.9733384886912E-02
(PID.TID 0000.0001) %MON dynstat_uvel_min             =  -9.3793560956718E-02
(PID.TID 0000.0001) %MON dynstat_uvel_mean            =  -6.1431643725599E-03
(PID.TID 0000.0001) %MON dynstat_uvel_sd              =   9.1947443921480E-03
(PID.TID 0000.0001) %MON dynstat_uvel_del2            =   2.5725458531042E-03
(PID.TID 0000.0001) %MON dynstat_vvel_max             =   8.3079856699750E-02
(PID.TID 0000.0001) %MON dynstat_vvel_min             =  -7.8020151441577E-02
(PID.TID 0000.0001) %MON dynstat_vvel_mean            =   5.0341157151992E-03
(PID.TID 0000.0001) %MON dynstat_vvel_sd              =   1.5022040578025E-02
(PID.TID 0000.0001) %MON dynstat_vvel_del2            =   2.9229424093130E-03
(PID.TID 0000.0001) %MON dynstat_wvel_max             =   2.8154742114981E-04
(PID.TID 0000.0001) %MON dynstat_wvel_min             =  -2.9808856069258E-04
(PID.TID 0000.0001) %MON dynstat_wvel_mean            =   1.1165572543165E-21
(PID.TID 0000.0001) %MON dynstat_wvel_sd              =   3.5222609197739E-05
(PID.TID 0000.0001) %MON dynstat_wvel_del2            =   1.1728865284315E-05
(PID.TID 0000.0001) %MON dynstat_theta_max            =   2.9700840240560E+01
(PID.TID 0000.0001) %MON dynstat_theta_min            =  -2.0401769891158E+00
(PID.TID 0000.0001) %MON dynstat_theta_mean           =   3.6090851295427E+00
(PID.TID 0000.0001) %MON dynstat_theta_sd             =   4.3946635384348E+00
(PID.TID 0000.0001) %MON dynstat_theta_del2           =   1.4512375631889E-01
(PID.TID 0000.0001) %MON dynstat_salt_max             =   3.7443020990754E+01
(PID.TID 0000.0001) %MON dynstat_salt_min             =   2.9776189128052E+01
(PID.TID 0000.0001) %MON dynstat_salt_mean            =   3.4717115091239E+01
(PID.TID 0000.0001) %MON dynstat_salt_sd              =   2.9618230856704E-01
(PID.TID 0000.0001) %MON dynstat_salt_del2            =   2.6236251239629E-02
(PID.TID 0000.0001) %MON advcfl_uvel_max              =   1.8100009074000E-02
(PID.TID 0000.0001) %MON advcfl_vvel_max              =   8.0705418580269E-03
(PID.TID 0000.0001) %MON advcfl_wvel_max              =   2.0070416050243E-01
(PID.TID 0000.0001) %MON advcfl_W_hf_max              =   2.0100116847585E-01
(PID.TID 0000.0001) %MON pe_b_mean                    =   6.9760853784378E-05
(PID.TID 0000.0001) %MON ke_max                       =   4.1087827209913E-03
(PID.TID 0000.0001) %MON ke_mean                      =   1.6824117979257E-04
(PID.TID 0000.0001) %MON ke_vol                       =   1.3226782436723E+18
(PID.TID 0000.0001) %MON vort_r_min                   =  -3.2852623975798E-07
(PID.TID 0000.0001) %MON vort_r_max                   =   3.9676035884959E-07
(PID.TID 0000.0001) %MON vort_a_mean                  =  -2.5205769434789E-05
(PID.TID 0000.0001) %MON vort_a_sd                    =   7.3402114521454E-05
(PID.TID 0000.0001) %MON vort_p_mean                  =  -3.1758669609571E-05
(PID.TID 0000.0001) %MON vort_p_sd                    =   1.3126310095405E-04
(PID.TID 0000.0001) %MON surfExpan_theta_mean         =   1.6981797291020E-04
(PID.TID 0000.0001) %MON surfExpan_salt_mean          =   1.3628243899160E-05
(PID.TID 0000.0001) // =======================================================
(PID.TID 0000.0001) // End MONITOR dynamic field statistics
(PID.TID 0000.0001) // =======================================================
time,SST,SSS,fu,fv,Q,E-P,i0,i1,a,b =   3.4560E+05  2.9456E-01  3.4457E+01 -3.9202E-02 -6.2020E-02  2.6528E+02  0.0000E+00    12     1  6.3333E-01  3.6667E-01
time,fu0,fu1,fu =   3.4560E+05 -4.5368E-02 -3.5633E-02 -3.9202E-02  6.3333E-01  3.6667E-01
 cg2d: Sum(rhs),rhsMax =  -7.12574530631338E-14  8.21104689980229E+00
(PID.TID 0000.0001)                    cg2d_init_res =    1.30396903939418E+00
(PID.TID 0000.0001)                       cg2d_iters =    25
(PID.TID 0000.0001)                         cg2d_res =    9.53438100406476E-14
(PID.TID 0000.0001) // =======================================================
(PID.TID 0000.0001) // Begin MONITOR dynamic field statistics
(PID.TID 0000.0001) // =======================================================
(PID.TID 0000.0001) %MON time_tsnumber                =                     9
(PID.TID 0000.0001) %MON time_secondsf                =   3.8880000000000E+05
(PID.TID 0000.0001) %MON dynstat_eta_max              =   9.5043418398748E-01
(PID.TID 0000.0001) %MON dynstat_eta_min              =  -8.3274378543271E-01
(PID.TID 0000.0001) %MON dynstat_eta_mean             =   5.9281119174743E-17
(PID.TID 0000.0001) %MON dynstat_eta_sd               =   2.5793122162660E-01
(PID.TID 0000.0001) %MON dynstat_eta_del2             =   2.5809218816482E-02
(PID.TID 0000.0001) %MON dynstat_uvel_max             =   9.9673112383595E-02
(PID.TID 0000.0001) %MON dynstat_uvel_min             =  -1.1010182732289E-01
(PID.TID 0000.0001) %MON dynstat_uvel_mean            =  -7.0614174452758E-03
(PID.TID 0000.0001) %MON dynstat_uvel_sd              =   1.0492458108795E-02
(PID.TID 0000.0001) %MON dynstat_uvel_del2            =   2.7764675552733E-03
(PID.TID 0000.0001) %MON dynstat_vvel_max             =   8.6406243774279E-02
(PID.TID 0000.0001) %MON dynstat_vvel_min             =  -8.6428853117283E-02
(PID.TID 0000.0001) %MON dynstat_vvel_mean            =   5.1443794051130E-03
(PID.TID 0000.0001) %MON dynstat_vvel_sd              =   1.5386434565896E-02
(PID.TID 0000.0001) %MON dynstat_vvel_del2            =   3.1031072352635E-03
(PID.TID 0000.0001) %MON dynstat_wvel_max             =   2.8585828180320E-04
(PID.TID 0000.0001) %MON dynstat_wvel_min             =  -3.0678183905547E-04
(PID.TID 0000.0001) %MON dynstat_wvel_mean            =   1.6446818748457E-21
(PID.TID 0000.0001) %MON dynstat_wvel_sd              =   3.6120593878187E-05
(PID.TID 0000.0001) %MON dynstat_wvel_del2            =   1.2239385644447E-05
(PID.TID 0000.0001) %MON dynstat_theta_max            =   2.9668327200828E+01
(PID.TID 0000.0001) %MON dynstat_theta_min            =  -2.0727780510822E+00
(PID.TID 0000.0001) %MON dynstat_theta_mean           =   3.6071987978663E+00
(PID.TID 0000.0001) %MON dynstat_theta_sd             =   4.3903954720295E+00
(PID.TID 0000.0001) %MON dynstat_theta_del2           =   1.4443308747977E-01
(PID.TID 0000.0001) %MON dynstat_salt_max             =   3.7440248228970E+01
(PID.TID 0000.0001) %MON dynstat_salt_min             =   2.9779096767871E+01
(PID.TID 0000.0001) %MON dynstat_salt_mean            =   3.4716962194771E+01
(PID.TID 0000.0001) %MON dynstat_salt_sd              =   2.9617797356354E-01
(PID.TID 0000.0001) %MON dynstat_salt_del2            =   2.6191272129426E-02
(PID.TID 0000.0001) %MON advcfl_uvel_max              =   1.7828802341612E-02
(PID.TID 0000.0001) %MON advcfl_vvel_max              =   8.3958700042677E-03
(PID.TID 0000.0001) %MON advcfl_wvel_max              =   2.0595783910599E-01
(PID.TID 0000.0001) %MON advcfl_W_hf_max              =   2.1214968252391E-01
(PID.TID 0000.0001) %MON pe_b_mean                    =   8.5131253927647E-05
(PID.TID 0000.0001) %MON ke_max                       =   5.0958286820971E-03
(PID.TID 0000.0001) %MON ke_mean                      =   1.9083527564151E-04
(PID.TID 0000.0001) %MON ke_vol                       =   1.3226782436723E+18
(PID.TID 0000.0001) %MON vort_r_min                   =  -3.3885594311991E-07
(PID.TID 0000.0001) %MON vort_r_max                   =   4.6632536995342E-07
(PID.TID 0000.0001) %MON vort_a_mean                  =  -2.5205769519707E-05
(PID.TID 0000.0001) %MON vort_a_sd                    =   7.3401940789833E-05
(PID.TID 0000.0001) %MON vort_p_mean                  =  -3.1758669716565E-05
(PID.TID 0000.0001) %MON vort_p_sd                    =   1.3126248785266E-04
(PID.TID 0000.0001) %MON surfExpan_theta_mean         =   1.6712320241597E-04
(PID.TID 0000.0001) %MON surfExpan_salt_mean          =   1.3161050083780E-05
(PID.TID 0000.0001) // =======================================================
(PID.TID 0000.0001) // End MONITOR dynamic field statistics
(PID.TID 0000.0001) // =======================================================
time,SST,SSS,fu,fv,Q,E-P,i0,i1,a,b =   3.8880E+05  3.2473E-01  3.4469E+01 -3.9040E-02 -6.1804E-02  2.6530E+02  0.0000E+00    12     1  6.5000E-01  3.5000E-01
time,fu0,fu1,fu =   3.8880E+05 -4.5368E-02 -3.5633E-02 -3.9040E-02  6.5000E-01  3.5000E-01
 cg2d: Sum(rhs),rhsMax =  -2.82981862768927E-13  8.31387689525145E+00
(PID.TID 0000.0001)                    cg2d_init_res =    1.23996157384724E+00
(PID.TID 0000.0001)                       cg2d_iters =    25
(PID.TID 0000.0001)                         cg2d_res =    8.87177064045213E-14
(PID.TID 0000.0001) // =======================================================
(PID.TID 0000.0001) // Begin MONITOR dynamic field statistics
(PID.TID 0000.0001) // =======================================================
(PID.TID 0000.0001) %MON time_tsnumber                =                    10
(PID.TID 0000.0001) %MON time_secondsf                =   4.3200000000000E+05
(PID.TID 0000.0001) %MON dynstat_eta_max              =   9.6742180781561E-01
(PID.TID 0000.0001) %MON dynstat_eta_min              =  -8.8668077927879E-01
(PID.TID 0000.0001) %MON dynstat_eta_mean             =   2.0080163005587E-16
(PID.TID 0000.0001) %MON dynstat_eta_sd               =   2.8063673442026E-01
(PID.TID 0000.0001) %MON dynstat_eta_del2             =   2.5141484221626E-02
(PID.TID 0000.0001) %MON dynstat_uvel_max             =   1.0898321167861E-01
(PID.TID 0000.0001) %MON dynstat_uvel_min             =  -1.2267215686258E-01
(PID.TID 0000.0001) %MON dynstat_uvel_mean            =  -7.9108230144667E-03
(PID.TID 0000.0001) %MON dynstat_uvel_sd              =   1.1739635694707E-02
(PID.TID 0000.0001) %MON dynstat_uvel_del2            =   2.9549448559724E-03
(PID.TID 0000.0001) %MON dynstat_vvel_max             =   9.6264477120278E-02
(PID.TID 0000.0001) %MON dynstat_vvel_min             =  -9.3555696363209E-02
(PID.TID 0000.0001) %MON dynstat_vvel_mean            =   5.1334913757172E-03
(PID.TID 0000.0001) %MON dynstat_vvel_sd              =   1.5521283883459E-02
(PID.TID 0000.0001) %MON dynstat_vvel_del2            =   3.2442127370815E-03
(PID.TID 0000.0001) %MON dynstat_wvel_max             =   2.8278294393544E-04
(PID.TID 0000.0001) %MON dynstat_wvel_min             =  -3.1985000365880E-04
(PID.TID 0000.0001) %MON dynstat_wvel_mean            =  -1.4445333561937E-23
(PID.TID 0000.0001) %MON dynstat_wvel_sd              =   3.6565128856654E-05
(PID.TID 0000.0001) %MON dynstat_wvel_del2            =   1.2516363831291E-05
(PID.TID 0000.0001) %MON dynstat_theta_max            =   2.9626177805145E+01
(PID.TID 0000.0001) %MON dynstat_theta_min            =  -2.1016312579536E+00
(PID.TID 0000.0001) %MON dynstat_theta_mean           =   3.6053699364071E+00
(PID.TID 0000.0001) %MON dynstat_theta_sd             =   4.3860997906035E+00
(PID.TID 0000.0001) %MON dynstat_theta_del2           =   1.4376156738470E-01
(PID.TID 0000.0001) %MON dynstat_salt_max             =   3.7437795847370E+01
(PID.TID 0000.0001) %MON dynstat_salt_min             =   2.9781630503064E+01
(PID.TID 0000.0001) %MON dynstat_salt_mean            =   3.4716817045393E+01
(PID.TID 0000.0001) %MON dynstat_salt_sd              =   2.9616620175825E-01
(PID.TID 0000.0001) %MON dynstat_salt_del2            =   2.6150507599945E-02
(PID.TID 0000.0001) %MON advcfl_uvel_max              =   1.6319980416898E-02
(PID.TID 0000.0001) %MON advcfl_vvel_max              =   9.3513220039367E-03
(PID.TID 0000.0001) %MON advcfl_wvel_max              =   2.0143886700141E-01
(PID.TID 0000.0001) %MON advcfl_W_hf_max              =   2.0369625396172E-01
(PID.TID 0000.0001) %MON pe_b_mean                    =   1.0077904449677E-04
(PID.TID 0000.0001) %MON ke_max                       =   6.1325692608262E-03
(PID.TID 0000.0001) %MON ke_mean                      =   2.1103090044406E-04
(PID.TID 0000.0001) %MON ke_vol                       =   1.3226782436723E+18
(PID.TID 0000.0001) %MON vort_r_min                   =  -3.4557579274863E-07
(PID.TID 0000.0001) %MON vort_r_max                   =   5.2614683499905E-07
(PID.TID 0000.0001) %MON vort_a_mean                  =  -2.5205769606775E-05
(PID.TID 0000.0001) %MON vort_a_sd                    =   7.3401778691384E-05
(PID.TID 0000.0001) %MON vort_p_mean                  =  -3.1758669826269E-05
(PID.TID 0000.0001) %MON vort_p_sd                    =   1.3126188458855E-04
(PID.TID 0000.0001) %MON surfExpan_theta_mean         =   1.6111699141544E-04
(PID.TID 0000.0001) %MON surfExpan_salt_mean          =   1.2382391076957E-05
(PID.TID 0000.0001) // =======================================================
(PID.TID 0000.0001) // End MONITOR dynamic field statistics
(PID.TID 0000.0001) // =======================================================
time,SST,SSS,fu,fv,Q,E-P,i0,i1,a,b =   4.3200E+05  3.5491E-01  3.4481E+01 -3.8878E-02 -6.1587E-02  2.6532E+02  0.0000E+00    12     1  6.6667E-01  3.3333E-01
time,fu0,fu1,fu =   4.3200E+05 -4.5368E-02 -3.5633E-02 -3.8878E-02  6.6667E-01  3.3333E-01
 cg2d: Sum(rhs),rhsMax =  -4.89446428265233E-13  8.25117819942858E+00
(PID.TID 0000.0001)                    cg2d_init_res =    1.20298714405921E+00
(PID.TID 0000.0001)                       cg2d_iters =    25
(PID.TID 0000.0001)                         cg2d_res =    8.44458149684212E-14
(PID.TID 0000.0001) // =======================================================
(PID.TID 0000.0001) // Begin MONITOR dynamic field statistics
(PID.TID 0000.0001) // =======================================================
(PID.TID 0000.0001) %MON time_tsnumber                =                    11
(PID.TID 0000.0001) %MON time_secondsf                =   4.7520000000000E+05
(PID.TID 0000.0001) %MON dynstat_eta_max              =   9.6531470970526E-01
(PID.TID 0000.0001) %MON dynstat_eta_min              =  -9.1767427412940E-01
(PID.TID 0000.0001) %MON dynstat_eta_mean             =   4.2862141695466E-16
(PID.TID 0000.0001) %MON dynstat_eta_sd               =   3.0131388529589E-01
(PID.TID 0000.0001) %MON dynstat_eta_del2             =   2.4438099131712E-02
(PID.TID 0000.0001) %MON dynstat_uvel_max             =   1.1766183520009E-01
(PID.TID 0000.0001) %MON dynstat_uvel_min             =  -1.3089544538490E-01
(PID.TID 0000.0001) %MON dynstat_uvel_mean            =  -8.6656575475171E-03
(PID.TID 0000.0001) %MON dynstat_uvel_sd              =   1.2911316327518E-02
(PID.TID 0000.0001) %MON dynstat_uvel_del2            =   3.1096435439245E-03
(PID.TID 0000.0001) %MON dynstat_vvel_max             =   1.0386909172472E-01
(PID.TID 0000.0001) %MON dynstat_vvel_min             =  -9.9179237731447E-02
(PID.TID 0000.0001) %MON dynstat_vvel_mean            =   5.0130834668815E-03
(PID.TID 0000.0001) %MON dynstat_vvel_sd              =   1.5471797084454E-02
(PID.TID 0000.0001) %MON dynstat_vvel_del2            =   3.3506232873822E-03
(PID.TID 0000.0001) %MON dynstat_wvel_max             =   2.7555415634867E-04
(PID.TID 0000.0001) %MON dynstat_wvel_min             =  -3.4119028286234E-04
(PID.TID 0000.0001) %MON dynstat_wvel_mean            =  -7.9899488501742E-22
(PID.TID 0000.0001) %MON dynstat_wvel_sd              =   3.6569636180294E-05
(PID.TID 0000.0001) %MON dynstat_wvel_del2            =   1.2585708309192E-05
(PID.TID 0000.0001) %MON dynstat_theta_max            =   2.9583729329913E+01
(PID.TID 0000.0001) %MON dynstat_theta_min            =  -2.1250303258177E+00
(PID.TID 0000.0001) %MON dynstat_theta_mean           =   3.6036317211243E+00
(PID.TID 0000.0001) %MON dynstat_theta_sd             =   4.3818384587860E+00
(PID.TID 0000.0001) %MON dynstat_theta_del2           =   1.4314408451835E-01
(PID.TID 0000.0001) %MON dynstat_salt_max             =   3.7435608636096E+01
(PID.TID 0000.0001) %MON dynstat_salt_min             =   2.9783737071665E+01
(PID.TID 0000.0001) %MON dynstat_salt_mean            =   3.4716682789191E+01
(PID.TID 0000.0001) %MON dynstat_salt_sd              =   2.9614800053957E-01
(PID.TID 0000.0001) %MON dynstat_salt_del2            =   2.6115323399825E-02
(PID.TID 0000.0001) %MON advcfl_uvel_max              =   1.7540082897963E-02
(PID.TID 0000.0001) %MON advcfl_vvel_max              =   1.0090049331081E-02
(PID.TID 0000.0001) %MON advcfl_wvel_max              =   1.9682320796015E-01
(PID.TID 0000.0001) %MON advcfl_W_hf_max              =   1.8963573497887E-01
(PID.TID 0000.0001) %MON pe_b_mean                    =   1.1617682171820E-04
(PID.TID 0000.0001) %MON ke_max                       =   7.2063906550669E-03
(PID.TID 0000.0001) %MON ke_mean                      =   2.2860046792300E-04
(PID.TID 0000.0001) %MON ke_vol                       =   1.3226782436723E+18
(PID.TID 0000.0001) %MON vort_r_min                   =  -3.4933758269281E-07
(PID.TID 0000.0001) %MON vort_r_max                   =   5.7308576547021E-07
(PID.TID 0000.0001) %MON vort_a_mean                  =  -2.5205769683544E-05
(PID.TID 0000.0001) %MON vort_a_sd                    =   7.3401632798804E-05
(PID.TID 0000.0001) %MON vort_p_mean                  =  -3.1758669922996E-05
(PID.TID 0000.0001) %MON vort_p_sd                    =   1.3126131531730E-04
(PID.TID 0000.0001) %MON surfExpan_theta_mean         =   1.5240678769442E-04
(PID.TID 0000.0001) %MON surfExpan_salt_mean          =   1.1354031855872E-05
(PID.TID 0000.0001) // =======================================================
(PID.TID 0000.0001) // End MONITOR dynamic field statistics
(PID.TID 0000.0001) // =======================================================
time,SST,SSS,fu,fv,Q,E-P,i0,i1,a,b =   4.7520E+05  3.8508E-01  3.4492E+01 -3.8716E-02 -6.1371E-02  2.6534E+02  0.0000E+00    12     1  6.8333E-01  3.1667E-01
time,fu0,fu1,fu =   4.7520E+05 -4.5368E-02 -3.5633E-02 -3.8716E-02  6.8333E-01  3.1667E-01
 cg2d: Sum(rhs),rhsMax =  -6.81918937821008E-13  8.09140167351002E+00
(PID.TID 0000.0001)                    cg2d_init_res =    1.18153761615020E+00
(PID.TID 0000.0001)                       cg2d_iters =    25
(PID.TID 0000.0001)                         cg2d_res =    8.15239878357780E-14
(PID.TID 0000.0001) // =======================================================
(PID.TID 0000.0001) // Begin MONITOR dynamic field statistics
(PID.TID 0000.0001) // =======================================================
(PID.TID 0000.0001) %MON time_tsnumber                =                    12
(PID.TID 0000.0001) %MON time_secondsf                =   5.1840000000000E+05
(PID.TID 0000.0001) %MON dynstat_eta_max              =   9.9562267168820E-01
(PID.TID 0000.0001) %MON dynstat_eta_min              =  -1.0102721361441E+00
(PID.TID 0000.0001) %MON dynstat_eta_mean             =   5.3852465220395E-16
(PID.TID 0000.0001) %MON dynstat_eta_sd               =   3.1972320433287E-01
(PID.TID 0000.0001) %MON dynstat_eta_del2             =   2.3687377130715E-02
(PID.TID 0000.0001) %MON dynstat_uvel_max             =   1.2568027309540E-01
(PID.TID 0000.0001) %MON dynstat_uvel_min             =  -1.3461684889716E-01
(PID.TID 0000.0001) %MON dynstat_uvel_mean            =  -9.3042513998594E-03
(PID.TID 0000.0001) %MON dynstat_uvel_sd              =   1.3988069361377E-02
(PID.TID 0000.0001) %MON dynstat_uvel_del2            =   3.2396180237244E-03
(PID.TID 0000.0001) %MON dynstat_vvel_max             =   1.0890924988152E-01
(PID.TID 0000.0001) %MON dynstat_vvel_min             =  -1.0307779329680E-01
(PID.TID 0000.0001) %MON dynstat_vvel_mean            =   4.7992397510344E-03
(PID.TID 0000.0001) %MON dynstat_vvel_sd              =   1.5287349934375E-02
(PID.TID 0000.0001) %MON dynstat_vvel_del2            =   3.4229838362726E-03
(PID.TID 0000.0001) %MON dynstat_wvel_max             =   2.6645820903172E-04
(PID.TID 0000.0001) %MON dynstat_wvel_min             =  -3.5712154218841E-04
(PID.TID 0000.0001) %MON dynstat_wvel_mean            =  -6.8046611848356E-22
(PID.TID 0000.0001) %MON dynstat_wvel_sd              =   3.6185698600568E-05
(PID.TID 0000.0001) %MON dynstat_wvel_del2            =   1.2475173640005E-05
(PID.TID 0000.0001) %MON dynstat_theta_max            =   2.9547398911882E+01
(PID.TID 0000.0001) %MON dynstat_theta_min            =  -2.1422259951638E+00
(PID.TID 0000.0001) %MON dynstat_theta_mean           =   3.6020104747379E+00
(PID.TID 0000.0001) %MON dynstat_theta_sd             =   4.3776662240734E+00
(PID.TID 0000.0001) %MON dynstat_theta_del2           =   1.4257822492653E-01
(PID.TID 0000.0001) %MON dynstat_salt_max             =   3.7433628624238E+01
(PID.TID 0000.0001) %MON dynstat_salt_min             =   2.9785390096699E+01
(PID.TID 0000.0001) %MON dynstat_salt_mean            =   3.4716561818100E+01
(PID.TID 0000.0001) %MON dynstat_salt_sd              =   2.9612429171987E-01
(PID.TID 0000.0001) %MON dynstat_salt_del2            =   2.6086513406094E-02
(PID.TID 0000.0001) %MON advcfl_uvel_max              =   2.1078049818053E-02
(PID.TID 0000.0001) %MON advcfl_vvel_max              =   1.0579660278804E-02
(PID.TID 0000.0001) %MON advcfl_wvel_max              =   2.0123457972329E-01
(PID.TID 0000.0001) %MON advcfl_W_hf_max              =   1.7559128806930E-01
(PID.TID 0000.0001) %MON pe_b_mean                    =   1.3080655681288E-04
(PID.TID 0000.0001) %MON ke_max                       =   8.2973793070481E-03
(PID.TID 0000.0001) %MON ke_mean                      =   2.4348365526103E-04
(PID.TID 0000.0001) %MON ke_vol                       =   1.3226782436723E+18
(PID.TID 0000.0001) %MON vort_r_min                   =  -3.3976328061587E-07
(PID.TID 0000.0001) %MON vort_r_max                   =   6.0487285808658E-07
(PID.TID 0000.0001) %MON vort_a_mean                  =  -2.5205769740601E-05
(PID.TID 0000.0001) %MON vort_a_sd                    =   7.3401507084391E-05
(PID.TID 0000.0001) %MON vort_p_mean                  =  -3.1758669994887E-05
(PID.TID 0000.0001) %MON vort_p_sd                    =   1.3126080479651E-04
(PID.TID 0000.0001) %MON surfExpan_theta_mean         =   1.4156817685662E-04
(PID.TID 0000.0001) %MON surfExpan_salt_mean          =   1.0141650563653E-05
(PID.TID 0000.0001) // =======================================================
(PID.TID 0000.0001) // End MONITOR dynamic field statistics
(PID.TID 0000.0001) // =======================================================
time,SST,SSS,fu,fv,Q,E-P,i0,i1,a,b =   5.1840E+05  4.1526E-01  3.4504E+01 -3.8553E-02 -6.1154E-02  2.6537E+02  0.0000E+00    12     1  7.0000E-01  3.0000E-01
time,fu0,fu1,fu =   5.1840E+05 -4.5368E-02 -3.5633E-02 -3.8553E-02  7.0000E-01  3.0000E-01
 cg2d: Sum(rhs),rhsMax =  -7.84313315248947E-13  8.55663920737691E+00
(PID.TID 0000.0001)                    cg2d_init_res =    1.07784096896079E+00
(PID.TID 0000.0001)                       cg2d_iters =    25
(PID.TID 0000.0001)                         cg2d_res =    7.21570594046789E-14
(PID.TID 0000.0001) // =======================================================
(PID.TID 0000.0001) // Begin MONITOR dynamic field statistics
(PID.TID 0000.0001) // =======================================================
(PID.TID 0000.0001) %MON time_tsnumber                =                    13
(PID.TID 0000.0001) %MON time_secondsf                =   5.6160000000000E+05
(PID.TID 0000.0001) %MON dynstat_eta_max              =   1.0471431109487E+00
(PID.TID 0000.0001) %MON dynstat_eta_min              =  -1.0887336301182E+00
(PID.TID 0000.0001) %MON dynstat_eta_mean             =   5.5595932366262E-16
(PID.TID 0000.0001) %MON dynstat_eta_sd               =   3.3569800486501E-01
(PID.TID 0000.0001) %MON dynstat_eta_del2             =   2.2892885761203E-02
(PID.TID 0000.0001) %MON dynstat_uvel_max             =   1.3300133494145E-01
(PID.TID 0000.0001) %MON dynstat_uvel_min             =  -1.3403463218587E-01
(PID.TID 0000.0001) %MON dynstat_uvel_mean            =  -9.8099756230891E-03
(PID.TID 0000.0001) %MON dynstat_uvel_sd              =   1.4956299161478E-02
(PID.TID 0000.0001) %MON dynstat_uvel_del2            =   3.3479267083914E-03
(PID.TID 0000.0001) %MON dynstat_vvel_max             =   1.1119269902698E-01
(PID.TID 0000.0001) %MON dynstat_vvel_min             =  -1.0506090118117E-01
(PID.TID 0000.0001) %MON dynstat_vvel_mean            =   4.5116389887034E-03
(PID.TID 0000.0001) %MON dynstat_vvel_sd              =   1.5018247944018E-02
(PID.TID 0000.0001) %MON dynstat_vvel_del2            =   3.4671308166628E-03
(PID.TID 0000.0001) %MON dynstat_wvel_max             =   2.5866905288033E-04
(PID.TID 0000.0001) %MON dynstat_wvel_min             =  -3.6634386015367E-04
(PID.TID 0000.0001) %MON dynstat_wvel_mean            =   1.1250514195618E-22
(PID.TID 0000.0001) %MON dynstat_wvel_sd              =   3.5485095295069E-05
(PID.TID 0000.0001) %MON dynstat_wvel_del2            =   1.2212125392353E-05
(PID.TID 0000.0001) %MON dynstat_theta_max            =   2.9557007837110E+01
(PID.TID 0000.0001) %MON dynstat_theta_min            =  -2.1525010206566E+00
(PID.TID 0000.0001) %MON dynstat_theta_mean           =   3.6005262442842E+00
(PID.TID 0000.0001) %MON dynstat_theta_sd             =   4.3736317189058E+00
(PID.TID 0000.0001) %MON dynstat_theta_del2           =   1.4205883470491E-01
(PID.TID 0000.0001) %MON dynstat_salt_max             =   3.7431795105229E+01
(PID.TID 0000.0001) %MON dynstat_salt_min             =   2.9786589973001E+01
(PID.TID 0000.0001) %MON dynstat_salt_mean            =   3.4716455757823E+01
(PID.TID 0000.0001) %MON dynstat_salt_sd              =   2.9609565900437E-01
(PID.TID 0000.0001) %MON dynstat_salt_del2            =   2.6063539170164E-02
(PID.TID 0000.0001) %MON advcfl_uvel_max              =   2.4449683468726E-02
(PID.TID 0000.0001) %MON advcfl_vvel_max              =   1.0801479052226E-02
(PID.TID 0000.0001) %MON advcfl_wvel_max              =   2.0206405691029E-01
(PID.TID 0000.0001) %MON advcfl_W_hf_max              =   1.7745725675385E-01
(PID.TID 0000.0001) %MON pe_b_mean                    =   1.4420446925125E-04
(PID.TID 0000.0001) %MON ke_max                       =   9.3799970544618E-03
(PID.TID 0000.0001) %MON ke_mean                      =   2.5574393661756E-04
(PID.TID 0000.0001) %MON ke_vol                       =   1.3226782436723E+18
(PID.TID 0000.0001) %MON vort_r_min                   =  -3.3396140081937E-07
(PID.TID 0000.0001) %MON vort_r_max                   =   6.2011489039847E-07
(PID.TID 0000.0001) %MON vort_a_mean                  =  -2.5205769772109E-05
(PID.TID 0000.0001) %MON vort_a_sd                    =   7.3401404730880E-05
(PID.TID 0000.0001) %MON vort_p_mean                  =  -3.1758670034586E-05
(PID.TID 0000.0001) %MON vort_p_sd                    =   1.3126037576623E-04
(PID.TID 0000.0001) %MON surfExpan_theta_mean         =   1.2914089900767E-04
(PID.TID 0000.0001) %MON surfExpan_salt_mean          =   8.8101131464584E-06
(PID.TID 0000.0001) // =======================================================
(PID.TID 0000.0001) // End MONITOR dynamic field statistics
(PID.TID 0000.0001) // =======================================================
time,SST,SSS,fu,fv,Q,E-P,i0,i1,a,b =   5.6160E+05  4.4544E-01  3.4516E+01 -3.8391E-02 -6.0938E-02  2.6539E+02  0.0000E+00    12     1  7.1667E-01  2.8333E-01
time,fu0,fu1,fu =   5.6160E+05 -4.5368E-02 -3.5633E-02 -3.8391E-02  7.1667E-01  2.8333E-01
 cg2d: Sum(rhs),rhsMax =  -8.19968143947816E-13  9.25242560661491E+00
(PID.TID 0000.0001)                    cg2d_init_res =    9.64910076656277E-01
(PID.TID 0000.0001)                       cg2d_iters =    25
(PID.TID 0000.0001)                         cg2d_res =    6.15058006168134E-14
(PID.TID 0000.0001) // =======================================================
(PID.TID 0000.0001) // Begin MONITOR dynamic field statistics
(PID.TID 0000.0001) // =======================================================
(PID.TID 0000.0001) %MON time_tsnumber                =                    14
(PID.TID 0000.0001) %MON time_secondsf                =   6.0480000000000E+05
(PID.TID 0000.0001) %MON dynstat_eta_max              =   1.1180784539858E+00
(PID.TID 0000.0001) %MON dynstat_eta_min              =  -1.1574467879211E+00
(PID.TID 0000.0001) %MON dynstat_eta_mean             =   4.4499504682710E-16
(PID.TID 0000.0001) %MON dynstat_eta_sd               =   3.4915774412563E-01
(PID.TID 0000.0001) %MON dynstat_eta_del2             =   2.2212638447977E-02
(PID.TID 0000.0001) %MON dynstat_uvel_max             =   1.4012224563520E-01
(PID.TID 0000.0001) %MON dynstat_uvel_min             =  -1.2966464651501E-01
(PID.TID 0000.0001) %MON dynstat_uvel_mean            =  -1.0171957780930E-02
(PID.TID 0000.0001) %MON dynstat_uvel_sd              =   1.5807963783809E-02
(PID.TID 0000.0001) %MON dynstat_uvel_del2            =   3.4392653778454E-03
(PID.TID 0000.0001) %MON dynstat_vvel_max             =   1.2328974428191E-01
(PID.TID 0000.0001) %MON dynstat_vvel_min             =  -1.0498830022401E-01
(PID.TID 0000.0001) %MON dynstat_vvel_mean            =   4.1723678160274E-03
(PID.TID 0000.0001) %MON dynstat_vvel_sd              =   1.4712022405997E-02
(PID.TID 0000.0001) %MON dynstat_vvel_del2            =   3.4855155128735E-03
(PID.TID 0000.0001) %MON dynstat_wvel_max             =   2.5647646662029E-04
(PID.TID 0000.0001) %MON dynstat_wvel_min             =  -3.6854069463160E-04
(PID.TID 0000.0001) %MON dynstat_wvel_mean            =   1.1666445276992E-22
(PID.TID 0000.0001) %MON dynstat_wvel_sd              =   3.4546000772128E-05
(PID.TID 0000.0001) %MON dynstat_wvel_del2            =   1.1825895473365E-05
(PID.TID 0000.0001) %MON dynstat_theta_max            =   2.9557845524893E+01
(PID.TID 0000.0001) %MON dynstat_theta_min            =  -2.1560131353135E+00
(PID.TID 0000.0001) %MON dynstat_theta_mean           =   3.5991932321882E+00
(PID.TID 0000.0001) %MON dynstat_theta_sd             =   4.3697796004870E+00
(PID.TID 0000.0001) %MON dynstat_theta_del2           =   1.4160984134018E-01
(PID.TID 0000.0001) %MON dynstat_salt_max             =   3.7430055194306E+01
(PID.TID 0000.0001) %MON dynstat_salt_min             =   2.9787362383890E+01
(PID.TID 0000.0001) %MON dynstat_salt_mean            =   3.4716365506736E+01
(PID.TID 0000.0001) %MON dynstat_salt_sd              =   2.9606307914114E-01
(PID.TID 0000.0001) %MON dynstat_salt_del2            =   2.6046455403043E-02
(PID.TID 0000.0001) %MON advcfl_uvel_max              =   2.6817768188165E-02
(PID.TID 0000.0001) %MON advcfl_vvel_max              =   1.1976609992101E-02
(PID.TID 0000.0001) %MON advcfl_wvel_max              =   1.8734480118694E-01
(PID.TID 0000.0001) %MON advcfl_W_hf_max              =   1.6540444144087E-01
(PID.TID 0000.0001) %MON pe_b_mean                    =   1.5599998549061E-04
(PID.TID 0000.0001) %MON ke_max                       =   1.0427230770056E-02
(PID.TID 0000.0001) %MON ke_mean                      =   2.6552352701939E-04
(PID.TID 0000.0001) %MON ke_vol                       =   1.3226782436723E+18
(PID.TID 0000.0001) %MON vort_r_min                   =  -3.4630581384054E-07
(PID.TID 0000.0001) %MON vort_r_max                   =   6.1828152234033E-07
(PID.TID 0000.0001) %MON vort_a_mean                  =  -2.5205769776134E-05
(PID.TID 0000.0001) %MON vort_a_sd                    =   7.3401327975797E-05
(PID.TID 0000.0001) %MON vort_p_mean                  =  -3.1758670039658E-05
(PID.TID 0000.0001) %MON vort_p_sd                    =   1.3126004621132E-04
(PID.TID 0000.0001) %MON surfExpan_theta_mean         =   1.1560144033592E-04
(PID.TID 0000.0001) %MON surfExpan_salt_mean          =   7.4141316898392E-06
(PID.TID 0000.0001) // =======================================================
(PID.TID 0000.0001) // End MONITOR dynamic field statistics
(PID.TID 0000.0001) // =======================================================
time,SST,SSS,fu,fv,Q,E-P,i0,i1,a,b =   6.0480E+05  4.7561E-01  3.4527E+01 -3.8229E-02 -6.0721E-02  2.6541E+02  0.0000E+00    12     1  7.3333E-01  2.6667E-01
time,fu0,fu1,fu =   6.0480E+05 -4.5368E-02 -3.5633E-02 -3.8229E-02  7.3333E-01  2.6667E-01
 cg2d: Sum(rhs),rhsMax =  -8.14095427355277E-13  9.75443172655625E+00
(PID.TID 0000.0001)                    cg2d_init_res =    8.90302895897751E-01
(PID.TID 0000.0001)                       cg2d_iters =    25
(PID.TID 0000.0001)                         cg2d_res =    5.29378254234397E-14
(PID.TID 0000.0001) // =======================================================
(PID.TID 0000.0001) // Begin MONITOR dynamic field statistics
(PID.TID 0000.0001) // =======================================================
(PID.TID 0000.0001) %MON time_tsnumber                =                    15
(PID.TID 0000.0001) %MON time_secondsf                =   6.4800000000000E+05
(PID.TID 0000.0001) %MON dynstat_eta_max              =   1.1768563789672E+00
(PID.TID 0000.0001) %MON dynstat_eta_min              =  -1.1926731419214E+00
(PID.TID 0000.0001) %MON dynstat_eta_mean             =   4.4959278113427E-16
(PID.TID 0000.0001) %MON dynstat_eta_sd               =   3.6011152014462E-01
(PID.TID 0000.0001) %MON dynstat_eta_del2             =   2.1638388339409E-02
(PID.TID 0000.0001) %MON dynstat_uvel_max             =   1.4990682784792E-01
(PID.TID 0000.0001) %MON dynstat_uvel_min             =  -1.3081803063986E-01
(PID.TID 0000.0001) %MON dynstat_uvel_mean            =  -1.0385383411277E-02
(PID.TID 0000.0001) %MON dynstat_uvel_sd              =   1.6540029956935E-02
(PID.TID 0000.0001) %MON dynstat_uvel_del2            =   3.5125757588630E-03
(PID.TID 0000.0001) %MON dynstat_vvel_max             =   1.3650258568557E-01
(PID.TID 0000.0001) %MON dynstat_vvel_min             =  -1.0648105929351E-01
(PID.TID 0000.0001) %MON dynstat_vvel_mean            =   3.8045397125293E-03
(PID.TID 0000.0001) %MON dynstat_vvel_sd              =   1.4409678434064E-02
(PID.TID 0000.0001) %MON dynstat_vvel_del2            =   3.4858059111808E-03
(PID.TID 0000.0001) %MON dynstat_wvel_max             =   2.5395936531549E-04
(PID.TID 0000.0001) %MON dynstat_wvel_min             =  -3.6421324964942E-04
(PID.TID 0000.0001) %MON dynstat_wvel_mean            =   8.8128298020554E-22
(PID.TID 0000.0001) %MON dynstat_wvel_sd              =   3.3445710123967E-05
(PID.TID 0000.0001) %MON dynstat_wvel_del2            =   1.1345515576154E-05
(PID.TID 0000.0001) %MON dynstat_theta_max            =   2.9547494857568E+01
(PID.TID 0000.0001) %MON dynstat_theta_min            =  -2.1514815797185E+00
(PID.TID 0000.0001) %MON dynstat_theta_mean           =   3.5980207390897E+00
(PID.TID 0000.0001) %MON dynstat_theta_sd             =   4.3661517040491E+00
(PID.TID 0000.0001) %MON dynstat_theta_del2           =   1.4121239854909E-01
(PID.TID 0000.0001) %MON dynstat_salt_max             =   3.7428378067866E+01
(PID.TID 0000.0001) %MON dynstat_salt_min             =   2.9787755613718E+01
(PID.TID 0000.0001) %MON dynstat_salt_mean            =   3.4716291417534E+01
(PID.TID 0000.0001) %MON dynstat_salt_sd              =   2.9602758358768E-01
(PID.TID 0000.0001) %MON dynstat_salt_del2            =   2.6036294941969E-02
(PID.TID 0000.0001) %MON advcfl_uvel_max              =   2.7840754039357E-02
(PID.TID 0000.0001) %MON advcfl_vvel_max              =   1.3260131580217E-02
(PID.TID 0000.0001) %MON advcfl_wvel_max              =   1.5764325998023E-01
(PID.TID 0000.0001) %MON advcfl_W_hf_max              =   1.3990404873713E-01
(PID.TID 0000.0001) %MON pe_b_mean                    =   1.6594158346535E-04
(PID.TID 0000.0001) %MON ke_max                       =   1.1414842674110E-02
(PID.TID 0000.0001) %MON ke_mean                      =   2.7300528901218E-04
(PID.TID 0000.0001) %MON ke_vol                       =   1.3226782436723E+18
(PID.TID 0000.0001) %MON vort_r_min                   =  -3.7032604295803E-07
(PID.TID 0000.0001) %MON vort_r_max                   =   5.9965807775472E-07
(PID.TID 0000.0001) %MON vort_a_mean                  =  -2.5205769754508E-05
(PID.TID 0000.0001) %MON vort_a_sd                    =   7.3401278026280E-05
(PID.TID 0000.0001) %MON vort_p_mean                  =  -3.1758670012409E-05
(PID.TID 0000.0001) %MON vort_p_sd                    =   1.3125982734047E-04
(PID.TID 0000.0001) %MON surfExpan_theta_mean         =   1.0138570355510E-04
(PID.TID 0000.0001) %MON surfExpan_salt_mean          =   6.0012011970320E-06
(PID.TID 0000.0001) // =======================================================
(PID.TID 0000.0001) // End MONITOR dynamic field statistics
(PID.TID 0000.0001) // =======================================================
time,SST,SSS,fu,fv,Q,E-P,i0,i1,a,b =   6.4800E+05  5.0579E-01  3.4539E+01 -3.8067E-02 -6.0505E-02  2.6543E+02  0.0000E+00    12     1  7.5000E-01  2.5000E-01
time,fu0,fu1,fu =   6.4800E+05 -4.5368E-02 -3.5633E-02 -3.8067E-02  7.5000E-01  2.5000E-01
 cg2d: Sum(rhs),rhsMax =  -7.78272953895487E-13  1.00476116041399E+01
(PID.TID 0000.0001)                    cg2d_init_res =    8.45054927223762E-01
(PID.TID 0000.0001)                       cg2d_iters =    25
(PID.TID 0000.0001)                         cg2d_res =    4.55979774729627E-14
(PID.TID 0000.0001) // =======================================================
(PID.TID 0000.0001) // Begin MONITOR dynamic field statistics
(PID.TID 0000.0001) // =======================================================
(PID.TID 0000.0001) %MON time_tsnumber                =                    16
(PID.TID 0000.0001) %MON time_secondsf                =   6.9120000000000E+05
(PID.TID 0000.0001) %MON dynstat_eta_max              =   1.2111720364775E+00
(PID.TID 0000.0001) %MON dynstat_eta_min              =  -1.1859133343952E+00
(PID.TID 0000.0001) %MON dynstat_eta_mean             =   4.4987245767367E-16
(PID.TID 0000.0001) %MON dynstat_eta_sd               =   3.6865204710237E-01
(PID.TID 0000.0001) %MON dynstat_eta_del2             =   2.1158169467943E-02
(PID.TID 0000.0001) %MON dynstat_uvel_max             =   1.5880812625704E-01
(PID.TID 0000.0001) %MON dynstat_uvel_min             =  -1.3182527419421E-01
(PID.TID 0000.0001) %MON dynstat_uvel_mean            =  -1.0451330563151E-02
(PID.TID 0000.0001) %MON dynstat_uvel_sd              =   1.7153825342922E-02
(PID.TID 0000.0001) %MON dynstat_uvel_del2            =   3.5709614393357E-03
(PID.TID 0000.0001) %MON dynstat_vvel_max             =   1.4663802623945E-01
(PID.TID 0000.0001) %MON dynstat_vvel_min             =  -1.0858628874546E-01
(PID.TID 0000.0001) %MON dynstat_vvel_mean            =   3.4308759448832E-03
(PID.TID 0000.0001) %MON dynstat_vvel_sd              =   1.4142460987993E-02
(PID.TID 0000.0001) %MON dynstat_vvel_del2            =   3.4717847854646E-03
(PID.TID 0000.0001) %MON dynstat_wvel_max             =   2.6154743910454E-04
(PID.TID 0000.0001) %MON dynstat_wvel_min             =  -3.5648242844030E-04
(PID.TID 0000.0001) %MON dynstat_wvel_mean            =   1.7037809229935E-22
(PID.TID 0000.0001) %MON dynstat_wvel_sd              =   3.2257678249958E-05
(PID.TID 0000.0001) %MON dynstat_wvel_del2            =   1.0809463166264E-05
(PID.TID 0000.0001) %MON dynstat_theta_max            =   2.9524566628175E+01
(PID.TID 0000.0001) %MON dynstat_theta_min            =  -2.1398164736214E+00
(PID.TID 0000.0001) %MON dynstat_theta_mean           =   3.5970133642934E+00
(PID.TID 0000.0001) %MON dynstat_theta_sd             =   4.3627866151732E+00
(PID.TID 0000.0001) %MON dynstat_theta_del2           =   1.4085824757253E-01
(PID.TID 0000.0001) %MON dynstat_salt_max             =   3.7426758091895E+01
(PID.TID 0000.0001) %MON dynstat_salt_min             =   2.9787836872580E+01
(PID.TID 0000.0001) %MON dynstat_salt_mean            =   3.4716233352267E+01
(PID.TID 0000.0001) %MON dynstat_salt_sd              =   2.9599056751856E-01
(PID.TID 0000.0001) %MON dynstat_salt_del2            =   2.6030519228287E-02
(PID.TID 0000.0001) %MON advcfl_uvel_max              =   2.7280319083786E-02
(PID.TID 0000.0001) %MON advcfl_vvel_max              =   1.4244708353566E-02
(PID.TID 0000.0001) %MON advcfl_wvel_max              =   1.6533566714696E-01
(PID.TID 0000.0001) %MON advcfl_W_hf_max              =   1.3743392095470E-01
(PID.TID 0000.0001) %MON pe_b_mean                    =   1.7390597351387E-04
(PID.TID 0000.0001) %MON ke_max                       =   1.2324307314739E-02
(PID.TID 0000.0001) %MON ke_mean                      =   2.7838627945069E-04
(PID.TID 0000.0001) %MON ke_vol                       =   1.3226782436723E+18
(PID.TID 0000.0001) %MON vort_r_min                   =  -3.9090717365100E-07
(PID.TID 0000.0001) %MON vort_r_max                   =   5.6526356626711E-07
(PID.TID 0000.0001) %MON vort_a_mean                  =  -2.5205769712112E-05
(PID.TID 0000.0001) %MON vort_a_sd                    =   7.3401255060132E-05
(PID.TID 0000.0001) %MON vort_p_mean                  =  -3.1758669958991E-05
(PID.TID 0000.0001) %MON vort_p_sd                    =   1.3125972269925E-04
(PID.TID 0000.0001) %MON surfExpan_theta_mean         =   8.6880937638966E-05
(PID.TID 0000.0001) %MON surfExpan_salt_mean          =   4.6081292497942E-06
(PID.TID 0000.0001) // =======================================================
(PID.TID 0000.0001) // End MONITOR dynamic field statistics
(PID.TID 0000.0001) // =======================================================
time,SST,SSS,fu,fv,Q,E-P,i0,i1,a,b =   6.9120E+05  5.3596E-01  3.4551E+01 -3.7904E-02 -6.0288E-02  2.6546E+02  0.0000E+00    12     1  7.6667E-01  2.3333E-01
time,fu0,fu1,fu =   6.9120E+05 -4.5368E-02 -3.5633E-02 -3.7904E-02  7.6667E-01  2.3333E-01
 cg2d: Sum(rhs),rhsMax =  -7.21974021365701E-13  1.01286626707933E+01
(PID.TID 0000.0001)                    cg2d_init_res =    8.22913535845588E-01
(PID.TID 0000.0001)                       cg2d_iters =    24
(PID.TID 0000.0001)                         cg2d_res =    6.85711990890252E-14
(PID.TID 0000.0001) // =======================================================
(PID.TID 0000.0001) // Begin MONITOR dynamic field statistics
(PID.TID 0000.0001) // =======================================================
(PID.TID 0000.0001) %MON time_tsnumber                =                    17
(PID.TID 0000.0001) %MON time_secondsf                =   7.3440000000000E+05
(PID.TID 0000.0001) %MON dynstat_eta_max              =   1.2207666273521E+00
(PID.TID 0000.0001) %MON dynstat_eta_min              =  -1.1612912472801E+00
(PID.TID 0000.0001) %MON dynstat_eta_mean             =   3.6929327463061E-16
(PID.TID 0000.0001) %MON dynstat_eta_sd               =   3.7494255536908E-01
(PID.TID 0000.0001) %MON dynstat_eta_del2             =   2.0713308971734E-02
(PID.TID 0000.0001) %MON dynstat_uvel_max             =   1.6666196327182E-01
(PID.TID 0000.0001) %MON dynstat_uvel_min             =  -1.2973961008625E-01
(PID.TID 0000.0001) %MON dynstat_uvel_mean            =  -1.0376195895117E-02
(PID.TID 0000.0001) %MON dynstat_uvel_sd              =   1.7654247069415E-02
(PID.TID 0000.0001) %MON dynstat_uvel_del2            =   3.6170862487199E-03
(PID.TID 0000.0001) %MON dynstat_vvel_max             =   1.5289774506441E-01
(PID.TID 0000.0001) %MON dynstat_vvel_min             =  -1.0897810866452E-01
(PID.TID 0000.0001) %MON dynstat_vvel_mean            =   3.0723928455528E-03
(PID.TID 0000.0001) %MON dynstat_vvel_sd              =   1.3929885500062E-02
(PID.TID 0000.0001) %MON dynstat_vvel_del2            =   3.4510464304977E-03
(PID.TID 0000.0001) %MON dynstat_wvel_max             =   2.6686462855345E-04
(PID.TID 0000.0001) %MON dynstat_wvel_min             =  -3.4578271699213E-04
(PID.TID 0000.0001) %MON dynstat_wvel_mean            =  -1.3220045101455E-21
(PID.TID 0000.0001) %MON dynstat_wvel_sd              =   3.1050554202680E-05
(PID.TID 0000.0001) %MON dynstat_wvel_del2            =   1.0258560140153E-05
(PID.TID 0000.0001) %MON dynstat_theta_max            =   2.9488906821703E+01
(PID.TID 0000.0001) %MON dynstat_theta_min            =  -2.1219425950574E+00
(PID.TID 0000.0001) %MON dynstat_theta_mean           =   3.5961717063526E+00
(PID.TID 0000.0001) %MON dynstat_theta_sd             =   4.3597196529905E+00
(PID.TID 0000.0001) %MON dynstat_theta_del2           =   1.4055881069728E-01
(PID.TID 0000.0001) %MON dynstat_salt_max             =   3.7425203102326E+01
(PID.TID 0000.0001) %MON dynstat_salt_min             =   2.9787687884693E+01
(PID.TID 0000.0001) %MON dynstat_salt_mean            =   3.4716190831596E+01
(PID.TID 0000.0001) %MON dynstat_salt_sd              =   2.9595392542716E-01
(PID.TID 0000.0001) %MON dynstat_salt_del2            =   2.6029679443017E-02
(PID.TID 0000.0001) %MON advcfl_uvel_max              =   2.5035906432641E-02
(PID.TID 0000.0001) %MON advcfl_vvel_max              =   1.4852789840500E-02
(PID.TID 0000.0001) %MON advcfl_wvel_max              =   1.7353372404777E-01
(PID.TID 0000.0001) %MON advcfl_W_hf_max              =   1.4544816664316E-01
(PID.TID 0000.0001) %MON pe_b_mean                    =   1.7989151115502E-04
(PID.TID 0000.0001) %MON ke_max                       =   1.3144059673692E-02
(PID.TID 0000.0001) %MON ke_mean                      =   2.8186322449247E-04
(PID.TID 0000.0001) %MON ke_vol                       =   1.3226782436723E+18
(PID.TID 0000.0001) %MON vort_r_min                   =  -4.1887317788198E-07
(PID.TID 0000.0001) %MON vort_r_max                   =   5.1674836661638E-07
(PID.TID 0000.0001) %MON vort_a_mean                  =  -2.5205769655807E-05
(PID.TID 0000.0001) %MON vort_a_sd                    =   7.3401258305582E-05
(PID.TID 0000.0001) %MON vort_p_mean                  =  -3.1758669888048E-05
(PID.TID 0000.0001) %MON vort_p_sd                    =   1.3125972846251E-04
(PID.TID 0000.0001) %MON surfExpan_theta_mean         =   7.2433497690304E-05
(PID.TID 0000.0001) %MON surfExpan_salt_mean          =   3.2620067043380E-06
(PID.TID 0000.0001) // =======================================================
(PID.TID 0000.0001) // End MONITOR dynamic field statistics
(PID.TID 0000.0001) // =======================================================
time,SST,SSS,fu,fv,Q,E-P,i0,i1,a,b =   7.3440E+05  5.6614E-01  3.4563E+01 -3.7742E-02 -6.0072E-02  2.6548E+02  0.0000E+00    12     1  7.8333E-01  2.1667E-01
time,fu0,fu1,fu =   7.3440E+05 -4.5368E-02 -3.5633E-02 -3.7742E-02  7.8333E-01  2.1667E-01
 cg2d: Sum(rhs),rhsMax =  -6.25012858850894E-13  1.00070277933160E+01
(PID.TID 0000.0001)                    cg2d_init_res =    8.19458267679532E-01
(PID.TID 0000.0001)                       cg2d_iters =    25
(PID.TID 0000.0001)                         cg2d_res =    3.14840429716842E-14
(PID.TID 0000.0001) // =======================================================
(PID.TID 0000.0001) // Begin MONITOR dynamic field statistics
(PID.TID 0000.0001) // =======================================================
(PID.TID 0000.0001) %MON time_tsnumber                =                    18
(PID.TID 0000.0001) %MON time_secondsf                =   7.7760000000000E+05
(PID.TID 0000.0001) %MON dynstat_eta_max              =   1.2068574123022E+00
(PID.TID 0000.0001) %MON dynstat_eta_min              =  -1.1696345965189E+00
(PID.TID 0000.0001) %MON dynstat_eta_mean             =   5.4929231859061E-16
(PID.TID 0000.0001) %MON dynstat_eta_sd               =   3.7919997181279E-01
(PID.TID 0000.0001) %MON dynstat_eta_del2             =   2.0336775994260E-02
(PID.TID 0000.0001) %MON dynstat_uvel_max             =   1.7332383851864E-01
(PID.TID 0000.0001) %MON dynstat_uvel_min             =  -1.3304687327859E-01
(PID.TID 0000.0001) %MON dynstat_uvel_mean            =  -1.0170829392576E-02
(PID.TID 0000.0001) %MON dynstat_uvel_sd              =   1.8048748595167E-02
(PID.TID 0000.0001) %MON dynstat_uvel_del2            =   3.6518974587160E-03
(PID.TID 0000.0001) %MON dynstat_vvel_max             =   1.5465692991097E-01
(PID.TID 0000.0001) %MON dynstat_vvel_min             =  -1.1944647024577E-01
(PID.TID 0000.0001) %MON dynstat_vvel_mean            =   2.7473353290803E-03
(PID.TID 0000.0001) %MON dynstat_vvel_sd              =   1.3779688451294E-02
(PID.TID 0000.0001) %MON dynstat_vvel_del2            =   3.4293905395859E-03
(PID.TID 0000.0001) %MON dynstat_wvel_max             =   2.6991144735108E-04
(PID.TID 0000.0001) %MON dynstat_wvel_min             =  -3.3147225247297E-04
(PID.TID 0000.0001) %MON dynstat_wvel_mean            =   3.4876393700329E-22
(PID.TID 0000.0001) %MON dynstat_wvel_sd              =   2.9887514878676E-05
(PID.TID 0000.0001) %MON dynstat_wvel_del2            =   9.7183609447261E-06
(PID.TID 0000.0001) %MON dynstat_theta_max            =   2.9451293361633E+01
(PID.TID 0000.0001) %MON dynstat_theta_min            =  -2.0992317197970E+00
(PID.TID 0000.0001) %MON dynstat_theta_mean           =   3.5954927822385E+00
(PID.TID 0000.0001) %MON dynstat_theta_sd             =   4.3569812970250E+00
(PID.TID 0000.0001) %MON dynstat_theta_del2           =   1.4030979590861E-01
(PID.TID 0000.0001) %MON dynstat_salt_max             =   3.7423719023816E+01
(PID.TID 0000.0001) %MON dynstat_salt_min             =   2.9787400011895E+01
(PID.TID 0000.0001) %MON dynstat_salt_mean            =   3.4716163142904E+01
(PID.TID 0000.0001) %MON dynstat_salt_sd              =   2.9591878829229E-01
(PID.TID 0000.0001) %MON dynstat_salt_del2            =   2.6034279393525E-02
(PID.TID 0000.0001) %MON advcfl_uvel_max              =   2.4237843720039E-02
(PID.TID 0000.0001) %MON advcfl_vvel_max              =   1.5023680541377E-02
(PID.TID 0000.0001) %MON advcfl_wvel_max              =   1.7648280786164E-01
(PID.TID 0000.0001) %MON advcfl_W_hf_max              =   1.4756237777372E-01
(PID.TID 0000.0001) %MON pe_b_mean                    =   1.8399998725928E-04
(PID.TID 0000.0001) %MON ke_max                       =   1.3869357543800E-02
(PID.TID 0000.0001) %MON ke_mean                      =   2.8362739561107E-04
(PID.TID 0000.0001) %MON ke_vol                       =   1.3226782436723E+18
(PID.TID 0000.0001) %MON vort_r_min                   =  -4.5079872181365E-07
(PID.TID 0000.0001) %MON vort_r_max                   =   4.5629351360843E-07
(PID.TID 0000.0001) %MON vort_a_mean                  =  -2.5205769593229E-05
(PID.TID 0000.0001) %MON vort_a_sd                    =   7.3401286178314E-05
(PID.TID 0000.0001) %MON vort_p_mean                  =  -3.1758669809201E-05
(PID.TID 0000.0001) %MON vort_p_sd                    =   1.3125983465551E-04
(PID.TID 0000.0001) %MON surfExpan_theta_mean         =   5.8375783874606E-05
(PID.TID 0000.0001) %MON surfExpan_salt_mean          =   1.9889272159022E-06
(PID.TID 0000.0001) // =======================================================
(PID.TID 0000.0001) // End MONITOR dynamic field statistics
(PID.TID 0000.0001) // =======================================================
time,SST,SSS,fu,fv,Q,E-P,i0,i1,a,b =   7.7760E+05  5.9632E-01  3.4574E+01 -3.7580E-02 -5.9855E-02  2.6550E+02  0.0000E+00    12     1  8.0000E-01  2.0000E-01
time,fu0,fu1,fu =   7.7760E+05 -4.5368E-02 -3.5633E-02 -3.7580E-02  8.0000E-01  2.0000E-01
 cg2d: Sum(rhs),rhsMax =  -7.15775258074841E-13  9.70454050868651E+00
(PID.TID 0000.0001)                    cg2d_init_res =    8.31617553485813E-01
(PID.TID 0000.0001)                       cg2d_iters =    25
(PID.TID 0000.0001)                         cg2d_res =    3.02220211688063E-14
(PID.TID 0000.0001) // =======================================================
(PID.TID 0000.0001) // Begin MONITOR dynamic field statistics
(PID.TID 0000.0001) // =======================================================
(PID.TID 0000.0001) %MON time_tsnumber                =                    19
(PID.TID 0000.0001) %MON time_secondsf                =   8.2080000000000E+05
(PID.TID 0000.0001) %MON dynstat_eta_max              =   1.1720388631893E+00
(PID.TID 0000.0001) %MON dynstat_eta_min              =  -1.1424165235915E+00
(PID.TID 0000.0001) %MON dynstat_eta_mean             =   3.8241704997002E-16
(PID.TID 0000.0001) %MON dynstat_eta_sd               =   3.8167704036466E-01
(PID.TID 0000.0001) %MON dynstat_eta_del2             =   2.0065941214851E-02
(PID.TID 0000.0001) %MON dynstat_uvel_max             =   1.7867374576084E-01
(PID.TID 0000.0001) %MON dynstat_uvel_min             =  -1.3883446445382E-01
(PID.TID 0000.0001) %MON dynstat_uvel_mean            =  -9.8495164605622E-03
(PID.TID 0000.0001) %MON dynstat_uvel_sd              =   1.8346152509433E-02
(PID.TID 0000.0001) %MON dynstat_uvel_del2            =   3.6770565258994E-03
(PID.TID 0000.0001) %MON dynstat_vvel_max             =   1.5151211340509E-01
(PID.TID 0000.0001) %MON dynstat_vvel_min             =  -1.3310019805561E-01
(PID.TID 0000.0001) %MON dynstat_vvel_mean            =   2.4704285708003E-03
(PID.TID 0000.0001) %MON dynstat_vvel_sd              =   1.3689815721702E-02
(PID.TID 0000.0001) %MON dynstat_vvel_del2            =   3.4085844826373E-03
(PID.TID 0000.0001) %MON dynstat_wvel_max             =   2.7083369053543E-04
(PID.TID 0000.0001) %MON dynstat_wvel_min             =  -3.1415513754401E-04
(PID.TID 0000.0001) %MON dynstat_wvel_mean            =  -2.6921120426504E-22
(PID.TID 0000.0001) %MON dynstat_wvel_sd              =   2.8824061251774E-05
(PID.TID 0000.0001) %MON dynstat_wvel_del2            =   9.2658487093211E-06
(PID.TID 0000.0001) %MON dynstat_theta_max            =   2.9442189971159E+01
(PID.TID 0000.0001) %MON dynstat_theta_min            =  -2.0816791835352E+00
(PID.TID 0000.0001) %MON dynstat_theta_mean           =   3.5949699217876E+00
(PID.TID 0000.0001) %MON dynstat_theta_sd             =   4.3545954109877E+00
(PID.TID 0000.0001) %MON dynstat_theta_del2           =   1.4009019227484E-01
(PID.TID 0000.0001) %MON dynstat_salt_max             =   3.7422302785083E+01
(PID.TID 0000.0001) %MON dynstat_salt_min             =   2.9787069188783E+01
(PID.TID 0000.0001) %MON dynstat_salt_mean            =   3.4716149283171E+01
(PID.TID 0000.0001) %MON dynstat_salt_sd              =   2.9588614924628E-01
(PID.TID 0000.0001) %MON dynstat_salt_del2            =   2.6042362587097E-02
(PID.TID 0000.0001) %MON advcfl_uvel_max              =   2.4985982099395E-02
(PID.TID 0000.0001) %MON advcfl_vvel_max              =   1.4718186836228E-02
(PID.TID 0000.0001) %MON advcfl_wvel_max              =   1.7355403829043E-01
(PID.TID 0000.0001) %MON advcfl_W_hf_max              =   1.5173689475230E-01
(PID.TID 0000.0001) %MON pe_b_mean                    =   1.8641174504455E-04
(PID.TID 0000.0001) %MON ke_max                       =   1.4505204519925E-02
(PID.TID 0000.0001) %MON ke_mean                      =   2.8386539602129E-04
(PID.TID 0000.0001) %MON ke_vol                       =   1.3226782436723E+18
(PID.TID 0000.0001) %MON vort_r_min                   =  -4.7102756490418E-07
(PID.TID 0000.0001) %MON vort_r_max                   =   4.0336767658512E-07
(PID.TID 0000.0001) %MON vort_a_mean                  =  -2.5205769531694E-05
(PID.TID 0000.0001) %MON vort_a_sd                    =   7.3401336450029E-05
(PID.TID 0000.0001) %MON vort_p_mean                  =  -3.1758669731669E-05
(PID.TID 0000.0001) %MON vort_p_sd                    =   1.3126002688334E-04
(PID.TID 0000.0001) %MON surfExpan_theta_mean         =   4.5012035811006E-05
(PID.TID 0000.0001) %MON surfExpan_salt_mean          =   8.1097991187246E-07
(PID.TID 0000.0001) // =======================================================
(PID.TID 0000.0001) // End MONITOR dynamic field statistics
(PID.TID 0000.0001) // =======================================================
time,SST,SSS,fu,fv,Q,E-P,i0,i1,a,b =   8.2080E+05  6.2649E-01  3.4586E+01 -3.7418E-02 -5.9638E-02  2.6552E+02  0.0000E+00    12     1  8.1667E-01  1.8333E-01
time,fu0,fu1,fu =   8.2080E+05 -4.5368E-02 -3.5633E-02 -3.7418E-02  8.1667E-01  1.8333E-01
 cg2d: Sum(rhs),rhsMax =  -7.66923633974126E-13  9.47668342393643E+00
(PID.TID 0000.0001)                    cg2d_init_res =    8.36968401066362E-01
(PID.TID 0000.0001)                       cg2d_iters =    25
(PID.TID 0000.0001)                         cg2d_res =    3.44308970427003E-14
(PID.TID 0000.0001) // =======================================================
(PID.TID 0000.0001) // Begin MONITOR dynamic field statistics
(PID.TID 0000.0001) // =======================================================
(PID.TID 0000.0001) %MON time_tsnumber                =                    20
(PID.TID 0000.0001) %MON time_secondsf                =   8.6400000000000E+05
(PID.TID 0000.0001) %MON dynstat_eta_max              =   1.1373020720364E+00
(PID.TID 0000.0001) %MON dynstat_eta_min              =  -1.0844111088634E+00
(PID.TID 0000.0001) %MON dynstat_eta_mean             =   6.0939196444403E-16
(PID.TID 0000.0001) %MON dynstat_eta_sd               =   3.8264460526437E-01
(PID.TID 0000.0001) %MON dynstat_eta_del2             =   1.9984868809840E-02
(PID.TID 0000.0001) %MON dynstat_uvel_max             =   1.8261904237218E-01
(PID.TID 0000.0001) %MON dynstat_uvel_min             =  -1.4414704110456E-01
(PID.TID 0000.0001) %MON dynstat_uvel_mean            =  -9.4289434525386E-03
(PID.TID 0000.0001) %MON dynstat_uvel_sd              =   1.8555476160405E-02
(PID.TID 0000.0001) %MON dynstat_uvel_del2            =   3.6925645918058E-03
(PID.TID 0000.0001) %MON dynstat_vvel_max             =   1.4331407399657E-01
(PID.TID 0000.0001) %MON dynstat_vvel_min             =  -1.4410922639046E-01
(PID.TID 0000.0001) %MON dynstat_vvel_mean            =   2.2524806549635E-03
(PID.TID 0000.0001) %MON dynstat_vvel_sd              =   1.3651864345818E-02
(PID.TID 0000.0001) %MON dynstat_vvel_del2            =   3.3928104273972E-03
(PID.TID 0000.0001) %MON dynstat_wvel_max             =   2.6988487138127E-04
(PID.TID 0000.0001) %MON dynstat_wvel_min             =  -2.9427084959655E-04
(PID.TID 0000.0001) %MON dynstat_wvel_mean            =   5.2258795197618E-22
(PID.TID 0000.0001) %MON dynstat_wvel_sd              =   2.7903807795126E-05
(PID.TID 0000.0001) %MON dynstat_wvel_del2            =   8.9355231918847E-06
(PID.TID 0000.0001) %MON dynstat_theta_max            =   2.9430073690196E+01
(PID.TID 0000.0001) %MON dynstat_theta_min            =  -2.0788975965421E+00
(PID.TID 0000.0001) %MON dynstat_theta_mean           =   3.5945932197253E+00
(PID.TID 0000.0001) %MON dynstat_theta_sd             =   4.3525781963057E+00
(PID.TID 0000.0001) %MON dynstat_theta_del2           =   1.3989943387822E-01
(PID.TID 0000.0001) %MON dynstat_salt_max             =   3.7420944186400E+01
(PID.TID 0000.0001) %MON dynstat_salt_min             =   2.9786790937370E+01
(PID.TID 0000.0001) %MON dynstat_salt_mean            =   3.4716148028820E+01
(PID.TID 0000.0001) %MON dynstat_salt_sd              =   2.9585661158152E-01
(PID.TID 0000.0001) %MON dynstat_salt_del2            =   2.6052313238885E-02
(PID.TID 0000.0001) %MON advcfl_uvel_max              =   2.5537697798240E-02
(PID.TID 0000.0001) %MON advcfl_vvel_max              =   1.3999055726772E-02
(PID.TID 0000.0001) %MON advcfl_wvel_max              =   1.6440741542070E-01
(PID.TID 0000.0001) %MON advcfl_W_hf_max              =   1.4609420290636E-01
(PID.TID 0000.0001) %MON pe_b_mean                    =   1.8735806383629E-04
(PID.TID 0000.0001) %MON ke_max                       =   1.5268268053764E-02
(PID.TID 0000.0001) %MON ke_mean                      =   2.8276314527198E-04
(PID.TID 0000.0001) %MON ke_vol                       =   1.3226782436723E+18
(PID.TID 0000.0001) %MON vort_r_min                   =  -4.7830698158762E-07
(PID.TID 0000.0001) %MON vort_r_max                   =   4.1110813124748E-07
(PID.TID 0000.0001) %MON vort_a_mean                  =  -2.5205769477366E-05
(PID.TID 0000.0001) %MON vort_a_sd                    =   7.3401406422726E-05
(PID.TID 0000.0001) %MON vort_p_mean                  =  -3.1758669663217E-05
(PID.TID 0000.0001) %MON vort_p_sd                    =   1.3126028819452E-04
(PID.TID 0000.0001) %MON surfExpan_theta_mean         =   3.2616366912920E-05
(PID.TID 0000.0001) %MON surfExpan_salt_mean          =  -2.5192145587641E-07
(PID.TID 0000.0001) // =======================================================
(PID.TID 0000.0001) // End MONITOR dynamic field statistics
(PID.TID 0000.0001) // =======================================================
(PID.TID 0000.0001) // Time-average data written, t-step        20
(PID.TID 0000.0001) 
(PID.TID 0000.0001) %CHECKPOINT        20 ckptA
(PID.TID 0000.0001)   Seconds in section "ALL                    [THE_MODEL_MAIN]":
(PID.TID 0000.0001)           User time:  4.03000021
(PID.TID 0000.0001)         System time:  0.469999999
(PID.TID 0000.0001)     Wall clock time:  4.76845503
(PID.TID 0000.0001)          No. starts: 1
(PID.TID 0000.0001)           No. stops: 1
(PID.TID 0000.0001)   Seconds in section "INITIALISE_FIXED       [THE_MODEL_MAIN]":
(PID.TID 0000.0001)           User time:  0.0900000036
(PID.TID 0000.0001)         System time:  0.0500000007
(PID.TID 0000.0001)     Wall clock time:  0.138201952
(PID.TID 0000.0001)          No. starts: 1
(PID.TID 0000.0001)           No. stops: 1
(PID.TID 0000.0001)   Seconds in section "THE_MAIN_LOOP          [THE_MODEL_MAIN]":
(PID.TID 0000.0001)           User time:  3.79000011
(PID.TID 0000.0001)         System time:  0.290000003
(PID.TID 0000.0001)     Wall clock time:  4.08591604
(PID.TID 0000.0001)          No. starts: 1
(PID.TID 0000.0001)           No. stops: 1
(PID.TID 0000.0001)   Seconds in section "INITIALISE_VARIA    [THE_MAIN_LOOP]":
(PID.TID 0000.0001)           User time:  0.0399999917
(PID.TID 0000.0001)         System time:  0.0299999975
(PID.TID 0000.0001)     Wall clock time:  0.0684319735
(PID.TID 0000.0001)          No. starts: 1
(PID.TID 0000.0001)           No. stops: 1
(PID.TID 0000.0001)   Seconds in section "WRITE_STATE         [THE_MAIN_LOOP]":
(PID.TID 0000.0001)           User time:  0.0100000054
(PID.TID 0000.0001)         System time:  0.0399999991
(PID.TID 0000.0001)     Wall clock time:  0.0578279495
(PID.TID 0000.0001)          No. starts: 1
(PID.TID 0000.0001)           No. stops: 1
(PID.TID 0000.0001)   Seconds in section "MONITOR             [THE_MAIN_LOOP]":
(PID.TID 0000.0001)           User time:  0.0199999958
(PID.TID 0000.0001)         System time:  0.
(PID.TID 0000.0001)     Wall clock time:  0.0188720226
(PID.TID 0000.0001)          No. starts: 1
(PID.TID 0000.0001)           No. stops: 1
(PID.TID 0000.0001)   Seconds in section "MAIN LOOP           [THE_MAIN_LOOP]":
(PID.TID 0000.0001)           User time:  3.72000012
(PID.TID 0000.0001)         System time:  0.220000006
(PID.TID 0000.0001)     Wall clock time:  3.94065595
(PID.TID 0000.0001)          No. starts: 1
(PID.TID 0000.0001)           No. stops: 1
(PID.TID 0000.0001)   Seconds in section "FORWARD_STEP        [THE_MAIN_LOOP]":
(PID.TID 0000.0001)           User time:  3.72000012
(PID.TID 0000.0001)         System time:  0.220000006
(PID.TID 0000.0001)     Wall clock time:  3.94017112
(PID.TID 0000.0001)          No. starts: 20
(PID.TID 0000.0001)           No. stops: 20
(PID.TID 0000.0001)   Seconds in section "EXTERNAL_FIELDS_LOAD[FORWARD_STEP]":
(PID.TID 0000.0001)           User time:  0.0100000054
(PID.TID 0000.0001)         System time:  0.
(PID.TID 0000.0001)     Wall clock time:  0.0175727606
(PID.TID 0000.0001)          No. starts: 20
(PID.TID 0000.0001)           No. stops: 20
(PID.TID 0000.0001)   Seconds in section "THERMODYNAMICS      [FORWARD_STEP]":
(PID.TID 0000.0001)           User time:  1.56999987
(PID.TID 0000.0001)         System time:  0.00999999791
(PID.TID 0000.0001)     Wall clock time:  1.57481694
(PID.TID 0000.0001)          No. starts: 20
(PID.TID 0000.0001)           No. stops: 20
(PID.TID 0000.0001)   Seconds in section "BLOCKING_EXCHANGES  [FORWARD_STEP]":
(PID.TID 0000.0001)           User time:  0.0299999714
(PID.TID 0000.0001)         System time:  0.
(PID.TID 0000.0001)     Wall clock time:  0.0265240669
(PID.TID 0000.0001)          No. starts: 40
(PID.TID 0000.0001)           No. stops: 40
(PID.TID 0000.0001)   Seconds in section "DYNAMICS            [FORWARD_STEP]":
(PID.TID 0000.0001)           User time:  1.19999997
(PID.TID 0000.0001)         System time:  0.0100000054
(PID.TID 0000.0001)     Wall clock time:  1.21260011
(PID.TID 0000.0001)          No. starts: 20
(PID.TID 0000.0001)           No. stops: 20
(PID.TID 0000.0001)   Seconds in section "SOLVE_FOR_PRESSURE  [FORWARD_STEP]":
(PID.TID 0000.0001)           User time:  0.149999946
(PID.TID 0000.0001)         System time:  0.0100000054
(PID.TID 0000.0001)     Wall clock time:  0.15151763
(PID.TID 0000.0001)          No. starts: 20
(PID.TID 0000.0001)           No. stops: 20
(PID.TID 0000.0001)   Seconds in section "THE_CORRECTION_STEP [FORWARD_STEP]":
(PID.TID 0000.0001)           User time:  0.210000008
(PID.TID 0000.0001)         System time:  0.
(PID.TID 0000.0001)     Wall clock time:  0.226163149
(PID.TID 0000.0001)          No. starts: 20
(PID.TID 0000.0001)           No. stops: 20
(PID.TID 0000.0001)   Seconds in section "MONITOR             [FORWARD_STEP]":
(PID.TID 0000.0001)           User time:  0.370000273
(PID.TID 0000.0001)         System time:  0.
(PID.TID 0000.0001)     Wall clock time:  0.384344935
(PID.TID 0000.0001)          No. starts: 20
(PID.TID 0000.0001)           No. stops: 20
(PID.TID 0000.0001)   Seconds in section "DO_THE_MODEL_IO     [FORWARD_STEP]":
(PID.TID 0000.0001)           User time:  0.150000095
(PID.TID 0000.0001)         System time:  0.189999998
(PID.TID 0000.0001)     Wall clock time:  0.3399508
(PID.TID 0000.0001)          No. starts: 20
(PID.TID 0000.0001)           No. stops: 20
(PID.TID 0000.0001)   Seconds in section "WRITE_CHECKPOINT    [FORWARD_STEP]":
(PID.TID 0000.0001)           User time:  0.00999999046
(PID.TID 0000.0001)         System time:  0.
(PID.TID 0000.0001)     Wall clock time:  0.000476837158
(PID.TID 0000.0001)          No. starts: 20
(PID.TID 0000.0001)           No. stops: 20
(PID.TID 0000.0001)   Seconds in section "WRITE_CHECKPOINT       [THE_MODEL_MAIN]":
(PID.TID 0000.0001)           User time:  0.150000095
(PID.TID 0000.0001)         System time:  0.129999995
(PID.TID 0000.0001)     Wall clock time:  0.544219017
(PID.TID 0000.0001)          No. starts: 1
(PID.TID 0000.0001)           No. stops: 1
(PID.TID 0000.0001) // ======================================================
(PID.TID 0000.0001) // Tile <-> Tile communication statistics
(PID.TID 0000.0001) // ======================================================
(PID.TID 0000.0001) // o Tile number: 000001
(PID.TID 0000.0001) //         No. X exchanges =              0
(PID.TID 0000.0001) //            Max. X spins =              0
(PID.TID 0000.0001) //            Min. X spins =     1000000000
(PID.TID 0000.0001) //          Total. X spins =              0
(PID.TID 0000.0001) //            Avg. X spins =       0.00E+00
(PID.TID 0000.0001) //         No. Y exchanges =              0
(PID.TID 0000.0001) //            Max. Y spins =              0
(PID.TID 0000.0001) //            Min. Y spins =     1000000000
(PID.TID 0000.0001) //          Total. Y spins =              0
(PID.TID 0000.0001) //            Avg. Y spins =       0.00E+00
(PID.TID 0000.0001) // o Thread number: 000001
(PID.TID 0000.0001) //            No. barriers =          13550
(PID.TID 0000.0001) //      Max. barrier spins =              1
(PID.TID 0000.0001) //      Min. barrier spins =              1
(PID.TID 0000.0001) //     Total barrier spins =          13550
(PID.TID 0000.0001) //      Avg. barrier spins =       1.00E+00
