(PID.TID 0000.0001) 
(PID.TID 0000.0001) // ======================================================
(PID.TID 0000.0001) //                      MITgcm UV
(PID.TID 0000.0001) //                      =========
(PID.TID 0000.0001) // ======================================================
(PID.TID 0000.0001) // execution environment starting up...
(PID.TID 0000.0001) 
(PID.TID 0000.0001) // MITgcmUV version:  checkpoint63f
(PID.TID 0000.0001) // Build user:        jmc
(PID.TID 0000.0001) // Build host:        baudelaire
(PID.TID 0000.0001) // Build date:        Thu Dec  1 10:31:57 EST 2011
(PID.TID 0000.0001) 
(PID.TID 0000.0001) // =======================================================
(PID.TID 0000.0001) // Execution Environment parameter file "eedata"
(PID.TID 0000.0001) // =======================================================
(PID.TID 0000.0001) ># Example "eedata" file
(PID.TID 0000.0001) ># Lines beginning "#" are comments
(PID.TID 0000.0001) ># nTx - No. threads per process in X
(PID.TID 0000.0001) ># nTy - No. threads per process in Y
(PID.TID 0000.0001) > &EEPARMS
(PID.TID 0000.0001) > nTx=1,
(PID.TID 0000.0001) > nTy=1,
(PID.TID 0000.0001) > /
(PID.TID 0000.0001) ># Note: Some systems use / as the
(PID.TID 0000.0001) ># namelist terminator. Other systems
(PID.TID 0000.0001) ># use a & character (as shown here).
(PID.TID 0000.0001) 
(PID.TID 0000.0001) // =======================================================
(PID.TID 0000.0001) // Computational Grid Specification ( see files "SIZE.h" )
(PID.TID 0000.0001) //                                  ( and "eedata"       )
(PID.TID 0000.0001) // =======================================================
(PID.TID 0000.0001)      nPx =    1 ; /* No. processes in X */
(PID.TID 0000.0001)      nPy =    1 ; /* No. processes in Y */
(PID.TID 0000.0001)      nSx =    2 ; /* No. tiles in X per process */
(PID.TID 0000.0001)      nSy =    2 ; /* No. tiles in Y per process */
(PID.TID 0000.0001)      sNx =   45 ; /* Tile size in X */
(PID.TID 0000.0001)      sNy =   20 ; /* Tile size in Y */
(PID.TID 0000.0001)      OLx =    3 ; /* Tile overlap distance in X */
(PID.TID 0000.0001)      OLy =    3 ; /* Tile overlap distance in Y */
(PID.TID 0000.0001)      nTx =    1 ; /* No. threads in X per process */
(PID.TID 0000.0001)      nTy =    1 ; /* No. threads in Y per process */
(PID.TID 0000.0001)       Nr =   15 ; /* No. levels in the vertical   */
(PID.TID 0000.0001)       Nx =   90 ; /* Total domain size in X ( = nPx*nSx*sNx ) */
(PID.TID 0000.0001)       Ny =   40 ; /* Total domain size in Y ( = nPy*nSy*sNy ) */
(PID.TID 0000.0001)   nTiles =    4 ; /* Total no. tiles per process ( = nSx*nSy ) */
(PID.TID 0000.0001)   nProcs =    1 ; /* Total no. processes ( = nPx*nPy ) */
(PID.TID 0000.0001) nThreads =    1 ; /* Total no. threads per process ( = nTx*nTy ) */
(PID.TID 0000.0001) usingMPI =    F ; /* Flag used to control whether MPI is in use */
(PID.TID 0000.0001)                   /*  note: To execute a program with MPI calls */
(PID.TID 0000.0001)                   /*  it must be launched appropriately e.g     */
(PID.TID 0000.0001)                   /*  "mpirun -np 64 ......"                    */
(PID.TID 0000.0001) useCoupler=    F ;/* Flag used to control communications with   */
(PID.TID 0000.0001)                   /*  other model components, through a coupler */
(PID.TID 0000.0001) debugMode =    F ; /* print debug msg. (sequence of S/R calls)  */
(PID.TID 0000.0001) printMapIncludesZeros=    F ; /* print zeros in Std.Output maps */
(PID.TID 0000.0001) maxLengthPrt1D=   65 /* maxLength of 1D array printed to StdOut */
(PID.TID 0000.0001) 
(PID.TID 0000.0001) // ======================================================
(PID.TID 0000.0001) // Mapping of tiles to threads
(PID.TID 0000.0001) // ======================================================
(PID.TID 0000.0001) // -o- Thread   1, tiles (   1:   2,   1:   2)
(PID.TID 0000.0001) 
(PID.TID 0000.0001) // ======================================================
(PID.TID 0000.0001) // Tile <-> Tile connectvity table
(PID.TID 0000.0001) // ======================================================
(PID.TID 0000.0001) // Tile number: 000001 (process no. = 000001)
(PID.TID 0000.0001) //        WEST: Tile = 000002, Process = 000001, Comm = put
(PID.TID 0000.0001) //                bi = 000002, bj = 000001
(PID.TID 0000.0001) //        EAST: Tile = 000002, Process = 000001, Comm = put
(PID.TID 0000.0001) //                bi = 000002, bj = 000001
(PID.TID 0000.0001) //       SOUTH: Tile = 000003, Process = 000001, Comm = put
(PID.TID 0000.0001) //                bi = 000001, bj = 000002
(PID.TID 0000.0001) //       NORTH: Tile = 000003, Process = 000001, Comm = put
(PID.TID 0000.0001) //                bi = 000001, bj = 000002
(PID.TID 0000.0001) // Tile number: 000002 (process no. = 000001)
(PID.TID 0000.0001) //        WEST: Tile = 000001, Process = 000001, Comm = put
(PID.TID 0000.0001) //                bi = 000001, bj = 000001
(PID.TID 0000.0001) //        EAST: Tile = 000001, Process = 000001, Comm = put
(PID.TID 0000.0001) //                bi = 000001, bj = 000001
(PID.TID 0000.0001) //       SOUTH: Tile = 000004, Process = 000001, Comm = put
(PID.TID 0000.0001) //                bi = 000002, bj = 000002
(PID.TID 0000.0001) //       NORTH: Tile = 000004, Process = 000001, Comm = put
(PID.TID 0000.0001) //                bi = 000002, bj = 000002
(PID.TID 0000.0001) // Tile number: 000003 (process no. = 000001)
(PID.TID 0000.0001) //        WEST: Tile = 000004, Process = 000001, Comm = put
(PID.TID 0000.0001) //                bi = 000002, bj = 000002
(PID.TID 0000.0001) //        EAST: Tile = 000004, Process = 000001, Comm = put
(PID.TID 0000.0001) //                bi = 000002, bj = 000002
(PID.TID 0000.0001) //       SOUTH: Tile = 000001, Process = 000001, Comm = put
(PID.TID 0000.0001) //                bi = 000001, bj = 000001
(PID.TID 0000.0001) //       NORTH: Tile = 000001, Process = 000001, Comm = put
(PID.TID 0000.0001) //                bi = 000001, bj = 000001
(PID.TID 0000.0001) // Tile number: 000004 (process no. = 000001)
(PID.TID 0000.0001) //        WEST: Tile = 000003, Process = 000001, Comm = put
(PID.TID 0000.0001) //                bi = 000001, bj = 000002
(PID.TID 0000.0001) //        EAST: Tile = 000003, Process = 000001, Comm = put
(PID.TID 0000.0001) //                bi = 000001, bj = 000002
(PID.TID 0000.0001) //       SOUTH: Tile = 000002, Process = 000001, Comm = put
(PID.TID 0000.0001) //                bi = 000002, bj = 000001
(PID.TID 0000.0001) //       NORTH: Tile = 000002, Process = 000001, Comm = put
(PID.TID 0000.0001) //                bi = 000002, bj = 000001
(PID.TID 0000.0001) 
(PID.TID 0000.0001)  INI_PARMS: opening model parameter file "data"
(PID.TID 0000.0001)  OPEN_COPY_DATA_FILE: opening file data
(PID.TID 0000.0001) // =======================================================
(PID.TID 0000.0001) // Parameter file "data"
(PID.TID 0000.0001) // =======================================================
(PID.TID 0000.0001) ># ====================
(PID.TID 0000.0001) ># | Model parameters |
(PID.TID 0000.0001) ># ====================
(PID.TID 0000.0001) >#
(PID.TID 0000.0001) ># Continuous equation parameters
(PID.TID 0000.0001) > &PARM01
(PID.TID 0000.0001) > tRef = 15*20.,
(PID.TID 0000.0001) > sRef = 15*35.,
(PID.TID 0000.0001) > viscAr=1.E-3,
(PID.TID 0000.0001) > diffKhT=0.0,
(PID.TID 0000.0001) > diffKrT=3.E-5,
(PID.TID 0000.0001) > diffKhS=0.0,
(PID.TID 0000.0001) > diffKrS=3.E-5,
(PID.TID 0000.0001) >#ph(
(PID.TID 0000.0001) >#ph Many of the following params. are
(PID.TID 0000.0001) >#ph just for AD testing; not necesarily
(PID.TID 0000.0001) >#ph meaningful in a 4x4 deg. setting.
(PID.TID 0000.0001) > viscC4Leith=1.5,
(PID.TID 0000.0001) > viscC4Leithd=1.5,
(PID.TID 0000.0001) > viscA4GridMax=0.5,
(PID.TID 0000.0001) > useAreaViscLength=.TRUE.,
(PID.TID 0000.0001) > bottomDragQuadratic = 0.0021,
(PID.TID 0000.0001) > multiDimAdvection=.TRUE,
(PID.TID 0000.0001) > tempAdvScheme=33,
(PID.TID 0000.0001) > saltAdvScheme=33,
(PID.TID 0000.0001) > tempImplVertAdv=.FALSE.,
(PID.TID 0000.0001) > saltImplVertAdv=.FALSE.,
(PID.TID 0000.0001) > hFacInf=0.2,
(PID.TID 0000.0001) > hFacSup=2.0,
(PID.TID 0000.0001) > nonlinFreeSurf=2,
(PID.TID 0000.0001) > staggerTimeStep=.TRUE.,
(PID.TID 0000.0001) > inAdExact=.TRUE.,
(PID.TID 0000.0001) >#ph)
(PID.TID 0000.0001) > rhonil=1035.,
(PID.TID 0000.0001) > rotationPeriod=86400.,
(PID.TID 0000.0001) > gravity=9.81,
(PID.TID 0000.0001) > eosType = 'JMD95Z',
(PID.TID 0000.0001) > ivdc_kappa=100.,
(PID.TID 0000.0001) > implicitDiffusion=.TRUE.,
(PID.TID 0000.0001) > allowFreezing=.TRUE.,
(PID.TID 0000.0001) > useRealFreshWaterFlux=.TRUE.,
(PID.TID 0000.0001) > useCDscheme=.TRUE.,
(PID.TID 0000.0001) > exactConserv=.TRUE.
(PID.TID 0000.0001) ># turn on looped cells
(PID.TID 0000.0001) > hFacMin=.05,
(PID.TID 0000.0001) > hFacMindr=50.,
(PID.TID 0000.0001) ># set precision of data files
(PID.TID 0000.0001) > readBinaryPrec=32,
(PID.TID 0000.0001) > debugLevel=1,
(PID.TID 0000.0001) >#ph(
(PID.TID 0000.0001) > vectorInvariantMomentum=.TRUE.,
(PID.TID 0000.0001) > hFacInf=0.2,
(PID.TID 0000.0001) > hFacSup=2.0,
(PID.TID 0000.0001) > nonlinFreeSurf=2,
(PID.TID 0000.0001) > exactConserv=.TRUE.
(PID.TID 0000.0001) > useRealFreshWaterFlux=.TRUE.,
(PID.TID 0000.0001) > staggerTimeStep=.TRUE.,
(PID.TID 0000.0001) > multiDimAdvection=.TRUE,
(PID.TID 0000.0001) > tempAdvScheme=30,
(PID.TID 0000.0001) > saltAdvScheme=30,
(PID.TID 0000.0001) > tempImplVertAdv=.FALSE.,
(PID.TID 0000.0001) > saltImplVertAdv=.FALSE.,
(PID.TID 0000.0001) > inAdExact=.TRUE.,
(PID.TID 0000.0001) >#ph)
(PID.TID 0000.0001) > /
(PID.TID 0000.0001) >
(PID.TID 0000.0001) ># Elliptic solver parameters
(PID.TID 0000.0001) > &PARM02
(PID.TID 0000.0001) > cg2dMaxIters=500,
(PID.TID 0000.0001) > cg2dTargetResidual=1.E-13,
(PID.TID 0000.0001) > /
(PID.TID 0000.0001) >
(PID.TID 0000.0001) ># Time stepping parameters
(PID.TID 0000.0001) > &PARM03
(PID.TID 0000.0001) > nIter0 =      0,
(PID.TID 0000.0001) > nTimeSteps = 10,
(PID.TID 0000.0001) ># 100 years of integration will yield a reasonable flow field
(PID.TID 0000.0001) ># startTime  =          0.,
(PID.TID 0000.0001) ># endTime    = 3110400000.,
(PID.TID 0000.0001) > deltaTmom = 1200.0,
(PID.TID 0000.0001) > tauCD =     321428.,
(PID.TID 0000.0001) > deltaTtracer= 43200.0,
(PID.TID 0000.0001) > deltaTClock = 43200.0,
(PID.TID 0000.0001) ># if you are using a version later than checkpoint45d on the main branch
(PID.TID 0000.0001) ># you can uncomment the following line and increase the time step
(PID.TID 0000.0001) ># deltaTtracer and deltaTClock to 172800.0 as well to speed up the
(PID.TID 0000.0001) ># asynchronous time stepping
(PID.TID 0000.0001) ># deltaTfreesurf = 172800.0,
(PID.TID 0000.0001) > abEps = 0.1,
(PID.TID 0000.0001) > pChkptFreq= 311040000.,
(PID.TID 0000.0001) > dumpFreq=   311040000.,
(PID.TID 0000.0001) > dumpFreq=   864000.,
(PID.TID 0000.0001) > adjDumpFreq= 432000.,
(PID.TID 0000.0001) > adjMonitorFreq=1.,
(PID.TID 0000.0001) ># taveFreq=   311040000.,
(PID.TID 0000.0001) ># taveFreq=   864000.,
(PID.TID 0000.0001) >#monitorFreq=31104000.,
(PID.TID 0000.0001) > monitorFreq=1.,
(PID.TID 0000.0001) ># 2 months restoring timescale for temperature
(PID.TID 0000.0001) > tauThetaClimRelax =  5184000.0,
(PID.TID 0000.0001) ># 6 months restoring timescale for salinity
(PID.TID 0000.0001) > tauSaltClimRelax = 15552000.0,
(PID.TID 0000.0001) > periodicExternalForcing=.TRUE.,
(PID.TID 0000.0001) > externForcingPeriod=2592000.,
(PID.TID 0000.0001) > externForcingCycle=31104000.,
(PID.TID 0000.0001) > /
(PID.TID 0000.0001) >
(PID.TID 0000.0001) ># Gridding parameters
(PID.TID 0000.0001) > &PARM04
(PID.TID 0000.0001) > usingSphericalPolarGrid=.TRUE.,
(PID.TID 0000.0001) > delR= 50., 70., 100., 140., 190.,
(PID.TID 0000.0001) >       240., 290., 340., 390., 440.,
(PID.TID 0000.0001) >       490., 540., 590., 640., 690.,
(PID.TID 0000.0001) > ygOrigin=-80.,
(PID.TID 0000.0001) > dySpacing=4.,
(PID.TID 0000.0001) > dxSpacing=4.,
(PID.TID 0000.0001) > /
(PID.TID 0000.0001) >
(PID.TID 0000.0001) ># Input datasets
(PID.TID 0000.0001) > &PARM05
(PID.TID 0000.0001) > bathyFile=      'bathymetry.bin',
(PID.TID 0000.0001) > hydrogThetaFile='lev_t.bin',
(PID.TID 0000.0001) > hydrogSaltFile= 'lev_s.bin',
(PID.TID 0000.0001) > zonalWindFile=  'trenberth_taux.bin',
(PID.TID 0000.0001) > meridWindFile=  'trenberth_tauy.bin',
(PID.TID 0000.0001) > thetaClimFile=  'lev_sst.bin',
(PID.TID 0000.0001) > saltClimFile=   'lev_sss.bin',
(PID.TID 0000.0001) > surfQFile=      'ncep_qnet.bin',
(PID.TID 0000.0001) ># fresh water flux is turned off, uncomment next line to turn on
(PID.TID 0000.0001) ># (not recommened together with surface salinity restoring)
(PID.TID 0000.0001) ># EmPmRFile=      'ncep_emp.bin',
(PID.TID 0000.0001) > /
(PID.TID 0000.0001) 
(PID.TID 0000.0001)  INI_PARMS ; starts to read PARM01
(PID.TID 0000.0001)  INI_PARMS ; read PARM01 : OK
(PID.TID 0000.0001) S/R INI_PARMS: No request for barotropic solver
(PID.TID 0000.0001) S/R INI_PARMS: => Use implicitFreeSurface as default
(PID.TID 0000.0001)  INI_PARMS ; starts to read PARM02
(PID.TID 0000.0001)  INI_PARMS ; read PARM02 : OK
(PID.TID 0000.0001)  INI_PARMS ; starts to read PARM03
(PID.TID 0000.0001)  INI_PARMS ; read PARM03 : OK
(PID.TID 0000.0001)  INI_PARMS ; starts to read PARM04
(PID.TID 0000.0001)  INI_PARMS ; read PARM04 : OK
(PID.TID 0000.0001)  INI_PARMS ; starts to read PARM05
(PID.TID 0000.0001)  INI_PARMS ; read PARM05 : OK
(PID.TID 0000.0001)  INI_PARMS: finished reading file "data"
(PID.TID 0000.0001)  PACKAGES_BOOT: opening data.pkg
(PID.TID 0000.0001)  OPEN_COPY_DATA_FILE: opening file data.pkg
(PID.TID 0000.0001) // =======================================================
(PID.TID 0000.0001) // Parameter file "data.pkg"
(PID.TID 0000.0001) // =======================================================
(PID.TID 0000.0001) >#
(PID.TID 0000.0001) ># ********
(PID.TID 0000.0001) ># Packages
(PID.TID 0000.0001) ># ********
(PID.TID 0000.0001) > &PACKAGES
(PID.TID 0000.0001) > useGMRedi    = .TRUE.,
(PID.TID 0000.0001) > useKPP       = .FALSE.,
(PID.TID 0000.0001) > useGrdchk    = .TRUE.,
(PID.TID 0000.0001) > useMNC       = .TRUE.,
(PID.TID 0000.0001) > /
(PID.TID 0000.0001) 
(PID.TID 0000.0001)  PACKAGES_BOOT: finished reading data.pkg
(PID.TID 0000.0001)  MNC_READPARMS: opening file 'data.mnc'
(PID.TID 0000.0001)  OPEN_COPY_DATA_FILE: opening file data.mnc
(PID.TID 0000.0001) // =======================================================
(PID.TID 0000.0001) // Parameter file "data.mnc"
(PID.TID 0000.0001) // =======================================================
(PID.TID 0000.0001) ># Example "data.mnc" file
(PID.TID 0000.0001) ># Lines beginning "#" are comments
(PID.TID 0000.0001) > &MNC_01
(PID.TID 0000.0001) ># mnc_echo_gvtypes=.FALSE.,
(PID.TID 0000.0001) ># mnc_use_indir=.FALSE.,
(PID.TID 0000.0001) > mnc_use_outdir=.TRUE.,
(PID.TID 0000.0001) > mnc_outdir_str='mnc_test_',
(PID.TID 0000.0001) >#mnc_outdir_date=.TRUE.,
(PID.TID 0000.0001) > monitor_mnc=.FALSE.,
(PID.TID 0000.0001) >#timeave_mnc=.FALSE.,
(PID.TID 0000.0001) >#snapshot_mnc=.FALSE.,
(PID.TID 0000.0001) >#autodiff_mnc=.FALSE.,
(PID.TID 0000.0001) > pickup_write_mnc=.FALSE.,
(PID.TID 0000.0001) > pickup_read_mnc=.FALSE.,
(PID.TID 0000.0001) > /
(PID.TID 0000.0001) ># Note: Some systems use & as the
(PID.TID 0000.0001) ># namelist terminator. Other systems
(PID.TID 0000.0001) ># use a / character (as shown here).
(PID.TID 0000.0001) 
(PID.TID 0000.0001)  MNC_READPARMS: finished reading data.mnc
(PID.TID 0000.0001)  GM_READPARMS: opening data.gmredi
(PID.TID 0000.0001)  OPEN_COPY_DATA_FILE: opening file data.gmredi
(PID.TID 0000.0001) // =======================================================
(PID.TID 0000.0001) // Parameter file "data.gmredi"
(PID.TID 0000.0001) // =======================================================
(PID.TID 0000.0001) ># GM+Redi package parameters:
(PID.TID 0000.0001) >#     GM_Small_Number  :: epsilon used in computing the slope
(PID.TID 0000.0001) >#     GM_slopeSqCutoff :: slope^2 cut-off value
(PID.TID 0000.0001) >
(PID.TID 0000.0001) >#-from MOM :
(PID.TID 0000.0001) ># GM_background_K: 	G & Mc.W  diffusion coefficient
(PID.TID 0000.0001) ># GM_maxSlope    :	max slope of isopycnals
(PID.TID 0000.0001) ># GM_Scrit       :	transition for scaling diffusion coefficient
(PID.TID 0000.0001) ># GM_Sd          :	half width scaling for diffusion coefficient
(PID.TID 0000.0001) ># GM_taper_scheme:	slope clipping or one of the tapering schemes
(PID.TID 0000.0001) ># GM_Kmin_horiz  :	horizontal diffusion minimum value
(PID.TID 0000.0001) >
(PID.TID 0000.0001) >#-Option parameters (needs to "define" options in GMREDI_OPTIONS.h")
(PID.TID 0000.0001) ># GM_isopycK     :	isopycnal diffusion coefficient (default=GM_background_K)
(PID.TID 0000.0001) ># GM_AdvForm     :	turn on GM Advective form       (default=Skew flux form)
(PID.TID 0000.0001) >
(PID.TID 0000.0001) > &GM_PARM01
(PID.TID 0000.0001) >  GM_Small_Number  = 1.D-20,
(PID.TID 0000.0001) >  GM_slopeSqCutoff = 1.D+08,
(PID.TID 0000.0001) >  GM_AdvForm         = .TRUE.,
(PID.TID 0000.0001) >  GM_isopycK         = 1.1D+3,
(PID.TID 0000.0001) >  GM_background_K    = 0.9D+3,
(PID.TID 0000.0001) >  GM_taper_scheme    = 'dm95',
(PID.TID 0000.0001) >  GM_maxSlope        = 1.D-2,
(PID.TID 0000.0001) >  GM_Kmin_horiz      = 50.,
(PID.TID 0000.0001) >  GM_Scrit           = 4.D-3,
(PID.TID 0000.0001) >  GM_Sd              = 1.D-3,
(PID.TID 0000.0001) >#  GM_Visbeck_alpha   = 1.5D-2,
(PID.TID 0000.0001) >  GM_Visbeck_alpha   = 0.D0,
(PID.TID 0000.0001) >  GM_Visbeck_length  = 2.D+5,
(PID.TID 0000.0001) >  GM_Visbeck_depth   = 1.D+3,
(PID.TID 0000.0001) >  GM_Visbeck_maxval_K= 2.5D+3,
(PID.TID 0000.0001) > /
(PID.TID 0000.0001) >
(PID.TID 0000.0001) >
(PID.TID 0000.0001) 
(PID.TID 0000.0001)  GM_READPARMS: finished reading data.gmredi
(PID.TID 0000.0001) OPTIM_READPARMS: opening data.optim
(PID.TID 0000.0001)  OPEN_COPY_DATA_FILE: opening file data.optim
(PID.TID 0000.0001) // =======================================================
(PID.TID 0000.0001) // Parameter file "data.optim"
(PID.TID 0000.0001) // =======================================================
(PID.TID 0000.0001) >#
(PID.TID 0000.0001) ># ********************************
(PID.TID 0000.0001) ># Off-line optimization parameters
(PID.TID 0000.0001) ># ********************************
(PID.TID 0000.0001) > &OPTIM
(PID.TID 0000.0001) > optimcycle=0,
(PID.TID 0000.0001) > /
(PID.TID 0000.0001) 
(PID.TID 0000.0001) OPTIM_READPARMS: finished reading data.optim
(PID.TID 0000.0001) CTRL_READPARMS: opening data.ctrl
(PID.TID 0000.0001)  OPEN_COPY_DATA_FILE: opening file data.ctrl
(PID.TID 0000.0001) // =======================================================
(PID.TID 0000.0001) // Parameter file "data.ctrl"
(PID.TID 0000.0001) // =======================================================
(PID.TID 0000.0001) >#
(PID.TID 0000.0001) >#
(PID.TID 0000.0001) ># *********************
(PID.TID 0000.0001) ># ECCO controlvariables
(PID.TID 0000.0001) ># *********************
(PID.TID 0000.0001) > &CTRL_NML
(PID.TID 0000.0001) ># doSinglePrecTapelev= .FALSE.,
(PID.TID 0000.0001) > xx_theta_file      = 'xx_theta',
(PID.TID 0000.0001) > xx_salt_file       = 'xx_salt',
(PID.TID 0000.0001) > xx_tr1_file        = 'xx_tr1',
(PID.TID 0000.0001) > xx_hflux_file      = 'xx_hflux',
(PID.TID 0000.0001) > xx_sflux_file      = 'xx_sflux',
(PID.TID 0000.0001) > xx_tauu_file       = 'xx_tauu',
(PID.TID 0000.0001) > xx_tauv_file       = 'xx_tauv',
(PID.TID 0000.0001) > xx_diffkr_file     = 'xx_diffkr',
(PID.TID 0000.0001) > xx_kapgm_file      = 'xx_kapgm',
(PID.TID 0000.0001) > /
(PID.TID 0000.0001) >#
(PID.TID 0000.0001) ># *********************
(PID.TID 0000.0001) ># names for ctrl_pack/unpack
(PID.TID 0000.0001) ># *********************
(PID.TID 0000.0001) > &CTRL_PACKNAMES
(PID.TID 0000.0001) > /
(PID.TID 0000.0001) >
(PID.TID 0000.0001) 
(PID.TID 0000.0001) CTRL_READPARMS: finished reading data.ctrl
(PID.TID 0000.0001) COST_READPARMS: opening data.cost
(PID.TID 0000.0001)  OPEN_COPY_DATA_FILE: opening file data.cost
(PID.TID 0000.0001) // =======================================================
(PID.TID 0000.0001) // Parameter file "data.cost"
(PID.TID 0000.0001) // =======================================================
(PID.TID 0000.0001) >#
(PID.TID 0000.0001) >#
(PID.TID 0000.0001) ># ******************
(PID.TID 0000.0001) ># ECCO cost function
(PID.TID 0000.0001) ># ******************
(PID.TID 0000.0001) > &COST_NML
(PID.TID 0000.0001) >#
(PID.TID 0000.0001) > mult_tracer  = 1.,
(PID.TID 0000.0001) > mult_test    = 1.,
(PID.TID 0000.0001) > mult_atl     = 1.,
(PID.TID 0000.0001) > /
(PID.TID 0000.0001) 
(PID.TID 0000.0001) COST_READPARMS: finished reading data.cost
(PID.TID 0000.0001) GRDCHK_READPARMS: opening data.grdchk
(PID.TID 0000.0001)  OPEN_COPY_DATA_FILE: opening file data.grdchk
(PID.TID 0000.0001) // =======================================================
(PID.TID 0000.0001) // Parameter file "data.grdchk"
(PID.TID 0000.0001) // =======================================================
(PID.TID 0000.0001) >
(PID.TID 0000.0001) ># *******************
(PID.TID 0000.0001) ># ECCO gradient check
(PID.TID 0000.0001) ># *******************
(PID.TID 0000.0001) > &GRDCHK_NML
(PID.TID 0000.0001) > grdchk_eps       = 1.d-2,
(PID.TID 0000.0001) >### iGloPos          = 76,
(PID.TID 0000.0001) >### jGloPos          = 27,
(PID.TID 0000.0001) > iGloPos          = 31,
(PID.TID 0000.0001) > jGloPos          = 7,
(PID.TID 0000.0001) > kGloPos          = 1,
(PID.TID 0000.0001) > iGloTile         = 2,
(PID.TID 0000.0001) > jgloTile         = 2,
(PID.TID 0000.0001) >### nbeg             = 1,
(PID.TID 0000.0001) > nstep            = 1,
(PID.TID 0000.0001) > nend             = 3,
(PID.TID 0000.0001) > grdchkvarindex   = 1,
(PID.TID 0000.0001) > /
(PID.TID 0000.0001) 
(PID.TID 0000.0001) GRDCHK_READPARMS: finished reading data.grdchk
(PID.TID 0000.0001) 
(PID.TID 0000.0001) // =======================================================
(PID.TID 0000.0001) // Gradient check configuration  >>> START <<<
(PID.TID 0000.0001) // =======================================================
(PID.TID 0000.0001) 
(PID.TID 0000.0001)   eps:                              0.100E-01
(PID.TID 0000.0001)   First location:                           0
(PID.TID 0000.0001)   Last location:                            3
(PID.TID 0000.0001)   Increment:                                1
(PID.TID 0000.0001)   grdchkWhichProc:                          0
(PID.TID 0000.0001)   iLocTile =       2  ,    jLocTile =       2
(PID.TID 0000.0001) 
(PID.TID 0000.0001) // =======================================================
(PID.TID 0000.0001) // Gradient check configuration  >>> END <<<
(PID.TID 0000.0001) // =======================================================
(PID.TID 0000.0001) 
(PID.TID 0000.0001) SET_PARMS: done
(PID.TID 0000.0001) Enter INI_VERTICAL_GRID: setInterFDr=    T ; setCenterDr=    F
(PID.TID 0000.0001) %MON XC_max                       =   3.5800000000000E+02
(PID.TID 0000.0001) %MON XC_min                       =   2.0000000000000E+00
(PID.TID 0000.0001) %MON XC_mean                      =   1.8000000000000E+02
(PID.TID 0000.0001) %MON XC_sd                        =   1.0391663325314E+02
(PID.TID 0000.0001) %MON XG_max                       =   3.5600000000000E+02
(PID.TID 0000.0001) %MON XG_min                       =   0.0000000000000E+00
(PID.TID 0000.0001) %MON XG_mean                      =   1.7800000000000E+02
(PID.TID 0000.0001) %MON XG_sd                        =   1.0391663325314E+02
(PID.TID 0000.0001) %MON DXC_max                      =   4.4443898815675E+05
(PID.TID 0000.0001) %MON DXC_min                      =   9.2460385861875E+04
(PID.TID 0000.0001) %MON DXC_mean                     =   3.1372497618153E+05
(PID.TID 0000.0001) %MON DXC_sd                       =   1.1216447457560E+05
(PID.TID 0000.0001) %MON DXF_max                      =   4.4443898815675E+05
(PID.TID 0000.0001) %MON DXF_min                      =   9.2460385861875E+04
(PID.TID 0000.0001) %MON DXF_mean                     =   3.1372497618153E+05
(PID.TID 0000.0001) %MON DXF_sd                       =   1.1216447457560E+05
(PID.TID 0000.0001) %MON DXG_max                      =   4.4470989340816E+05
(PID.TID 0000.0001) %MON DXG_min                      =   7.7223062580781E+04
(PID.TID 0000.0001) %MON DXG_mean                     =   3.1353386340261E+05
(PID.TID 0000.0001) %MON DXG_sd                       =   1.1256651772502E+05
(PID.TID 0000.0001) %MON DXV_max                      =   4.4470989340816E+05
(PID.TID 0000.0001) %MON DXV_min                      =   7.7223062580781E+04
(PID.TID 0000.0001) %MON DXV_mean                     =   3.1353386340261E+05
(PID.TID 0000.0001) %MON DXV_sd                       =   1.1256651772502E+05
(PID.TID 0000.0001) %MON YC_max                       =   7.8000000000000E+01
(PID.TID 0000.0001) %MON YC_min                       =  -7.8000000000000E+01
(PID.TID 0000.0001) %MON YC_mean                      =   0.0000000000000E+00
(PID.TID 0000.0001) %MON YC_sd                        =   4.6173585522461E+01
(PID.TID 0000.0001) %MON YG_max                       =   7.6000000000000E+01
(PID.TID 0000.0001) %MON YG_min                       =  -8.0000000000000E+01
(PID.TID 0000.0001) %MON YG_mean                      =  -2.0000000000000E+00
(PID.TID 0000.0001) %MON YG_sd                        =   4.6173585522461E+01
(PID.TID 0000.0001) %MON DYC_max                      =   4.4470989340816E+05
(PID.TID 0000.0001) %MON DYC_min                      =   4.4470989340816E+05
(PID.TID 0000.0001) %MON DYC_mean                     =   4.4470989340816E+05
(PID.TID 0000.0001) %MON DYC_sd                       =   5.2968971431255E-09
(PID.TID 0000.0001) %MON DYF_max                      =   4.4470989340816E+05
(PID.TID 0000.0001) %MON DYF_min                      =   4.4470989340816E+05
(PID.TID 0000.0001) %MON DYF_mean                     =   4.4470989340816E+05
(PID.TID 0000.0001) %MON DYF_sd                       =   5.2968971431255E-09
(PID.TID 0000.0001) %MON DYG_max                      =   4.4470989340816E+05
(PID.TID 0000.0001) %MON DYG_min                      =   4.4470989340816E+05
(PID.TID 0000.0001) %MON DYG_mean                     =   4.4470989340816E+05
(PID.TID 0000.0001) %MON DYG_sd                       =   5.2968971431255E-09
(PID.TID 0000.0001) %MON DYU_max                      =   4.4470989340816E+05
(PID.TID 0000.0001) %MON DYU_min                      =   4.4470989340816E+05
(PID.TID 0000.0001) %MON DYU_mean                     =   4.4470989340816E+05
(PID.TID 0000.0001) %MON DYU_sd                       =   5.2968971431255E-09
(PID.TID 0000.0001) %MON RA_max                       =   1.9760627980089E+11
(PID.TID 0000.0001) %MON RA_min                       =   4.1109698667290E+10
(PID.TID 0000.0001) %MON RA_mean                      =   1.3948826965196E+11
(PID.TID 0000.0001) %MON RA_sd                        =   4.9870522472902E+10
(PID.TID 0000.0001) %MON RAW_max                      =   1.9760627980089E+11
(PID.TID 0000.0001) %MON RAW_min                      =   4.1109698667290E+10
(PID.TID 0000.0001) %MON RAW_mean                     =   1.3948826965196E+11
(PID.TID 0000.0001) %MON RAW_sd                       =   4.9870522472902E+10
(PID.TID 0000.0001) %MON RAS_max                      =   1.9772672958215E+11
(PID.TID 0000.0001) %MON RAS_min                      =   3.4334886267983E+10
(PID.TID 0000.0001) %MON RAS_mean                     =   1.3940329716694E+11
(PID.TID 0000.0001) %MON RAS_sd                       =   5.0049278732353E+10
(PID.TID 0000.0001) %MON RAZ_max                      =   1.9772672958215E+11
(PID.TID 0000.0001) %MON RAZ_min                      =   3.4334886267983E+10
(PID.TID 0000.0001) %MON RAZ_mean                     =   1.3940329716694E+11
(PID.TID 0000.0001) %MON RAZ_sd                       =   5.0049278732353E+10
(PID.TID 0000.0001) %MON AngleCS_max                  =   1.0000000000000E+00
(PID.TID 0000.0001) %MON AngleCS_min                  =   1.0000000000000E+00
(PID.TID 0000.0001) %MON AngleCS_mean                 =   1.0000000000000E+00
(PID.TID 0000.0001) %MON AngleCS_sd                   =   0.0000000000000E+00
(PID.TID 0000.0001) %MON AngleSN_max                  =   0.0000000000000E+00
(PID.TID 0000.0001) %MON AngleSN_min                  =   0.0000000000000E+00
(PID.TID 0000.0001) %MON AngleSN_mean                 =   0.0000000000000E+00
(PID.TID 0000.0001) %MON AngleSN_sd                   =   0.0000000000000E+00
(PID.TID 0000.0001) GAD_INIT_FIXED: GAD_OlMinSize=  2  0  1
(PID.TID 0000.0001) 
(PID.TID 0000.0001) // ===================================
(PID.TID 0000.0001) // GAD parameters :
(PID.TID 0000.0001) // ===================================
(PID.TID 0000.0001) tempAdvScheme =   /* Temp. Horiz.Advection scheme selector */
(PID.TID 0000.0001)                      30
(PID.TID 0000.0001)     ;
(PID.TID 0000.0001) tempVertAdvScheme =   /* Temp. Vert. Advection scheme selector */
(PID.TID 0000.0001)                      30
(PID.TID 0000.0001)     ;
(PID.TID 0000.0001) tempMultiDimAdvec =   /* use Muti-Dim Advec method for Temp */
(PID.TID 0000.0001)                   T
(PID.TID 0000.0001)     ;
(PID.TID 0000.0001) tempSOM_Advection = /* use 2nd Order Moment Advection for Temp */
(PID.TID 0000.0001)                   F
(PID.TID 0000.0001)     ;
(PID.TID 0000.0001) AdamsBashforthGt = /* apply Adams-Bashforth extrapolation on Gt */
(PID.TID 0000.0001)                   F
(PID.TID 0000.0001)     ;
(PID.TID 0000.0001) AdamsBashforth_T = /* apply Adams-Bashforth extrapolation on Temp */
(PID.TID 0000.0001)                   F
(PID.TID 0000.0001)     ;
(PID.TID 0000.0001) saltAdvScheme =   /* Salt. Horiz.advection scheme selector */
(PID.TID 0000.0001)                      30
(PID.TID 0000.0001)     ;
(PID.TID 0000.0001) saltVertAdvScheme =   /* Salt. Vert. Advection scheme selector */
(PID.TID 0000.0001)                      30
(PID.TID 0000.0001)     ;
(PID.TID 0000.0001) saltMultiDimAdvec =   /* use Muti-Dim Advec method for Salt */
(PID.TID 0000.0001)                   T
(PID.TID 0000.0001)     ;
(PID.TID 0000.0001) saltSOM_Advection = /* use 2nd Order Moment Advection for Salt */
(PID.TID 0000.0001)                   F
(PID.TID 0000.0001)     ;
(PID.TID 0000.0001) AdamsBashforthGs = /* apply Adams-Bashforth extrapolation on Gs */
(PID.TID 0000.0001)                   F
(PID.TID 0000.0001)     ;
(PID.TID 0000.0001) AdamsBashforth_S = /* apply Adams-Bashforth extrapolation on Salt */
(PID.TID 0000.0001)                   F
(PID.TID 0000.0001)     ;
(PID.TID 0000.0001) // ===================================
(PID.TID 0000.0001) ctrl-wet 1:    nvarlength =       126221
(PID.TID 0000.0001) ctrl-wet 2: surface wet C =          669
(PID.TID 0000.0001) ctrl-wet 3: surface wet W =          640
(PID.TID 0000.0001) ctrl-wet 4: surface wet S =          610
(PID.TID 0000.0001) ctrl-wet 4a:surface wet V =            0
(PID.TID 0000.0001) ctrl-wet 5: 3D wet points =         8651
(PID.TID 0000.0001) ctrl-wet 6: no recs for i =     1           1
(PID.TID 0000.0001) ctrl-wet 6: no recs for i =     2           1
(PID.TID 0000.0001) ctrl-wet 6: no recs for i =     3           1
(PID.TID 0000.0001) ctrl-wet 6: no recs for i =     4           1
(PID.TID 0000.0001) ctrl-wet 6: no recs for i =     5           1
(PID.TID 0000.0001) ctrl-wet 6: no recs for i =     6           1
(PID.TID 0000.0001) ctrl-wet 6: no recs for i =     7           0
(PID.TID 0000.0001) ctrl-wet 6: no recs for i =     8           0
(PID.TID 0000.0001) ctrl-wet 6: no recs for i =     9           0
(PID.TID 0000.0001) ctrl-wet 6: no recs for i =    10           0
(PID.TID 0000.0001) ctrl-wet 6: no recs for i =    11           0
(PID.TID 0000.0001) ctrl-wet 6: no recs for i =    12           0
(PID.TID 0000.0001) ctrl-wet 6: no recs for i =    13           0
(PID.TID 0000.0001) ctrl-wet 6: no recs for i =    14           0
(PID.TID 0000.0001) ctrl-wet 6: no recs for i =    15           1
(PID.TID 0000.0001) ctrl-wet 6: no recs for i =    16           1
(PID.TID 0000.0001) ctrl-wet 6: no recs for i =    17           0
(PID.TID 0000.0001) ctrl-wet 6: no recs for i =    18           0
(PID.TID 0000.0001) ctrl-wet 6: no recs for i =    19           0
(PID.TID 0000.0001) ctrl-wet 6: no recs for i =    20           0
(PID.TID 0000.0001) ctrl-wet 6: no recs for i =    21           0
(PID.TID 0000.0001) ctrl-wet 6: no recs for i =    22           0
(PID.TID 0000.0001) ctrl-wet 6: no recs for i =    23           0
(PID.TID 0000.0001) ctrl-wet 6: no recs for i =    24           0
(PID.TID 0000.0001) ctrl-wet 6: no recs for i =    25           0
(PID.TID 0000.0001) ctrl-wet 6: no recs for i =    26           0
(PID.TID 0000.0001) ctrl-wet 6: no recs for i =    27           0
(PID.TID 0000.0001) ctrl-wet 6: no recs for i =    28           0
(PID.TID 0000.0001) ctrl-wet 6: no recs for i =    29           0
(PID.TID 0000.0001) ctrl-wet 6: no recs for i =    30           0
(PID.TID 0000.0001) ctrl-wet 6: no recs for i =    31           0
(PID.TID 0000.0001) ctrl-wet 6: no recs for i =    32           0
(PID.TID 0000.0001) ctrl-wet 6: no recs for i =    33           0
(PID.TID 0000.0001) ctrl-wet 6: no recs for i =    34           0
(PID.TID 0000.0001) ctrl-wet 6: no recs for i =    35           0
(PID.TID 0000.0001) ctrl-wet 6: no recs for i =    36           0
(PID.TID 0000.0001) ctrl-wet 6: no recs for i =    37           0
(PID.TID 0000.0001) ctrl-wet 6: no recs for i =    38           0
(PID.TID 0000.0001) ctrl-wet 6: no recs for i =    39           0
(PID.TID 0000.0001) ctrl-wet 6: no recs for i =    40           0
(PID.TID 0000.0001) ctrl-wet 6: no recs for i =    41           0
(PID.TID 0000.0001) ctrl-wet 6: no recs for i =    42           0
(PID.TID 0000.0001) ctrl-wet 6: no recs for i =    43           0
(PID.TID 0000.0001) ctrl-wet 6: no recs for i =    44           0
(PID.TID 0000.0001) ctrl-wet 6: no recs for i =    45           0
(PID.TID 0000.0001) ctrl-wet 6: no recs for i =    46           0
(PID.TID 0000.0001) ctrl-wet 6: no recs for i =    47           0
(PID.TID 0000.0001) ctrl-wet 6: no recs for i =    48           0
(PID.TID 0000.0001) ctrl-wet 6: no recs for i =    49           0
(PID.TID 0000.0001) ctrl-wet 6: no recs for i =    50           0
(PID.TID 0000.0001) ctrl-wet 6: no recs for i =    51           0
(PID.TID 0000.0001) ctrl-wet 6: no recs for i =    52           0
(PID.TID 0000.0001) ctrl-wet 6: no recs for i =    53           0
(PID.TID 0000.0001) ctrl-wet 6: no recs for i =    54           0
(PID.TID 0000.0001) ctrl-wet 6: no recs for i =    55           0
(PID.TID 0000.0001) ctrl-wet 6: no recs for i =    56           0
(PID.TID 0000.0001) ctrl-wet 6: no recs for i =    57           0
(PID.TID 0000.0001) ctrl-wet 6: no recs for i =    58           0
(PID.TID 0000.0001) ctrl-wet 6: no recs for i =    59           0
(PID.TID 0000.0001) ctrl-wet 6: no recs for i =    60           0
(PID.TID 0000.0001) ctrl-wet 7: flux         19890
(PID.TID 0000.0001) ctrl-wet 8: atmos        17302
(PID.TID 0000.0001) ctrl-wet -------------------------------------------------
(PID.TID 0000.0001) ctrl-wet 13: global nvarlength for Nr =   15      126221
(PID.TID 0000.0001) ctrl-wet -------------------------------------------------
(PID.TID 0000.0001) ctrl-wet 14: global nWet C/S/W/V k=    1        2315        2149        2206           0
(PID.TID 0000.0001) ctrl-wet 14: global nWet C/S/W/V k=    2        2315        2149        2206           0
(PID.TID 0000.0001) ctrl-wet 14: global nWet C/S/W/V k=    3        2254        2102        2146           0
(PID.TID 0000.0001) ctrl-wet 14: global nWet C/S/W/V k=    4        2215        2058        2104           0
(PID.TID 0000.0001) ctrl-wet 14: global nWet C/S/W/V k=    5        2178        2027        2070           0
(PID.TID 0000.0001) ctrl-wet 14: global nWet C/S/W/V k=    6        2142        1987        2029           0
(PID.TID 0000.0001) ctrl-wet 14: global nWet C/S/W/V k=    7        2114        1959        2004           0
(PID.TID 0000.0001) ctrl-wet 14: global nWet C/S/W/V k=    8        2076        1918        1959           0
(PID.TID 0000.0001) ctrl-wet 14: global nWet C/S/W/V k=    9        2048        1887        1925           0
(PID.TID 0000.0001) ctrl-wet 14: global nWet C/S/W/V k=   10        1999        1831        1869           0
(PID.TID 0000.0001) ctrl-wet 14: global nWet C/S/W/V k=   11        1948        1771        1808           0
(PID.TID 0000.0001) ctrl-wet 14: global nWet C/S/W/V k=   12        1850        1653        1705           0
(PID.TID 0000.0001) ctrl-wet 14: global nWet C/S/W/V k=   13        1655        1404        1458           0
(PID.TID 0000.0001) ctrl-wet 14: global nWet C/S/W/V k=   14        1372        1118        1164           0
(PID.TID 0000.0001) ctrl-wet 14: global nWet C/S/W/V k=   15         828         623         671           0
(PID.TID 0000.0001) ctrl-wet -------------------------------------------------
(PID.TID 0000.0001) ctrl-wet -------------------------------------------------
(PID.TID 0000.0001) ctrl-wet -------------------------------------------------
(PID.TID 0000.0001) ctrl_init: no. of control variables:            8
(PID.TID 0000.0001) ctrl_init: control vector length:          126221
(PID.TID 0000.0001) %MON fCori_max                    =   1.4226580169407E-04
(PID.TID 0000.0001) %MON fCori_min                    =  -1.4226580169407E-04
(PID.TID 0000.0001) %MON fCori_mean                   =  -1.9274705288631E-19
(PID.TID 0000.0001) %MON fCori_sd                     =   9.6335367303779E-05
(PID.TID 0000.0001) %MON fCoriG_max                   =   1.4112379284621E-04
(PID.TID 0000.0001) %MON fCoriG_min                   =  -1.4323448157692E-04
(PID.TID 0000.0001) %MON fCoriG_mean                  =  -3.5808620394228E-06
(PID.TID 0000.0001) %MON fCoriG_sd                    =   9.6285194120965E-05
(PID.TID 0000.0001) %MON fCoriCos_max                 =   1.4535550371427E-04
(PID.TID 0000.0001) %MON fCoriCos_min                 =   3.0239529651320E-05
(PID.TID 0000.0001) %MON fCoriCos_mean                =   1.0260497651149E-04
(PID.TID 0000.0001) %MON fCoriCos_sd                  =   3.6683828681187E-05
(PID.TID 0000.0001) INI_CG2D: CG2D normalisation factor =  6.5682677425711703E-05
(PID.TID 0000.0001) 
(PID.TID 0000.0001) // =======================================================
(PID.TID 0000.0001) // Model configuration
(PID.TID 0000.0001) // =======================================================
(PID.TID 0000.0001) //
(PID.TID 0000.0001) // "Physical" paramters ( PARM01 in namelist )
(PID.TID 0000.0001) //
(PID.TID 0000.0001) buoyancyRelation = /* Type of relation to get Buoyancy */
(PID.TID 0000.0001)               'OCEANIC'
(PID.TID 0000.0001)     ;
(PID.TID 0000.0001) fluidIsAir   =  /* fluid major constituent is Air */
(PID.TID 0000.0001)                   F
(PID.TID 0000.0001)     ;
(PID.TID 0000.0001) fluidIsWater =  /* fluid major constituent is Water */
(PID.TID 0000.0001)                   T
(PID.TID 0000.0001)     ;
(PID.TID 0000.0001) usingPCoords =  /* use p (or p*) vertical coordinate */
(PID.TID 0000.0001)                   F
(PID.TID 0000.0001)     ;
(PID.TID 0000.0001) usingZCoords =  /* use z (or z*) vertical coordinate */
(PID.TID 0000.0001)                   T
(PID.TID 0000.0001)     ;
(PID.TID 0000.0001) tRef =   /* Reference temperature profile ( oC or K ) */
(PID.TID 0000.0001)    15 @  2.000000000000000E+01              /* K =  1: 15 */
(PID.TID 0000.0001)     ;
(PID.TID 0000.0001) sRef =   /* Reference salinity profile ( psu ) */
(PID.TID 0000.0001)    15 @  3.500000000000000E+01              /* K =  1: 15 */
(PID.TID 0000.0001)     ;
(PID.TID 0000.0001) viscAh  =   /* Lateral eddy viscosity ( m^2/s ) */
(PID.TID 0000.0001)                 0.000000000000000E+00
(PID.TID 0000.0001)     ;
(PID.TID 0000.0001) viscAhMax = /* Maximum lateral eddy viscosity ( m^2/s ) */
(PID.TID 0000.0001)                 1.000000000000000E+21
(PID.TID 0000.0001)     ;
(PID.TID 0000.0001) viscAhGrid = /* Grid dependent lateral eddy viscosity ( non-dim. ) */
(PID.TID 0000.0001)                 0.000000000000000E+00
(PID.TID 0000.0001)     ;
(PID.TID 0000.0001) useFullLeith = /* Use Full Form of Leith Viscosity on/off flag*/
(PID.TID 0000.0001)                   F
(PID.TID 0000.0001)     ;
(PID.TID 0000.0001) useStrainTensionVisc= /* Use StrainTension Form of Viscous Operator flag*/
(PID.TID 0000.0001)                   F
(PID.TID 0000.0001)     ;
(PID.TID 0000.0001) useAreaViscLength = /* Use area for visc length instead of geom. mean*/
(PID.TID 0000.0001)                   T
(PID.TID 0000.0001)     ;
(PID.TID 0000.0001) viscC2leith = /* Leith harmonic visc. factor (on grad(vort),non-dim.) */
(PID.TID 0000.0001)                 0.000000000000000E+00
(PID.TID 0000.0001)     ;
(PID.TID 0000.0001) viscC2leithD = /* Leith harmonic viscosity factor (on grad(div),non-dim.)*/
(PID.TID 0000.0001)                 0.000000000000000E+00
(PID.TID 0000.0001)     ;
(PID.TID 0000.0001) viscC2smag = /* Smagorinsky harmonic viscosity factor (non-dim.) */
(PID.TID 0000.0001)                 0.000000000000000E+00
(PID.TID 0000.0001)     ;
(PID.TID 0000.0001) viscA4  =   /* Lateral biharmonic viscosity ( m^4/s ) */
(PID.TID 0000.0001)                 0.000000000000000E+00
(PID.TID 0000.0001)     ;
(PID.TID 0000.0001) viscA4Max = /* Maximum biharmonic viscosity ( m^2/s ) */
(PID.TID 0000.0001)                 1.000000000000000E+21
(PID.TID 0000.0001)     ;
(PID.TID 0000.0001) viscA4Grid = /* Grid dependent biharmonic viscosity ( non-dim. ) */
(PID.TID 0000.0001)                 0.000000000000000E+00
(PID.TID 0000.0001)     ;
(PID.TID 0000.0001) viscC4leith = /* Leith biharm viscosity factor (on grad(vort), non-dim.)*/
(PID.TID 0000.0001)                 1.500000000000000E+00
(PID.TID 0000.0001)     ;
(PID.TID 0000.0001) viscC4leithD = /* Leith biharm viscosity factor (on grad(div), non-dim.) */
(PID.TID 0000.0001)                 1.500000000000000E+00
(PID.TID 0000.0001)     ;
(PID.TID 0000.0001) viscC4Smag = /* Smagorinsky biharm viscosity factor (non-dim) */
(PID.TID 0000.0001)                 0.000000000000000E+00
(PID.TID 0000.0001)     ;
(PID.TID 0000.0001) no_slip_sides =  /* Viscous BCs: No-slip sides */
(PID.TID 0000.0001)                   T
(PID.TID 0000.0001)     ;
(PID.TID 0000.0001) sideDragFactor = /* side-drag scaling factor (non-dim) */
(PID.TID 0000.0001)                 2.000000000000000E+00
(PID.TID 0000.0001)     ;
(PID.TID 0000.0001) viscArNr = /* vertical profile of vertical viscosity ( m^2/s )*/
(PID.TID 0000.0001)    15 @  1.000000000000000E-03              /* K =  1: 15 */
(PID.TID 0000.0001)     ;
(PID.TID 0000.0001) no_slip_bottom =  /* Viscous BCs: No-slip bottom */
(PID.TID 0000.0001)                   T
(PID.TID 0000.0001)     ;
(PID.TID 0000.0001) bottomDragLinear = /* linear bottom-drag coefficient ( m/s ) */
(PID.TID 0000.0001)                 0.000000000000000E+00
(PID.TID 0000.0001)     ;
(PID.TID 0000.0001) bottomDragQuadratic = /* quadratic bottom-drag coefficient (-) */
(PID.TID 0000.0001)                 2.100000000000000E-03
(PID.TID 0000.0001)     ;
(PID.TID 0000.0001) diffKhT =   /* Laplacian diffusion of heat laterally ( m^2/s ) */
(PID.TID 0000.0001)                 0.000000000000000E+00
(PID.TID 0000.0001)     ;
(PID.TID 0000.0001) diffK4T =   /* Biharmonic diffusion of heat laterally ( m^4/s ) */
(PID.TID 0000.0001)                 0.000000000000000E+00
(PID.TID 0000.0001)     ;
(PID.TID 0000.0001) diffKhS =   /* Laplacian diffusion of salt laterally ( m^2/s ) */
(PID.TID 0000.0001)                 0.000000000000000E+00
(PID.TID 0000.0001)     ;
(PID.TID 0000.0001) diffK4S =   /* Biharmonic diffusion of salt laterally ( m^4/s ) */
(PID.TID 0000.0001)                 0.000000000000000E+00
(PID.TID 0000.0001)     ;
(PID.TID 0000.0001) diffKrNrT = /* vertical profile of vertical diffusion of Temp ( m^2/s )*/
(PID.TID 0000.0001)    15 @  3.000000000000000E-05              /* K =  1: 15 */
(PID.TID 0000.0001)     ;
(PID.TID 0000.0001) diffKrNrS = /* vertical profile of vertical diffusion of Salt ( m^2/s )*/
(PID.TID 0000.0001)    15 @  3.000000000000000E-05              /* K =  1: 15 */
(PID.TID 0000.0001)     ;
(PID.TID 0000.0001) diffKrBL79surf = /* Surface diffusion for Bryan and Lewis 79 ( m^2/s ) */
(PID.TID 0000.0001)                 0.000000000000000E+00
(PID.TID 0000.0001)     ;
(PID.TID 0000.0001) diffKrBL79deep = /* Deep diffusion for Bryan and Lewis 1979 ( m^2/s ) */
(PID.TID 0000.0001)                 0.000000000000000E+00
(PID.TID 0000.0001)     ;
(PID.TID 0000.0001) diffKrBL79scl = /* Depth scale for Bryan and Lewis 1979 ( m ) */
(PID.TID 0000.0001)                 2.000000000000000E+02
(PID.TID 0000.0001)     ;
(PID.TID 0000.0001) diffKrBL79Ho = /* Turning depth for Bryan and Lewis 1979 ( m ) */
(PID.TID 0000.0001)                -2.000000000000000E+03
(PID.TID 0000.0001)     ;
(PID.TID 0000.0001) ivdc_kappa = /* Implicit Vertical Diffusivity for Convection ( m^2/s) */
(PID.TID 0000.0001)                 1.000000000000000E+02
(PID.TID 0000.0001)     ;
(PID.TID 0000.0001) hMixCriteria=  /* Criteria for mixed-layer diagnostic */
(PID.TID 0000.0001)                -8.000000000000000E-01
(PID.TID 0000.0001)     ;
(PID.TID 0000.0001) dRhoSmall =  /* Parameter for mixed-layer diagnostic */
(PID.TID 0000.0001)                 1.000000000000000E-06
(PID.TID 0000.0001)     ;
(PID.TID 0000.0001) hMixSmooth=  /* Smoothing parameter for mixed-layer diagnostic */
(PID.TID 0000.0001)                 0.000000000000000E+00
(PID.TID 0000.0001)     ;
(PID.TID 0000.0001) eosType =  /* Type of Equation of State */
(PID.TID 0000.0001)               'JMD95Z'
(PID.TID 0000.0001)     ;
(PID.TID 0000.0001) tAlpha =   /* Linear EOS thermal expansion coefficient ( 1/oC ) */
(PID.TID 0000.0001)                 1.234567000000000E+05
(PID.TID 0000.0001)     ;
(PID.TID 0000.0001) sBeta =   /* Linear EOS haline contraction coefficient ( 1/psu ) */
(PID.TID 0000.0001)                 1.234567000000000E+05
(PID.TID 0000.0001)     ;
(PID.TID 0000.0001) rhonil =   /* Reference density ( kg/m^3 ) */
(PID.TID 0000.0001)                 1.035000000000000E+03
(PID.TID 0000.0001)     ;
(PID.TID 0000.0001) rhoConst =   /* Reference density ( kg/m^3 ) */
(PID.TID 0000.0001)                 1.035000000000000E+03
(PID.TID 0000.0001)     ;
(PID.TID 0000.0001) rhoFacC = /* normalized Reference density @ cell-Center (-) */
(PID.TID 0000.0001)    15 @  1.000000000000000E+00              /* K =  1: 15 */
(PID.TID 0000.0001)     ;
(PID.TID 0000.0001) rhoFacF = /* normalized Reference density @ W-Interface (-) */
(PID.TID 0000.0001)    16 @  1.000000000000000E+00              /* K =  1: 16 */
(PID.TID 0000.0001)     ;
(PID.TID 0000.0001) rhoConstFresh =   /* Reference density ( kg/m^3 ) */
(PID.TID 0000.0001)                 1.035000000000000E+03
(PID.TID 0000.0001)     ;
(PID.TID 0000.0001) gravity =   /* Gravitational acceleration ( m/s^2 ) */
(PID.TID 0000.0001)                 9.810000000000000E+00
(PID.TID 0000.0001)     ;
(PID.TID 0000.0001) gBaro =   /* Barotropic gravity ( m/s^2 ) */
(PID.TID 0000.0001)                 9.810000000000000E+00
(PID.TID 0000.0001)     ;
(PID.TID 0000.0001) rotationPeriod =   /* Rotation Period ( s ) */
(PID.TID 0000.0001)                 8.640000000000000E+04
(PID.TID 0000.0001)     ;
(PID.TID 0000.0001) omega =   /* Angular velocity ( rad/s ) */
(PID.TID 0000.0001)                 7.272205216643040E-05
(PID.TID 0000.0001)     ;
(PID.TID 0000.0001) f0 =   /* Reference coriolis parameter ( 1/s ) */
(PID.TID 0000.0001)                 1.000000000000000E-04
(PID.TID 0000.0001)     ;
(PID.TID 0000.0001) beta =   /* Beta ( 1/(m.s) ) */
(PID.TID 0000.0001)                 9.999999999999999E-12
(PID.TID 0000.0001)     ;
(PID.TID 0000.0001) fPrime =   /* Second coriolis parameter ( 1/s ) */
(PID.TID 0000.0001)                 0.000000000000000E+00
(PID.TID 0000.0001)     ;
(PID.TID 0000.0001) rigidLid =   /* Rigid lid on/off flag */
(PID.TID 0000.0001)                   F
(PID.TID 0000.0001)     ;
(PID.TID 0000.0001) implicitFreeSurface =   /* Implicit free surface on/off flag */
(PID.TID 0000.0001)                   T
(PID.TID 0000.0001)     ;
(PID.TID 0000.0001) freeSurfFac =   /* Implicit free surface factor */
(PID.TID 0000.0001)                 1.000000000000000E+00
(PID.TID 0000.0001)     ;
(PID.TID 0000.0001) implicSurfPress =  /* Surface Pressure implicit factor (0-1)*/
(PID.TID 0000.0001)                 1.000000000000000E+00
(PID.TID 0000.0001)     ;
(PID.TID 0000.0001) implicDiv2Dflow =  /* Barot. Flow Div. implicit factor (0-1)*/
(PID.TID 0000.0001)                 1.000000000000000E+00
(PID.TID 0000.0001)     ;
(PID.TID 0000.0001) exactConserv =  /* Exact Volume Conservation on/off flag*/
(PID.TID 0000.0001)                   T
(PID.TID 0000.0001)     ;
(PID.TID 0000.0001) linFSConserveTr = /* Tracer correction for Lin Free Surface on/off flag*/
(PID.TID 0000.0001)                   F
(PID.TID 0000.0001)     ;
(PID.TID 0000.0001) uniformLin_PhiSurf = /* use uniform Bo_surf on/off flag*/
(PID.TID 0000.0001)                   T
(PID.TID 0000.0001)     ;
(PID.TID 0000.0001) hFacMin =   /* minimum partial cell factor (hFac) */
(PID.TID 0000.0001)                 5.000000000000000E-02
(PID.TID 0000.0001)     ;
(PID.TID 0000.0001) hFacMinDr = /* minimum partial cell thickness ( m) */
(PID.TID 0000.0001)                 5.000000000000000E-02
(PID.TID 0000.0001)     ;
(PID.TID 0000.0001) nonlinFreeSurf = /* Non-linear Free Surf. options (-1,0,1,2,3)*/
(PID.TID 0000.0001)                       2
(PID.TID 0000.0001)      -1,0= Off ; 1,2,3= On, 2=+rescale gU,gV, 3=+update cg2d solv.
(PID.TID 0000.0001)     ;
(PID.TID 0000.0001) hFacInf =   /* lower threshold for hFac (nonlinFreeSurf only)*/
(PID.TID 0000.0001)                 2.000000000000000E-01
(PID.TID 0000.0001)     ;
(PID.TID 0000.0001) hFacSup =   /* upper threshold for hFac (nonlinFreeSurf only)*/
(PID.TID 0000.0001)                 2.000000000000000E+00
(PID.TID 0000.0001)     ;
(PID.TID 0000.0001) select_rStar = /* r* Vertical coord. options (=0 r coord.; >0 uses r*)*/
(PID.TID 0000.0001)                       0
(PID.TID 0000.0001)     ;
(PID.TID 0000.0001) selectAddFluid = /* option for mass source/sink of fluid (=0: off) */
(PID.TID 0000.0001)                       0
(PID.TID 0000.0001)     ;
(PID.TID 0000.0001) useRealFreshWaterFlux = /* Real Fresh Water Flux on/off flag*/
(PID.TID 0000.0001)                   T
(PID.TID 0000.0001)     ;
(PID.TID 0000.0001) temp_EvPrRn = /* Temp. of Evap/Prec/R (UNSET=use local T)(oC)*/
(PID.TID 0000.0001)                 1.234567000000000E+05
(PID.TID 0000.0001)     ;
(PID.TID 0000.0001) salt_EvPrRn = /* Salin. of Evap/Prec/R (UNSET=use local S)(psu)*/
(PID.TID 0000.0001)                 0.000000000000000E+00
(PID.TID 0000.0001)     ;
(PID.TID 0000.0001) temp_addMass = /* Temp. of addMass array (UNSET=use local T)(oC)*/
(PID.TID 0000.0001)                 1.234567000000000E+05
(PID.TID 0000.0001)     ;
(PID.TID 0000.0001) salt_addMass = /* Salin. of addMass array (UNSET=use local S)(psu)*/
(PID.TID 0000.0001)                 0.000000000000000E+00
(PID.TID 0000.0001)     ;
(PID.TID 0000.0001) use3Dsolver = /* use 3-D pressure solver on/off flag */
(PID.TID 0000.0001)                   F
(PID.TID 0000.0001)     ;
(PID.TID 0000.0001) nonHydrostatic =  /* Non-Hydrostatic on/off flag */
(PID.TID 0000.0001)                   F
(PID.TID 0000.0001)     ;
(PID.TID 0000.0001) nh_Am2 = /* Non-Hydrostatic terms scaling factor */
(PID.TID 0000.0001)                 1.000000000000000E+00
(PID.TID 0000.0001)     ;
(PID.TID 0000.0001) implicitNHPress = /* Non-Hyd Pressure implicit factor (0-1)*/
(PID.TID 0000.0001)                 1.000000000000000E+00
(PID.TID 0000.0001)     ;
(PID.TID 0000.0001) selectNHfreeSurf = /* Non-Hyd (free-)Surface option */
(PID.TID 0000.0001)                       0
(PID.TID 0000.0001)     ;
(PID.TID 0000.0001) quasiHydrostatic = /* Quasi-Hydrostatic on/off flag */
(PID.TID 0000.0001)                   F
(PID.TID 0000.0001)     ;
(PID.TID 0000.0001) calc_wVelocity = /* vertical velocity calculation on/off flag */
(PID.TID 0000.0001)                   T
(PID.TID 0000.0001)     ;
(PID.TID 0000.0001) momStepping =  /* Momentum equation on/off flag */
(PID.TID 0000.0001)                   T
(PID.TID 0000.0001)     ;
(PID.TID 0000.0001) vectorInvariantMomentum= /* Vector-Invariant Momentum on/off */
(PID.TID 0000.0001)                   T
(PID.TID 0000.0001)     ;
(PID.TID 0000.0001) momAdvection =  /* Momentum advection on/off flag */
(PID.TID 0000.0001)                   T
(PID.TID 0000.0001)     ;
(PID.TID 0000.0001) momViscosity =  /* Momentum viscosity on/off flag */
(PID.TID 0000.0001)                   T
(PID.TID 0000.0001)     ;
(PID.TID 0000.0001) momImplVertAdv= /* Momentum implicit vert. advection on/off*/
(PID.TID 0000.0001)                   F
(PID.TID 0000.0001)     ;
(PID.TID 0000.0001) implicitViscosity = /* Implicit viscosity on/off flag */
(PID.TID 0000.0001)                   F
(PID.TID 0000.0001)     ;
(PID.TID 0000.0001) metricTerms =  /* metric-Terms on/off flag */
(PID.TID 0000.0001)                   T
(PID.TID 0000.0001)     ;
(PID.TID 0000.0001) useNHMTerms = /* Non-Hydrostatic Metric-Terms on/off */
(PID.TID 0000.0001)                   F
(PID.TID 0000.0001)     ;
(PID.TID 0000.0001) selectCoriMap = /* Coriolis Map options (0,1,2,3)*/
(PID.TID 0000.0001)                       2
(PID.TID 0000.0001)     0= f-Plane ; 1= Beta-Plane ; 2= Spherical ; 3= read from file
(PID.TID 0000.0001)     ;
(PID.TID 0000.0001) use3dCoriolis = /* 3-D Coriolis on/off flag */
(PID.TID 0000.0001)                   F
(PID.TID 0000.0001)     ;
(PID.TID 0000.0001) useCoriolis =  /* Coriolis on/off flag */
(PID.TID 0000.0001)                   T
(PID.TID 0000.0001)     ;
(PID.TID 0000.0001) useCDscheme =  /* CD scheme on/off flag */
(PID.TID 0000.0001)                   T
(PID.TID 0000.0001)     ;
(PID.TID 0000.0001) useEnergyConservingCoriolis= /* Flx-Form Coriolis scheme flag */
(PID.TID 0000.0001)                   F
(PID.TID 0000.0001)     ;
(PID.TID 0000.0001) useJamartWetPoints= /* Coriolis WetPoints method flag */
(PID.TID 0000.0001)                   F
(PID.TID 0000.0001)     ;
(PID.TID 0000.0001) useJamartMomAdv= /* V.I Non-linear terms Jamart flag */
(PID.TID 0000.0001)                   F
(PID.TID 0000.0001)     ;
(PID.TID 0000.0001) useAbsVorticity= /* V.I Works with f+zeta in Coriolis */
(PID.TID 0000.0001)                   F
(PID.TID 0000.0001)     ;
(PID.TID 0000.0001) selectVortScheme= /* V.I Scheme selector for Vorticity-Term */
(PID.TID 0000.0001)                       1
(PID.TID 0000.0001)    = 0 : enstrophy (Shallow-Water Eq.) conserving scheme by Sadourny, JAS 75
(PID.TID 0000.0001)    = 1 : same as 0 with modified hFac
(PID.TID 0000.0001)    = 2 : energy conserving scheme (used by Sadourny in JAS 75 paper)
(PID.TID 0000.0001)    = 3 : energy (general) and enstrophy (2D, nonDiv.) conserving scheme
(PID.TID 0000.0001)          from Sadourny (Burridge & Haseler, ECMWF Rep.4, 1977)
(PID.TID 0000.0001)     ;
(PID.TID 0000.0001) upwindVorticity= /* V.I Upwind bias vorticity flag */
(PID.TID 0000.0001)                   F
(PID.TID 0000.0001)     ;
(PID.TID 0000.0001) highOrderVorticity= /* V.I High order vort. advect. flag */
(PID.TID 0000.0001)                   F
(PID.TID 0000.0001)     ;
(PID.TID 0000.0001) upwindShear= /* V.I Upwind vertical Shear advection flag */
(PID.TID 0000.0001)                   F
(PID.TID 0000.0001)     ;
(PID.TID 0000.0001) selectKEscheme= /* V.I Kinetic Energy scheme selector */
(PID.TID 0000.0001)                       0
(PID.TID 0000.0001)     ;
(PID.TID 0000.0001) momForcing =  /* Momentum forcing on/off flag */
(PID.TID 0000.0001)                   T
(PID.TID 0000.0001)     ;
(PID.TID 0000.0001) momPressureForcing =  /* Momentum pressure term on/off flag */
(PID.TID 0000.0001)                   T
(PID.TID 0000.0001)     ;
(PID.TID 0000.0001) implicitIntGravWave= /* Implicit Internal Gravity Wave flag */
(PID.TID 0000.0001)                   F
(PID.TID 0000.0001)     ;
(PID.TID 0000.0001) staggerTimeStep =   /* Stagger time stepping on/off flag */
(PID.TID 0000.0001)                   T
(PID.TID 0000.0001)     ;
(PID.TID 0000.0001) multiDimAdvection =   /* enable/disable Multi-Dim Advection */
(PID.TID 0000.0001)                   T
(PID.TID 0000.0001)     ;
(PID.TID 0000.0001) useMultiDimAdvec =   /* Multi-Dim Advection is/is-not used */
(PID.TID 0000.0001)                   T
(PID.TID 0000.0001)     ;
(PID.TID 0000.0001) implicitDiffusion = /* Implicit Diffusion on/off flag */
(PID.TID 0000.0001)                   T
(PID.TID 0000.0001)     ;
(PID.TID 0000.0001) tempStepping =  /* Temperature equation on/off flag */
(PID.TID 0000.0001)                   T
(PID.TID 0000.0001)     ;
(PID.TID 0000.0001) tempAdvection=  /* Temperature advection on/off flag */
(PID.TID 0000.0001)                   T
(PID.TID 0000.0001)     ;
(PID.TID 0000.0001) tempImplVertAdv = /* Temp. implicit vert. advection on/off */
(PID.TID 0000.0001)                   F
(PID.TID 0000.0001)     ;
(PID.TID 0000.0001) tempForcing  =  /* Temperature forcing on/off flag */
(PID.TID 0000.0001)                   T
(PID.TID 0000.0001)     ;
(PID.TID 0000.0001) tempIsActiveTr = /* Temp. is a dynamically Active Tracer */
(PID.TID 0000.0001)                   T
(PID.TID 0000.0001)     ;
(PID.TID 0000.0001) saltStepping =  /* Salinity equation on/off flag */
(PID.TID 0000.0001)                   T
(PID.TID 0000.0001)     ;
(PID.TID 0000.0001) saltAdvection=  /* Salinity advection on/off flag */
(PID.TID 0000.0001)                   T
(PID.TID 0000.0001)     ;
(PID.TID 0000.0001) saltImplVertAdv = /* Sali. implicit vert. advection on/off */
(PID.TID 0000.0001)                   F
(PID.TID 0000.0001)     ;
(PID.TID 0000.0001) saltForcing  =  /* Salinity forcing on/off flag */
(PID.TID 0000.0001)                   T
(PID.TID 0000.0001)     ;
(PID.TID 0000.0001) saltIsActiveTr = /* Salt  is a dynamically Active Tracer */
(PID.TID 0000.0001)                   T
(PID.TID 0000.0001)     ;
(PID.TID 0000.0001)  readBinaryPrec = /* Precision used for reading binary files */
(PID.TID 0000.0001)                      32
(PID.TID 0000.0001)     ;
(PID.TID 0000.0001) writeBinaryPrec = /* Precision used for writing binary files */
(PID.TID 0000.0001)                      32
(PID.TID 0000.0001)     ;
(PID.TID 0000.0001)  globalFiles = /* write "global" (=not per tile) files */
(PID.TID 0000.0001)                   F
(PID.TID 0000.0001)     ;
(PID.TID 0000.0001)  useSingleCpuIO = /* only master MPI process does I/O */
(PID.TID 0000.0001)                   F
(PID.TID 0000.0001)     ;
(PID.TID 0000.0001) /* debLev[*]  : level of debug & auxiliary message printing */
(PID.TID 0000.0001) debLevZero =  0 ; /* level of disabled aux. msg printing */
(PID.TID 0000.0001)    debLevA =  1 ; /* level of minimum  aux. msg printing */
(PID.TID 0000.0001)    debLevB =  2 ; /* level of low aux. print (report read-file opening)*/
(PID.TID 0000.0001)    debLevC =  3 ; /* level of moderate debug prt (most pkgs debug msg) */
(PID.TID 0000.0001)    debLevD =  4 ; /* level of enhanced debug prt (add DEBUG_STATS prt) */
(PID.TID 0000.0001)    debLevE =  5 ; /* level of extensive debug printing */
(PID.TID 0000.0001) debugLevel =  /* select debug printing level */
(PID.TID 0000.0001)                       1
(PID.TID 0000.0001)     ;
(PID.TID 0000.0001) //
(PID.TID 0000.0001) // Elliptic solver(s) paramters ( PARM02 in namelist )
(PID.TID 0000.0001) //
(PID.TID 0000.0001) cg2dMaxIters =   /* Upper limit on 2d con. grad iterations  */
(PID.TID 0000.0001)                     500
(PID.TID 0000.0001)     ;
(PID.TID 0000.0001) cg2dChkResFreq =   /* 2d con. grad convergence test frequency */
(PID.TID 0000.0001)                       1
(PID.TID 0000.0001)     ;
(PID.TID 0000.0001) cg2dTargetResidual =   /* 2d con. grad target residual  */
(PID.TID 0000.0001)                 1.000000000000000E-13
(PID.TID 0000.0001)     ;
(PID.TID 0000.0001) cg2dTargetResWunit =   /* CG2d target residual [W units] */
(PID.TID 0000.0001)                -1.000000000000000E+00
(PID.TID 0000.0001)     ;
(PID.TID 0000.0001) cg2dPreCondFreq =   /* Freq. for updating cg2d preconditioner */
(PID.TID 0000.0001)                       1
(PID.TID 0000.0001)     ;
(PID.TID 0000.0001) useSRCGSolver =  /* use single reduction CG solver(s) */
(PID.TID 0000.0001)                   F
(PID.TID 0000.0001)     ;
(PID.TID 0000.0001) printResidualFreq = /* Freq. for printing CG residual */
(PID.TID 0000.0001)                       0
(PID.TID 0000.0001)     ;
(PID.TID 0000.0001) //
(PID.TID 0000.0001) // Time stepping paramters ( PARM03 in namelist )
(PID.TID 0000.0001) //
(PID.TID 0000.0001) deltaTmom =   /* Momentum equation timestep ( s ) */
(PID.TID 0000.0001)                 1.200000000000000E+03
(PID.TID 0000.0001)     ;
(PID.TID 0000.0001) deltaTfreesurf = /* FreeSurface equation timestep ( s ) */
(PID.TID 0000.0001)                 1.200000000000000E+03
(PID.TID 0000.0001)     ;
(PID.TID 0000.0001) dTtracerLev =  /* Tracer equation timestep ( s ) */
(PID.TID 0000.0001)    15 @  4.320000000000000E+04              /* K =  1: 15 */
(PID.TID 0000.0001)     ;
(PID.TID 0000.0001) deltaTClock  =   /* Model clock timestep ( s ) */
(PID.TID 0000.0001)                 4.320000000000000E+04
(PID.TID 0000.0001)     ;
(PID.TID 0000.0001) cAdjFreq =   /* Convective adjustment interval ( s ) */
(PID.TID 0000.0001)                 0.000000000000000E+00
(PID.TID 0000.0001)     ;
(PID.TID 0000.0001) momForcingOutAB = /* =1: take Momentum Forcing out of Adams-Bash. stepping */
(PID.TID 0000.0001)                       0
(PID.TID 0000.0001)     ;
(PID.TID 0000.0001) tracForcingOutAB = /* =1: take T,S,pTr Forcing out of Adams-Bash. stepping */
(PID.TID 0000.0001)                       0
(PID.TID 0000.0001)     ;
(PID.TID 0000.0001) momDissip_In_AB = /* put Dissipation Tendency in Adams-Bash. stepping */
(PID.TID 0000.0001)                   T
(PID.TID 0000.0001)     ;
(PID.TID 0000.0001) doAB_onGtGs = /* apply AB on Tendencies (rather than on T,S)*/
(PID.TID 0000.0001)                   T
(PID.TID 0000.0001)     ;
(PID.TID 0000.0001) abEps =   /* Adams-Bashforth-2 stabilizing weight */
(PID.TID 0000.0001)                 1.000000000000000E-01
(PID.TID 0000.0001)     ;
(PID.TID 0000.0001) tauCD =   /* CD coupling time-scale ( s ) */
(PID.TID 0000.0001)                 3.214280000000000E+05
(PID.TID 0000.0001)     ;
(PID.TID 0000.0001) rCD =   /* Normalised CD coupling parameter */
(PID.TID 0000.0001)                 9.962666600296178E-01
(PID.TID 0000.0001)     ;
(PID.TID 0000.0001) epsAB_CD = /* AB-2 stabilizing weight for CD-scheme*/
(PID.TID 0000.0001)                 1.000000000000000E-01
(PID.TID 0000.0001)     ;
(PID.TID 0000.0001) pickupStrictlyMatch= /* stop if pickup do not strictly match */
(PID.TID 0000.0001)                   T
(PID.TID 0000.0001)     ;
(PID.TID 0000.0001) nIter0   =   /* Run starting timestep number */
(PID.TID 0000.0001)                       0
(PID.TID 0000.0001)     ;
(PID.TID 0000.0001) nTimeSteps = /* Number of timesteps */
(PID.TID 0000.0001)                      10
(PID.TID 0000.0001)     ;
(PID.TID 0000.0001) nEndIter =   /* Run ending timestep number */
(PID.TID 0000.0001)                      10
(PID.TID 0000.0001)     ;
(PID.TID 0000.0001) baseTime =   /* Model base time ( s ) */
(PID.TID 0000.0001)                 0.000000000000000E+00
(PID.TID 0000.0001)     ;
(PID.TID 0000.0001) startTime =  /* Run start time ( s ) */
(PID.TID 0000.0001)                 0.000000000000000E+00
(PID.TID 0000.0001)     ;
(PID.TID 0000.0001) endTime  =   /* Integration ending time ( s ) */
(PID.TID 0000.0001)                 4.320000000000000E+05
(PID.TID 0000.0001)     ;
(PID.TID 0000.0001) pChkPtFreq = /* Permanent restart/pickup file interval ( s ) */
(PID.TID 0000.0001)                 3.110400000000000E+08
(PID.TID 0000.0001)     ;
(PID.TID 0000.0001) chkPtFreq  = /* Rolling restart/pickup file interval ( s ) */
(PID.TID 0000.0001)                 0.000000000000000E+00
(PID.TID 0000.0001)     ;
(PID.TID 0000.0001) pickup_write_mdsio =   /* Model IO flag. */
(PID.TID 0000.0001)                   T
(PID.TID 0000.0001)     ;
(PID.TID 0000.0001) pickup_read_mdsio =   /* Model IO flag. */
(PID.TID 0000.0001)                   T
(PID.TID 0000.0001)     ;
(PID.TID 0000.0001) pickup_write_mnc =   /* Model IO flag. */
(PID.TID 0000.0001)                   F
(PID.TID 0000.0001)     ;
(PID.TID 0000.0001) pickup_read_mnc =   /* Model IO flag. */
(PID.TID 0000.0001)                   F
(PID.TID 0000.0001)     ;
(PID.TID 0000.0001) pickup_write_immed =   /* Model IO flag. */
(PID.TID 0000.0001)                   F
(PID.TID 0000.0001)     ;
(PID.TID 0000.0001) writePickupAtEnd =   /* Model IO flag. */
(PID.TID 0000.0001)                   T
(PID.TID 0000.0001)     ;
(PID.TID 0000.0001) dumpFreq =   /* Model state write out interval ( s ). */
(PID.TID 0000.0001)                 8.640000000000000E+05
(PID.TID 0000.0001)     ;
(PID.TID 0000.0001) dumpInitAndLast= /* write out Initial & Last iter. model state */
(PID.TID 0000.0001)                   T
(PID.TID 0000.0001)     ;
(PID.TID 0000.0001) snapshot_mdsio =   /* Model IO flag. */
(PID.TID 0000.0001)                   F
(PID.TID 0000.0001)     ;
(PID.TID 0000.0001) snapshot_mnc =   /* Model IO flag. */
(PID.TID 0000.0001)                   T
(PID.TID 0000.0001)     ;
(PID.TID 0000.0001) monitorFreq =   /* Monitor output interval ( s ). */
(PID.TID 0000.0001)                 1.000000000000000E+00
(PID.TID 0000.0001)     ;
(PID.TID 0000.0001) monitorSelect = /* select group of variables to monitor */
(PID.TID 0000.0001)                       3
(PID.TID 0000.0001)     ;
(PID.TID 0000.0001) monitor_stdio =   /* Model IO flag. */
(PID.TID 0000.0001)                   T
(PID.TID 0000.0001)     ;
(PID.TID 0000.0001) monitor_mnc =   /* Model IO flag. */
(PID.TID 0000.0001)                   F
(PID.TID 0000.0001)     ;
(PID.TID 0000.0001) externForcingPeriod =   /* forcing period (s) */
(PID.TID 0000.0001)                 2.592000000000000E+06
(PID.TID 0000.0001)     ;
(PID.TID 0000.0001) externForcingCycle =   /* period of the cyle (s). */
(PID.TID 0000.0001)                 3.110400000000000E+07
(PID.TID 0000.0001)     ;
(PID.TID 0000.0001) tauThetaClimRelax =   /* relaxation time scale (s) */
(PID.TID 0000.0001)                 5.184000000000000E+06
(PID.TID 0000.0001)     ;
(PID.TID 0000.0001) tauSaltClimRelax =   /* relaxation time scale (s) */
(PID.TID 0000.0001)                 1.555200000000000E+07
(PID.TID 0000.0001)     ;
(PID.TID 0000.0001) latBandClimRelax =   /* max. Lat. where relaxation */
(PID.TID 0000.0001)                 1.800000000000000E+02
(PID.TID 0000.0001)     ;
(PID.TID 0000.0001) //
(PID.TID 0000.0001) // Gridding paramters ( PARM04 in namelist )
(PID.TID 0000.0001) //
(PID.TID 0000.0001) usingCartesianGrid = /* Cartesian coordinates flag ( True/False ) */
(PID.TID 0000.0001)                   F
(PID.TID 0000.0001)     ;
(PID.TID 0000.0001) usingCylindricalGrid = /* Cylindrical coordinates flag ( True/False ) */
(PID.TID 0000.0001)                   F
(PID.TID 0000.0001)     ;
(PID.TID 0000.0001) usingSphericalPolarGrid = /* Spherical coordinates flag ( True/False ) */
(PID.TID 0000.0001)                   T
(PID.TID 0000.0001)     ;
(PID.TID 0000.0001) usingCurvilinearGrid = /* Curvilinear coordinates flag ( True/False ) */
(PID.TID 0000.0001)                   F
(PID.TID 0000.0001)     ;
(PID.TID 0000.0001) selectSigmaCoord = /* Hybrid-Sigma Vert. Coordinate option */
(PID.TID 0000.0001)                       0
(PID.TID 0000.0001)     ;
(PID.TID 0000.0001) Ro_SeaLevel = /* r(1) ( units of r ==  m ) */
(PID.TID 0000.0001)                 0.000000000000000E+00
(PID.TID 0000.0001)     ;
(PID.TID 0000.0001) rSigmaBnd = /* r/sigma transition ( units of r ==  m ) */
(PID.TID 0000.0001)                 1.234567000000000E+05
(PID.TID 0000.0001)     ;
(PID.TID 0000.0001) rkSign =   /* index orientation relative to vertical coordinate */
(PID.TID 0000.0001)                -1.000000000000000E+00
(PID.TID 0000.0001)     ;
(PID.TID 0000.0001) gravitySign = /* gravity orientation relative to vertical coordinate */
(PID.TID 0000.0001)                -1.000000000000000E+00
(PID.TID 0000.0001)     ;
(PID.TID 0000.0001) mass2rUnit = /* convert mass per unit area [kg/m2] to r-units [m] */
(PID.TID 0000.0001)                 9.661835748792270E-04
(PID.TID 0000.0001)     ;
(PID.TID 0000.0001) rUnit2mass = /* convert r-units [m] to mass per unit area [kg/m2] */
(PID.TID 0000.0001)                 1.035000000000000E+03
(PID.TID 0000.0001)     ;
(PID.TID 0000.0001) drC =   /* C spacing ( units of r ) */
(PID.TID 0000.0001)                 2.500000000000000E+01,      /* K =  1 */
(PID.TID 0000.0001)                 6.000000000000000E+01,      /* K =  2 */
(PID.TID 0000.0001)                 8.500000000000000E+01,      /* K =  3 */
(PID.TID 0000.0001)                 1.200000000000000E+02,      /* K =  4 */
(PID.TID 0000.0001)                 1.650000000000000E+02,      /* K =  5 */
(PID.TID 0000.0001)                 2.150000000000000E+02,      /* K =  6 */
(PID.TID 0000.0001)                 2.650000000000000E+02,      /* K =  7 */
(PID.TID 0000.0001)                 3.150000000000000E+02,      /* K =  8 */
(PID.TID 0000.0001)                 3.650000000000000E+02,      /* K =  9 */
(PID.TID 0000.0001)                 4.150000000000000E+02,      /* K = 10 */
(PID.TID 0000.0001)                 4.650000000000000E+02,      /* K = 11 */
(PID.TID 0000.0001)                 5.150000000000000E+02,      /* K = 12 */
(PID.TID 0000.0001)                 5.650000000000000E+02,      /* K = 13 */
(PID.TID 0000.0001)                 6.150000000000000E+02,      /* K = 14 */
(PID.TID 0000.0001)                 6.650000000000000E+02       /* K = 15 */
(PID.TID 0000.0001)     ;
(PID.TID 0000.0001) drF =   /* W spacing ( units of r ) */
(PID.TID 0000.0001)                 5.000000000000000E+01,      /* K =  1 */
(PID.TID 0000.0001)                 7.000000000000000E+01,      /* K =  2 */
(PID.TID 0000.0001)                 1.000000000000000E+02,      /* K =  3 */
(PID.TID 0000.0001)                 1.400000000000000E+02,      /* K =  4 */
(PID.TID 0000.0001)                 1.900000000000000E+02,      /* K =  5 */
(PID.TID 0000.0001)                 2.400000000000000E+02,      /* K =  6 */
(PID.TID 0000.0001)                 2.900000000000000E+02,      /* K =  7 */
(PID.TID 0000.0001)                 3.400000000000000E+02,      /* K =  8 */
(PID.TID 0000.0001)                 3.900000000000000E+02,      /* K =  9 */
(PID.TID 0000.0001)                 4.400000000000000E+02,      /* K = 10 */
(PID.TID 0000.0001)                 4.900000000000000E+02,      /* K = 11 */
(PID.TID 0000.0001)                 5.400000000000000E+02,      /* K = 12 */
(PID.TID 0000.0001)                 5.900000000000000E+02,      /* K = 13 */
(PID.TID 0000.0001)                 6.400000000000000E+02,      /* K = 14 */
(PID.TID 0000.0001)                 6.900000000000000E+02       /* K = 15 */
(PID.TID 0000.0001)     ;
(PID.TID 0000.0001) delX = /* U spacing ( m - cartesian, degrees - spherical ) */
(PID.TID 0000.0001)    90 @  4.000000000000000E+00              /* I =  1: 90 */
(PID.TID 0000.0001)     ;
(PID.TID 0000.0001) delY = /* V spacing ( m - cartesian, degrees - spherical ) */
(PID.TID 0000.0001)    40 @  4.000000000000000E+00              /* J =  1: 40 */
(PID.TID 0000.0001)     ;
(PID.TID 0000.0001) xgOrigin = /* X-axis origin of West  edge (cartesian: m, lat-lon: deg.) */
(PID.TID 0000.0001)                 0.000000000000000E+00
(PID.TID 0000.0001)     ;
(PID.TID 0000.0001) ygOrigin = /* Y-axis origin of South edge (cartesian: m, lat-lon: deg.) */
(PID.TID 0000.0001)                -8.000000000000000E+01
(PID.TID 0000.0001)     ;
(PID.TID 0000.0001) rSphere =  /* Radius ( ignored - cartesian, m - spherical ) */
(PID.TID 0000.0001)                 6.370000000000000E+06
(PID.TID 0000.0001)     ;
(PID.TID 0000.0001) deepAtmosphere = /* Deep/Shallow Atmosphere flag (True/False) */
(PID.TID 0000.0001)                   F
(PID.TID 0000.0001)     ;
(PID.TID 0000.0001) xC =  /* xC(:,1,:,1) : P-point X coord ( deg. or m if cartesian) */
(PID.TID 0000.0001)                 2.000000000000000E+00,      /* I =  1 */
(PID.TID 0000.0001)                 6.000000000000000E+00,      /* I =  2 */
(PID.TID 0000.0001)                 1.000000000000000E+01,      /* I =  3 */
(PID.TID 0000.0001)      . . .
(PID.TID 0000.0001)                 8.200000000000000E+01,      /* I = 21 */
(PID.TID 0000.0001)                 8.600000000000000E+01,      /* I = 22 */
(PID.TID 0000.0001)                 9.000000000000000E+01,      /* I = 23 */
(PID.TID 0000.0001)                 9.400000000000000E+01,      /* I = 24 */
(PID.TID 0000.0001)                 9.800000000000000E+01,      /* I = 25 */
(PID.TID 0000.0001)                 1.020000000000000E+02,      /* I = 26 */
(PID.TID 0000.0001)      . . .
(PID.TID 0000.0001)                 1.700000000000000E+02,      /* I = 43 */
(PID.TID 0000.0001)                 1.740000000000000E+02,      /* I = 44 */
(PID.TID 0000.0001)                 1.780000000000000E+02,      /* I = 45 */
(PID.TID 0000.0001)                 1.820000000000000E+02,      /* I = 46 */
(PID.TID 0000.0001)                 1.860000000000000E+02,      /* I = 47 */
(PID.TID 0000.0001)                 1.900000000000000E+02,      /* I = 48 */
(PID.TID 0000.0001)      . . .
(PID.TID 0000.0001)                 2.580000000000000E+02,      /* I = 65 */
(PID.TID 0000.0001)                 2.620000000000000E+02,      /* I = 66 */
(PID.TID 0000.0001)                 2.660000000000000E+02,      /* I = 67 */
(PID.TID 0000.0001)                 2.700000000000000E+02,      /* I = 68 */
(PID.TID 0000.0001)                 2.740000000000000E+02,      /* I = 69 */
(PID.TID 0000.0001)                 2.780000000000000E+02,      /* I = 70 */
(PID.TID 0000.0001)      . . .
(PID.TID 0000.0001)                 3.500000000000000E+02,      /* I = 88 */
(PID.TID 0000.0001)                 3.540000000000000E+02,      /* I = 89 */
(PID.TID 0000.0001)                 3.580000000000000E+02       /* I = 90 */
(PID.TID 0000.0001)     ;
(PID.TID 0000.0001) yC =  /* yC(1,:,1,:) : P-point Y coord ( deg. or m if cartesian) */
(PID.TID 0000.0001)                -7.800000000000000E+01,      /* J =  1 */
(PID.TID 0000.0001)                -7.400000000000000E+01,      /* J =  2 */
(PID.TID 0000.0001)                -7.000000000000000E+01,      /* J =  3 */
(PID.TID 0000.0001)                -6.600000000000000E+01,      /* J =  4 */
(PID.TID 0000.0001)                -6.200000000000000E+01,      /* J =  5 */
(PID.TID 0000.0001)                -5.800000000000000E+01,      /* J =  6 */
(PID.TID 0000.0001)                -5.400000000000000E+01,      /* J =  7 */
(PID.TID 0000.0001)                -5.000000000000000E+01,      /* J =  8 */
(PID.TID 0000.0001)                -4.600000000000000E+01,      /* J =  9 */
(PID.TID 0000.0001)                -4.200000000000000E+01,      /* J = 10 */
(PID.TID 0000.0001)                -3.800000000000000E+01,      /* J = 11 */
(PID.TID 0000.0001)                -3.400000000000000E+01,      /* J = 12 */
(PID.TID 0000.0001)                -3.000000000000000E+01,      /* J = 13 */
(PID.TID 0000.0001)                -2.600000000000000E+01,      /* J = 14 */
(PID.TID 0000.0001)                -2.200000000000000E+01,      /* J = 15 */
(PID.TID 0000.0001)                -1.800000000000000E+01,      /* J = 16 */
(PID.TID 0000.0001)                -1.400000000000000E+01,      /* J = 17 */
(PID.TID 0000.0001)                -1.000000000000000E+01,      /* J = 18 */
(PID.TID 0000.0001)                -6.000000000000000E+00,      /* J = 19 */
(PID.TID 0000.0001)                -2.000000000000000E+00,      /* J = 20 */
(PID.TID 0000.0001)                 2.000000000000000E+00,      /* J = 21 */
(PID.TID 0000.0001)                 6.000000000000000E+00,      /* J = 22 */
(PID.TID 0000.0001)                 1.000000000000000E+01,      /* J = 23 */
(PID.TID 0000.0001)                 1.400000000000000E+01,      /* J = 24 */
(PID.TID 0000.0001)                 1.800000000000000E+01,      /* J = 25 */
(PID.TID 0000.0001)                 2.200000000000000E+01,      /* J = 26 */
(PID.TID 0000.0001)                 2.600000000000000E+01,      /* J = 27 */
(PID.TID 0000.0001)                 3.000000000000000E+01,      /* J = 28 */
(PID.TID 0000.0001)                 3.400000000000000E+01,      /* J = 29 */
(PID.TID 0000.0001)                 3.800000000000000E+01,      /* J = 30 */
(PID.TID 0000.0001)                 4.200000000000000E+01,      /* J = 31 */
(PID.TID 0000.0001)                 4.600000000000000E+01,      /* J = 32 */
(PID.TID 0000.0001)                 5.000000000000000E+01,      /* J = 33 */
(PID.TID 0000.0001)                 5.400000000000000E+01,      /* J = 34 */
(PID.TID 0000.0001)                 5.800000000000000E+01,      /* J = 35 */
(PID.TID 0000.0001)                 6.200000000000000E+01,      /* J = 36 */
(PID.TID 0000.0001)                 6.600000000000000E+01,      /* J = 37 */
(PID.TID 0000.0001)                 7.000000000000000E+01,      /* J = 38 */
(PID.TID 0000.0001)                 7.400000000000000E+01,      /* J = 39 */
(PID.TID 0000.0001)                 7.800000000000000E+01       /* J = 40 */
(PID.TID 0000.0001)     ;
(PID.TID 0000.0001) rcoord = /* P-point R coordinate (  units of r ) */
(PID.TID 0000.0001)                -2.500000000000000E+01,      /* K =  1 */
(PID.TID 0000.0001)                -8.500000000000000E+01,      /* K =  2 */
(PID.TID 0000.0001)                -1.700000000000000E+02,      /* K =  3 */
(PID.TID 0000.0001)                -2.900000000000000E+02,      /* K =  4 */
(PID.TID 0000.0001)                -4.550000000000000E+02,      /* K =  5 */
(PID.TID 0000.0001)                -6.700000000000000E+02,      /* K =  6 */
(PID.TID 0000.0001)                -9.350000000000000E+02,      /* K =  7 */
(PID.TID 0000.0001)                -1.250000000000000E+03,      /* K =  8 */
(PID.TID 0000.0001)                -1.615000000000000E+03,      /* K =  9 */
(PID.TID 0000.0001)                -2.030000000000000E+03,      /* K = 10 */
(PID.TID 0000.0001)                -2.495000000000000E+03,      /* K = 11 */
(PID.TID 0000.0001)                -3.010000000000000E+03,      /* K = 12 */
(PID.TID 0000.0001)                -3.575000000000000E+03,      /* K = 13 */
(PID.TID 0000.0001)                -4.190000000000000E+03,      /* K = 14 */
(PID.TID 0000.0001)                -4.855000000000000E+03       /* K = 15 */
(PID.TID 0000.0001)     ;
(PID.TID 0000.0001) rF =   /* W-Interf. R coordinate (  units of r ) */
(PID.TID 0000.0001)                 0.000000000000000E+00,      /* K =  1 */
(PID.TID 0000.0001)                -5.000000000000000E+01,      /* K =  2 */
(PID.TID 0000.0001)                -1.200000000000000E+02,      /* K =  3 */
(PID.TID 0000.0001)                -2.200000000000000E+02,      /* K =  4 */
(PID.TID 0000.0001)                -3.600000000000000E+02,      /* K =  5 */
(PID.TID 0000.0001)                -5.500000000000000E+02,      /* K =  6 */
(PID.TID 0000.0001)                -7.900000000000000E+02,      /* K =  7 */
(PID.TID 0000.0001)                -1.080000000000000E+03,      /* K =  8 */
(PID.TID 0000.0001)                -1.420000000000000E+03,      /* K =  9 */
(PID.TID 0000.0001)                -1.810000000000000E+03,      /* K = 10 */
(PID.TID 0000.0001)                -2.250000000000000E+03,      /* K = 11 */
(PID.TID 0000.0001)                -2.740000000000000E+03,      /* K = 12 */
(PID.TID 0000.0001)                -3.280000000000000E+03,      /* K = 13 */
(PID.TID 0000.0001)                -3.870000000000000E+03,      /* K = 14 */
(PID.TID 0000.0001)                -4.510000000000000E+03,      /* K = 15 */
(PID.TID 0000.0001)                -5.200000000000000E+03       /* K = 16 */
(PID.TID 0000.0001)     ;
(PID.TID 0000.0001) deepFacC = /* deep-model grid factor @ cell-Center (-) */
(PID.TID 0000.0001)    15 @  1.000000000000000E+00              /* K =  1: 15 */
(PID.TID 0000.0001)     ;
(PID.TID 0000.0001) deepFacF = /* deep-model grid factor @ W-Interface (-) */
(PID.TID 0000.0001)    16 @  1.000000000000000E+00              /* K =  1: 16 */
(PID.TID 0000.0001)     ;
(PID.TID 0000.0001) rVel2wUnit = /* convert units: rVel -> wSpeed (=1 if z-coord)*/
(PID.TID 0000.0001)    16 @  1.000000000000000E+00              /* K =  1: 16 */
(PID.TID 0000.0001)     ;
(PID.TID 0000.0001) wUnit2rVel = /* convert units: wSpeed -> rVel (=1 if z-coord)*/
(PID.TID 0000.0001)    16 @  1.000000000000000E+00              /* K =  1: 16 */
(PID.TID 0000.0001)     ;
(PID.TID 0000.0001) dBdrRef = /* Vertical grad. of reference buoyancy [(m/s/r)^2] */
(PID.TID 0000.0001)    15 @  0.000000000000000E+00              /* K =  1: 15 */
(PID.TID 0000.0001)     ;
(PID.TID 0000.0001) rotateGrid = /* use rotated grid ( True/False ) */
(PID.TID 0000.0001)                   F
(PID.TID 0000.0001)     ;
(PID.TID 0000.0001) phiEuler = /* Euler angle, rotation about original z-coordinate [rad] */
(PID.TID 0000.0001)                 0.000000000000000E+00
(PID.TID 0000.0001)     ;
(PID.TID 0000.0001) thetaEuler = /* Euler angle, rotation about new x-coordinate [rad] */
(PID.TID 0000.0001)                 0.000000000000000E+00
(PID.TID 0000.0001)     ;
(PID.TID 0000.0001) psiEuler = /* Euler angle, rotation about new z-coordinate [rad] */
(PID.TID 0000.0001)                 0.000000000000000E+00
(PID.TID 0000.0001)     ;
(PID.TID 0000.0001) dxF =  /* dxF(:,1,:,1) ( units: m ) */
(PID.TID 0000.0001)    90 @  9.246038586187513E+04              /* I =  1: 90 */
(PID.TID 0000.0001)     ;
(PID.TID 0000.0001) dxF =  /* dxF(1,:,1,:) ( units: m ) */
(PID.TID 0000.0001)                 9.246038586187513E+04,      /* J =  1 */
(PID.TID 0000.0001)                 1.225786591246834E+05,      /* J =  2 */
(PID.TID 0000.0001)                 1.520997414818001E+05,      /* J =  3 */
(PID.TID 0000.0001)                 1.808798091874300E+05,      /* J =  4 */
(PID.TID 0000.0001)                 2.087786486446736E+05,      /* J =  5 */
(PID.TID 0000.0001)                 2.356603395120765E+05,      /* J =  6 */
(PID.TID 0000.0001)                 2.613939168938713E+05,      /* J =  7 */
(PID.TID 0000.0001)                 2.858540093877838E+05,      /* J =  8 */
(PID.TID 0000.0001)                 3.089214498819034E+05,      /* J =  9 */
(PID.TID 0000.0001)                 3.304838561248741E+05,      /* J = 10 */
(PID.TID 0000.0001)                 3.504361782409254E+05,      /* J = 11 */
(PID.TID 0000.0001)                 3.686812105223082E+05,      /* J = 12 */
(PID.TID 0000.0001)                 3.851300650057323E+05,      /* J = 13 */
(PID.TID 0000.0001)                 3.997026045255871E+05,      /* J = 14 */
(PID.TID 0000.0001)                 4.123278331341585E+05,      /* J = 15 */
(PID.TID 0000.0001)                 4.229442419867491E+05,      /* J = 16 */
(PID.TID 0000.0001)                 4.315001090065870E+05,      /* J = 17 */
(PID.TID 0000.0001)                 4.379537508695838E+05,      /* J = 18 */
(PID.TID 0000.0001)                 4.422737260813012E+05,      /* J = 19 */
(PID.TID 0000.0001)     2 @  4.444389881567502E+05,             /* J = 20: 21 */
(PID.TID 0000.0001)                 4.422737260813012E+05,      /* J = 22 */
(PID.TID 0000.0001)                 4.379537508695838E+05,      /* J = 23 */
(PID.TID 0000.0001)                 4.315001090065870E+05,      /* J = 24 */
(PID.TID 0000.0001)                 4.229442419867491E+05,      /* J = 25 */
(PID.TID 0000.0001)                 4.123278331341585E+05,      /* J = 26 */
(PID.TID 0000.0001)                 3.997026045255871E+05,      /* J = 27 */
(PID.TID 0000.0001)                 3.851300650057323E+05,      /* J = 28 */
(PID.TID 0000.0001)                 3.686812105223082E+05,      /* J = 29 */
(PID.TID 0000.0001)                 3.504361782409254E+05,      /* J = 30 */
(PID.TID 0000.0001)                 3.304838561248741E+05,      /* J = 31 */
(PID.TID 0000.0001)                 3.089214498819034E+05,      /* J = 32 */
(PID.TID 0000.0001)                 2.858540093877838E+05,      /* J = 33 */
(PID.TID 0000.0001)                 2.613939168938713E+05,      /* J = 34 */
(PID.TID 0000.0001)                 2.356603395120765E+05,      /* J = 35 */
(PID.TID 0000.0001)                 2.087786486446736E+05,      /* J = 36 */
(PID.TID 0000.0001)                 1.808798091874300E+05,      /* J = 37 */
(PID.TID 0000.0001)                 1.520997414818001E+05,      /* J = 38 */
(PID.TID 0000.0001)                 1.225786591246834E+05,      /* J = 39 */
(PID.TID 0000.0001)                 9.246038586187513E+04       /* J = 40 */
(PID.TID 0000.0001)     ;
(PID.TID 0000.0001) dyF =  /* dyF(:,1,:,1) ( units: m ) */
(PID.TID 0000.0001)    90 @  4.447098934081552E+05              /* I =  1: 90 */
(PID.TID 0000.0001)     ;
(PID.TID 0000.0001) dyF =  /* dyF(1,:,1,:) ( units: m ) */
(PID.TID 0000.0001)    40 @  4.447098934081552E+05              /* J =  1: 40 */
(PID.TID 0000.0001)     ;
(PID.TID 0000.0001) dxG =  /* dxG(:,1,:,1) ( units: m ) */
(PID.TID 0000.0001)    90 @  7.722306258078101E+04              /* I =  1: 90 */
(PID.TID 0000.0001)     ;
(PID.TID 0000.0001) dxG =  /* dxG(1,:,1,:) ( units: m ) */
(PID.TID 0000.0001)                 7.722306258078101E+04,      /* J =  1 */
(PID.TID 0000.0001)                 1.075850604052271E+05,      /* J =  2 */
(PID.TID 0000.0001)                 1.374229146297914E+05,      /* J =  3 */
(PID.TID 0000.0001)                 1.665912582279823E+05,      /* J =  4 */
(PID.TID 0000.0001)                 1.949479859617814E+05,      /* J =  5 */
(PID.TID 0000.0001)                 2.223549467040777E+05,      /* J =  6 */
(PID.TID 0000.0001)                 2.486786164970726E+05,      /* J =  7 */
(PID.TID 0000.0001)                 2.737907490675810E+05,      /* J =  8 */
(PID.TID 0000.0001)                 2.975690006299821E+05,      /* J =  9 */
(PID.TID 0000.0001)                 3.198975259328452E+05,      /* J = 10 */
(PID.TID 0000.0001)                 3.406675426453503E+05,      /* J = 11 */
(PID.TID 0000.0001)                 3.597778613338690E+05,      /* J = 12 */
(PID.TID 0000.0001)                 3.771353784467131E+05,      /* J = 13 */
(PID.TID 0000.0001)                 3.926555299052806E+05,      /* J = 14 */
(PID.TID 0000.0001)                 4.062627030917454E+05,      /* J = 15 */
(PID.TID 0000.0001)                 4.178906052261313E+05,      /* J = 16 */
(PID.TID 0000.0001)                 4.274825863380723E+05,      /* J = 17 */
(PID.TID 0000.0001)                 4.349919152597734E+05,      /* J = 18 */
(PID.TID 0000.0001)                 4.403820072955634E+05,      /* J = 19 */
(PID.TID 0000.0001)                 4.436266024588540E+05,      /* J = 20 */
(PID.TID 0000.0001)                 4.447098934081552E+05,      /* J = 21 */
(PID.TID 0000.0001)                 4.436266024588540E+05,      /* J = 22 */
(PID.TID 0000.0001)                 4.403820072955634E+05,      /* J = 23 */
(PID.TID 0000.0001)                 4.349919152597734E+05,      /* J = 24 */
(PID.TID 0000.0001)                 4.274825863380723E+05,      /* J = 25 */
(PID.TID 0000.0001)                 4.178906052261313E+05,      /* J = 26 */
(PID.TID 0000.0001)                 4.062627030917454E+05,      /* J = 27 */
(PID.TID 0000.0001)                 3.926555299052806E+05,      /* J = 28 */
(PID.TID 0000.0001)                 3.771353784467131E+05,      /* J = 29 */
(PID.TID 0000.0001)                 3.597778613338690E+05,      /* J = 30 */
(PID.TID 0000.0001)                 3.406675426453503E+05,      /* J = 31 */
(PID.TID 0000.0001)                 3.198975259328452E+05,      /* J = 32 */
(PID.TID 0000.0001)                 2.975690006299821E+05,      /* J = 33 */
(PID.TID 0000.0001)                 2.737907490675810E+05,      /* J = 34 */
(PID.TID 0000.0001)                 2.486786164970726E+05,      /* J = 35 */
(PID.TID 0000.0001)                 2.223549467040777E+05,      /* J = 36 */
(PID.TID 0000.0001)                 1.949479859617814E+05,      /* J = 37 */
(PID.TID 0000.0001)                 1.665912582279823E+05,      /* J = 38 */
(PID.TID 0000.0001)                 1.374229146297914E+05,      /* J = 39 */
(PID.TID 0000.0001)                 1.075850604052271E+05       /* J = 40 */
(PID.TID 0000.0001)     ;
(PID.TID 0000.0001) dyG =  /* dyG(:,1,:,1) ( units: m ) */
(PID.TID 0000.0001)    90 @  4.447098934081552E+05              /* I =  1: 90 */
(PID.TID 0000.0001)     ;
(PID.TID 0000.0001) dyG =  /* dyG(1,:,1,:) ( units: m ) */
(PID.TID 0000.0001)    40 @  4.447098934081552E+05              /* J =  1: 40 */
(PID.TID 0000.0001)     ;
(PID.TID 0000.0001) dxC =  /* dxC(:,1,:,1) ( units: m ) */
(PID.TID 0000.0001)    90 @  9.246038586187513E+04              /* I =  1: 90 */
(PID.TID 0000.0001)     ;
(PID.TID 0000.0001) dxC =  /* dxC(1,:,1,:) ( units: m ) */
(PID.TID 0000.0001)                 9.246038586187513E+04,      /* J =  1 */
(PID.TID 0000.0001)                 1.225786591246834E+05,      /* J =  2 */
(PID.TID 0000.0001)                 1.520997414818001E+05,      /* J =  3 */
(PID.TID 0000.0001)                 1.808798091874300E+05,      /* J =  4 */
(PID.TID 0000.0001)                 2.087786486446736E+05,      /* J =  5 */
(PID.TID 0000.0001)                 2.356603395120765E+05,      /* J =  6 */
(PID.TID 0000.0001)                 2.613939168938713E+05,      /* J =  7 */
(PID.TID 0000.0001)                 2.858540093877838E+05,      /* J =  8 */
(PID.TID 0000.0001)                 3.089214498819034E+05,      /* J =  9 */
(PID.TID 0000.0001)                 3.304838561248741E+05,      /* J = 10 */
(PID.TID 0000.0001)                 3.504361782409254E+05,      /* J = 11 */
(PID.TID 0000.0001)                 3.686812105223082E+05,      /* J = 12 */
(PID.TID 0000.0001)                 3.851300650057323E+05,      /* J = 13 */
(PID.TID 0000.0001)                 3.997026045255871E+05,      /* J = 14 */
(PID.TID 0000.0001)                 4.123278331341585E+05,      /* J = 15 */
(PID.TID 0000.0001)                 4.229442419867491E+05,      /* J = 16 */
(PID.TID 0000.0001)                 4.315001090065870E+05,      /* J = 17 */
(PID.TID 0000.0001)                 4.379537508695838E+05,      /* J = 18 */
(PID.TID 0000.0001)                 4.422737260813012E+05,      /* J = 19 */
(PID.TID 0000.0001)     2 @  4.444389881567502E+05,             /* J = 20: 21 */
(PID.TID 0000.0001)                 4.422737260813012E+05,      /* J = 22 */
(PID.TID 0000.0001)                 4.379537508695838E+05,      /* J = 23 */
(PID.TID 0000.0001)                 4.315001090065870E+05,      /* J = 24 */
(PID.TID 0000.0001)                 4.229442419867491E+05,      /* J = 25 */
(PID.TID 0000.0001)                 4.123278331341585E+05,      /* J = 26 */
(PID.TID 0000.0001)                 3.997026045255871E+05,      /* J = 27 */
(PID.TID 0000.0001)                 3.851300650057323E+05,      /* J = 28 */
(PID.TID 0000.0001)                 3.686812105223082E+05,      /* J = 29 */
(PID.TID 0000.0001)                 3.504361782409254E+05,      /* J = 30 */
(PID.TID 0000.0001)                 3.304838561248741E+05,      /* J = 31 */
(PID.TID 0000.0001)                 3.089214498819034E+05,      /* J = 32 */
(PID.TID 0000.0001)                 2.858540093877838E+05,      /* J = 33 */
(PID.TID 0000.0001)                 2.613939168938713E+05,      /* J = 34 */
(PID.TID 0000.0001)                 2.356603395120765E+05,      /* J = 35 */
(PID.TID 0000.0001)                 2.087786486446736E+05,      /* J = 36 */
(PID.TID 0000.0001)                 1.808798091874300E+05,      /* J = 37 */
(PID.TID 0000.0001)                 1.520997414818001E+05,      /* J = 38 */
(PID.TID 0000.0001)                 1.225786591246834E+05,      /* J = 39 */
(PID.TID 0000.0001)                 9.246038586187513E+04       /* J = 40 */
(PID.TID 0000.0001)     ;
(PID.TID 0000.0001) dyC =  /* dyC(:,1,:,1) ( units: m ) */
(PID.TID 0000.0001)    90 @  4.447098934081552E+05              /* I =  1: 90 */
(PID.TID 0000.0001)     ;
(PID.TID 0000.0001) dyC =  /* dyC(1,:,1,:) ( units: m ) */
(PID.TID 0000.0001)    40 @  4.447098934081552E+05              /* J =  1: 40 */
(PID.TID 0000.0001)     ;
(PID.TID 0000.0001) dxV =  /* dxV(:,1,:,1) ( units: m ) */
(PID.TID 0000.0001)    90 @  7.722306258078101E+04              /* I =  1: 90 */
(PID.TID 0000.0001)     ;
(PID.TID 0000.0001) dxV =  /* dxV(1,:,1,:) ( units: m ) */
(PID.TID 0000.0001)                 7.722306258078101E+04,      /* J =  1 */
(PID.TID 0000.0001)                 1.075850604052271E+05,      /* J =  2 */
(PID.TID 0000.0001)                 1.374229146297914E+05,      /* J =  3 */
(PID.TID 0000.0001)                 1.665912582279823E+05,      /* J =  4 */
(PID.TID 0000.0001)                 1.949479859617814E+05,      /* J =  5 */
(PID.TID 0000.0001)                 2.223549467040777E+05,      /* J =  6 */
(PID.TID 0000.0001)                 2.486786164970726E+05,      /* J =  7 */
(PID.TID 0000.0001)                 2.737907490675810E+05,      /* J =  8 */
(PID.TID 0000.0001)                 2.975690006299821E+05,      /* J =  9 */
(PID.TID 0000.0001)                 3.198975259328452E+05,      /* J = 10 */
(PID.TID 0000.0001)                 3.406675426453503E+05,      /* J = 11 */
(PID.TID 0000.0001)                 3.597778613338690E+05,      /* J = 12 */
(PID.TID 0000.0001)                 3.771353784467131E+05,      /* J = 13 */
(PID.TID 0000.0001)                 3.926555299052806E+05,      /* J = 14 */
(PID.TID 0000.0001)                 4.062627030917454E+05,      /* J = 15 */
(PID.TID 0000.0001)                 4.178906052261313E+05,      /* J = 16 */
(PID.TID 0000.0001)                 4.274825863380723E+05,      /* J = 17 */
(PID.TID 0000.0001)                 4.349919152597734E+05,      /* J = 18 */
(PID.TID 0000.0001)                 4.403820072955634E+05,      /* J = 19 */
(PID.TID 0000.0001)                 4.436266024588540E+05,      /* J = 20 */
(PID.TID 0000.0001)                 4.447098934081552E+05,      /* J = 21 */
(PID.TID 0000.0001)                 4.436266024588540E+05,      /* J = 22 */
(PID.TID 0000.0001)                 4.403820072955634E+05,      /* J = 23 */
(PID.TID 0000.0001)                 4.349919152597734E+05,      /* J = 24 */
(PID.TID 0000.0001)                 4.274825863380723E+05,      /* J = 25 */
(PID.TID 0000.0001)                 4.178906052261313E+05,      /* J = 26 */
(PID.TID 0000.0001)                 4.062627030917454E+05,      /* J = 27 */
(PID.TID 0000.0001)                 3.926555299052806E+05,      /* J = 28 */
(PID.TID 0000.0001)                 3.771353784467131E+05,      /* J = 29 */
(PID.TID 0000.0001)                 3.597778613338690E+05,      /* J = 30 */
(PID.TID 0000.0001)                 3.406675426453503E+05,      /* J = 31 */
(PID.TID 0000.0001)                 3.198975259328452E+05,      /* J = 32 */
(PID.TID 0000.0001)                 2.975690006299821E+05,      /* J = 33 */
(PID.TID 0000.0001)                 2.737907490675810E+05,      /* J = 34 */
(PID.TID 0000.0001)                 2.486786164970726E+05,      /* J = 35 */
(PID.TID 0000.0001)                 2.223549467040777E+05,      /* J = 36 */
(PID.TID 0000.0001)                 1.949479859617814E+05,      /* J = 37 */
(PID.TID 0000.0001)                 1.665912582279823E+05,      /* J = 38 */
(PID.TID 0000.0001)                 1.374229146297914E+05,      /* J = 39 */
(PID.TID 0000.0001)                 1.075850604052271E+05       /* J = 40 */
(PID.TID 0000.0001)     ;
(PID.TID 0000.0001) dyU =  /* dyU(:,1,:,1) ( units: m ) */
(PID.TID 0000.0001)    90 @  4.447098934081552E+05              /* I =  1: 90 */
(PID.TID 0000.0001)     ;
(PID.TID 0000.0001) dyU =  /* dyU(1,:,1,:) ( units: m ) */
(PID.TID 0000.0001)    40 @  4.447098934081552E+05              /* J =  1: 40 */
(PID.TID 0000.0001)     ;
(PID.TID 0000.0001) rA  =  /* rA (:,1,:,1) ( units: m^2 ) */
(PID.TID 0000.0001)    90 @  4.110969866729047E+10              /* I =  1: 90 */
(PID.TID 0000.0001)     ;
(PID.TID 0000.0001) rA  =  /* rA (1,:,1,:) ( units: m^2 ) */
(PID.TID 0000.0001)                 4.110969866729047E+10,      /* J =  1 */
(PID.TID 0000.0001)                 5.450087291636665E+10,      /* J =  2 */
(PID.TID 0000.0001)                 6.762652439100235E+10,      /* J =  3 */
(PID.TID 0000.0001)                 8.042270623659998E+10,      /* J =  4 */
(PID.TID 0000.0001)                 9.282707674147523E+10,      /* J =  5 */
(PID.TID 0000.0001)                 1.047792030594103E+11,      /* J =  6 */
(PID.TID 0000.0001)                 1.162208556324093E+11,      /* J =  7 */
(PID.TID 0000.0001)                 1.270962918792468E+11,      /* J =  8 */
(PID.TID 0000.0001)                 1.373525277677229E+11,      /* J =  9 */
(PID.TID 0000.0001)                 1.469395959475426E+11,      /* J = 10 */
(PID.TID 0000.0001)                 1.558107891862220E+11,      /* J = 11 */
(PID.TID 0000.0001)                 1.639228879220326E+11,      /* J = 12 */
(PID.TID 0000.0001)                 1.712363708253573E+11,      /* J = 13 */
(PID.TID 0000.0001)                 1.777156073426415E+11,      /* J = 14 */
(PID.TID 0000.0001)                 1.833290312848623E+11,      /* J = 15 */
(PID.TID 0000.0001)                 1.880492946148330E+11,      /* J = 16 */
(PID.TID 0000.0001)                 1.918534006840893E+11,      /* J = 17 */
(PID.TID 0000.0001)                 1.947228162702492E+11,      /* J = 18 */
(PID.TID 0000.0001)                 1.966435618690094E+11,      /* J = 19 */
(PID.TID 0000.0001)     2 @  1.976062798008856E+11,             /* J = 20: 21 */
(PID.TID 0000.0001)                 1.966435618690094E+11,      /* J = 22 */
(PID.TID 0000.0001)                 1.947228162702492E+11,      /* J = 23 */
(PID.TID 0000.0001)                 1.918534006840893E+11,      /* J = 24 */
(PID.TID 0000.0001)                 1.880492946148330E+11,      /* J = 25 */
(PID.TID 0000.0001)                 1.833290312848623E+11,      /* J = 26 */
(PID.TID 0000.0001)                 1.777156073426415E+11,      /* J = 27 */
(PID.TID 0000.0001)                 1.712363708253573E+11,      /* J = 28 */
(PID.TID 0000.0001)                 1.639228879220326E+11,      /* J = 29 */
(PID.TID 0000.0001)                 1.558107891862220E+11,      /* J = 30 */
(PID.TID 0000.0001)                 1.469395959475426E+11,      /* J = 31 */
(PID.TID 0000.0001)                 1.373525277677229E+11,      /* J = 32 */
(PID.TID 0000.0001)                 1.270962918792468E+11,      /* J = 33 */
(PID.TID 0000.0001)                 1.162208556324093E+11,      /* J = 34 */
(PID.TID 0000.0001)                 1.047792030594103E+11,      /* J = 35 */
(PID.TID 0000.0001)                 9.282707674147523E+10,      /* J = 36 */
(PID.TID 0000.0001)                 8.042270623659998E+10,      /* J = 37 */
(PID.TID 0000.0001)                 6.762652439100235E+10,      /* J = 38 */
(PID.TID 0000.0001)                 5.450087291636665E+10,      /* J = 39 */
(PID.TID 0000.0001)                 4.110969866729047E+10       /* J = 40 */
(PID.TID 0000.0001)     ;
(PID.TID 0000.0001) rAw =  /* rAw(:,1,:,1) ( units: m^2 ) */
(PID.TID 0000.0001)    90 @  4.110969866729047E+10              /* I =  1: 90 */
(PID.TID 0000.0001)     ;
(PID.TID 0000.0001) rAw =  /* rAw(1,:,1,:) ( units: m^2 ) */
(PID.TID 0000.0001)                 4.110969866729047E+10,      /* J =  1 */
(PID.TID 0000.0001)                 5.450087291636665E+10,      /* J =  2 */
(PID.TID 0000.0001)                 6.762652439100235E+10,      /* J =  3 */
(PID.TID 0000.0001)                 8.042270623659998E+10,      /* J =  4 */
(PID.TID 0000.0001)                 9.282707674147523E+10,      /* J =  5 */
(PID.TID 0000.0001)                 1.047792030594103E+11,      /* J =  6 */
(PID.TID 0000.0001)                 1.162208556324093E+11,      /* J =  7 */
(PID.TID 0000.0001)                 1.270962918792468E+11,      /* J =  8 */
(PID.TID 0000.0001)                 1.373525277677229E+11,      /* J =  9 */
(PID.TID 0000.0001)                 1.469395959475426E+11,      /* J = 10 */
(PID.TID 0000.0001)                 1.558107891862220E+11,      /* J = 11 */
(PID.TID 0000.0001)                 1.639228879220326E+11,      /* J = 12 */
(PID.TID 0000.0001)                 1.712363708253573E+11,      /* J = 13 */
(PID.TID 0000.0001)                 1.777156073426415E+11,      /* J = 14 */
(PID.TID 0000.0001)                 1.833290312848623E+11,      /* J = 15 */
(PID.TID 0000.0001)                 1.880492946148330E+11,      /* J = 16 */
(PID.TID 0000.0001)                 1.918534006840893E+11,      /* J = 17 */
(PID.TID 0000.0001)                 1.947228162702492E+11,      /* J = 18 */
(PID.TID 0000.0001)                 1.966435618690094E+11,      /* J = 19 */
(PID.TID 0000.0001)     2 @  1.976062798008856E+11,             /* J = 20: 21 */
(PID.TID 0000.0001)                 1.966435618690094E+11,      /* J = 22 */
(PID.TID 0000.0001)                 1.947228162702492E+11,      /* J = 23 */
(PID.TID 0000.0001)                 1.918534006840893E+11,      /* J = 24 */
(PID.TID 0000.0001)                 1.880492946148330E+11,      /* J = 25 */
(PID.TID 0000.0001)                 1.833290312848623E+11,      /* J = 26 */
(PID.TID 0000.0001)                 1.777156073426415E+11,      /* J = 27 */
(PID.TID 0000.0001)                 1.712363708253573E+11,      /* J = 28 */
(PID.TID 0000.0001)                 1.639228879220326E+11,      /* J = 29 */
(PID.TID 0000.0001)                 1.558107891862220E+11,      /* J = 30 */
(PID.TID 0000.0001)                 1.469395959475426E+11,      /* J = 31 */
(PID.TID 0000.0001)                 1.373525277677229E+11,      /* J = 32 */
(PID.TID 0000.0001)                 1.270962918792468E+11,      /* J = 33 */
(PID.TID 0000.0001)                 1.162208556324093E+11,      /* J = 34 */
(PID.TID 0000.0001)                 1.047792030594103E+11,      /* J = 35 */
(PID.TID 0000.0001)                 9.282707674147523E+10,      /* J = 36 */
(PID.TID 0000.0001)                 8.042270623659998E+10,      /* J = 37 */
(PID.TID 0000.0001)                 6.762652439100235E+10,      /* J = 38 */
(PID.TID 0000.0001)                 5.450087291636665E+10,      /* J = 39 */
(PID.TID 0000.0001)                 4.110969866729047E+10       /* J = 40 */
(PID.TID 0000.0001)     ;
(PID.TID 0000.0001) rAs =  /* rAs(:,1,:,1) ( units: m^2 ) */
(PID.TID 0000.0001)    90 @  3.433488626798250E+10              /* I =  1: 90 */
(PID.TID 0000.0001)     ;
(PID.TID 0000.0001) rAs =  /* rAs(1,:,1,:) ( units: m^2 ) */
(PID.TID 0000.0001)                 3.433488626798250E+10,      /* J =  1 */
(PID.TID 0000.0001)                 4.783442523123625E+10,      /* J =  2 */
(PID.TID 0000.0001)                 6.110091968306414E+10,      /* J =  3 */
(PID.TID 0000.0001)                 7.406973659603818E+10,      /* J =  4 */
(PID.TID 0000.0001)                 8.667769319778079E+10,      /* J =  5 */
(PID.TID 0000.0001)                 9.886336479107463E+10,      /* J =  6 */
(PID.TID 0000.0001)                 1.105673840088173E+11,      /* J =  7 */
(PID.TID 0000.0001)                 1.217327300458638E+11,      /* J =  8 */
(PID.TID 0000.0001)                 1.323050064586578E+11,      /* J =  9 */
(PID.TID 0000.0001)                 1.422327061792377E+11,      /* J = 10 */
(PID.TID 0000.0001)                 1.514674624524945E+11,      /* J = 11 */
(PID.TID 0000.0001)                 1.599642844741385E+11,      /* J = 12 */
(PID.TID 0000.0001)                 1.676817765813788E+11,      /* J = 13 */
(PID.TID 0000.0001)                 1.745823399284268E+11,      /* J = 14 */
(PID.TID 0000.0001)                 1.806323556642996E+11,      /* J = 15 */
(PID.TID 0000.0001)                 1.858023487204767E+11,      /* J = 16 */
(PID.TID 0000.0001)                 1.900671314104743E+11,      /* J = 17 */
(PID.TID 0000.0001)                 1.934059261417216E+11,      /* J = 18 */
(PID.TID 0000.0001)                 1.958024666419019E+11,      /* J = 19 */
(PID.TID 0000.0001)                 1.972450772065981E+11,      /* J = 20 */
(PID.TID 0000.0001)                 1.977267295821495E+11,      /* J = 21 */
(PID.TID 0000.0001)                 1.972450772065981E+11,      /* J = 22 */
(PID.TID 0000.0001)                 1.958024666419019E+11,      /* J = 23 */
(PID.TID 0000.0001)                 1.934059261417216E+11,      /* J = 24 */
(PID.TID 0000.0001)                 1.900671314104743E+11,      /* J = 25 */
(PID.TID 0000.0001)                 1.858023487204767E+11,      /* J = 26 */
(PID.TID 0000.0001)                 1.806323556642996E+11,      /* J = 27 */
(PID.TID 0000.0001)                 1.745823399284268E+11,      /* J = 28 */
(PID.TID 0000.0001)                 1.676817765813788E+11,      /* J = 29 */
(PID.TID 0000.0001)                 1.599642844741385E+11,      /* J = 30 */
(PID.TID 0000.0001)                 1.514674624524945E+11,      /* J = 31 */
(PID.TID 0000.0001)                 1.422327061792377E+11,      /* J = 32 */
(PID.TID 0000.0001)                 1.323050064586578E+11,      /* J = 33 */
(PID.TID 0000.0001)                 1.217327300458638E+11,      /* J = 34 */
(PID.TID 0000.0001)                 1.105673840088173E+11,      /* J = 35 */
(PID.TID 0000.0001)                 9.886336479107463E+10,      /* J = 36 */
(PID.TID 0000.0001)                 8.667769319778079E+10,      /* J = 37 */
(PID.TID 0000.0001)                 7.406973659603818E+10,      /* J = 38 */
(PID.TID 0000.0001)                 6.110091968306414E+10,      /* J = 39 */
(PID.TID 0000.0001)                 4.783442523123625E+10       /* J = 40 */
(PID.TID 0000.0001)     ;
(PID.TID 0000.0001) globalArea = /* Integrated horizontal Area (m^2) */
(PID.TID 0000.0001)                 3.450614146649749E+14
(PID.TID 0000.0001)     ;
(PID.TID 0000.0001) // =======================================================
(PID.TID 0000.0001) // End of Model config. summary
(PID.TID 0000.0001) // =======================================================
(PID.TID 0000.0001) 
(PID.TID 0000.0001) == Packages configuration : Check & print summary ==
(PID.TID 0000.0001) 
(PID.TID 0000.0001) GMREDI_CHECK: #define GMREDI
(PID.TID 0000.0001) GM_AdvForm =     /* if FALSE => use SkewFlux Form */
(PID.TID 0000.0001)                   T
(PID.TID 0000.0001)     ;
(PID.TID 0000.0001) GM_InMomAsStress = /* if TRUE => apply as Eddy Stress */
(PID.TID 0000.0001)                   F
(PID.TID 0000.0001)     ;
(PID.TID 0000.0001) GM_AdvSeparate = /* Calc Bolus & Euler Adv. separately */
(PID.TID 0000.0001)                   F
(PID.TID 0000.0001)     ;
(PID.TID 0000.0001) GM_ExtraDiag =   /* Tensor Extra Diag (line 1&2) non 0 */
(PID.TID 0000.0001)                   T
(PID.TID 0000.0001)     ;
(PID.TID 0000.0001) GM_isopycK =    /* Background Isopyc. Diffusivity [m^2/s] */
(PID.TID 0000.0001)                 1.100000000000000E+03
(PID.TID 0000.0001)     ;
(PID.TID 0000.0001) GM_skewflx*K =  /* Background GM_SkewFlx Diffusivity [m^2/s] */
(PID.TID 0000.0001)                 0.000000000000000E+00
(PID.TID 0000.0001)     ;
(PID.TID 0000.0001) GM_advec*K =    /* Backg. GM-Advec(=Bolus) Diffusivity [m^2/s]*/
(PID.TID 0000.0001)                 9.000000000000000E+02
(PID.TID 0000.0001)     ;
(PID.TID 0000.0001) GM_Kmin_horiz = /* Minimum Horizontal Diffusivity [m^2/s] */
(PID.TID 0000.0001)                 5.000000000000000E+01
(PID.TID 0000.0001)     ;
(PID.TID 0000.0001) GM_Visbeck_alpha = /* Visbeck alpha coeff. [-] */
(PID.TID 0000.0001)                 0.000000000000000E+00
(PID.TID 0000.0001)     ;
(PID.TID 0000.0001) GM_Small_Number =  /* epsilon used in slope calc */
(PID.TID 0000.0001)                 9.999999999999999E-21
(PID.TID 0000.0001)     ;
(PID.TID 0000.0001) GM_slopeSqCutoff = /* Slope^2 cut-off value */
(PID.TID 0000.0001)                 1.000000000000000E+08
(PID.TID 0000.0001)     ;
(PID.TID 0000.0001) GM_taper_scheme =  /* Type of Tapering/Clipping scheme */
(PID.TID 0000.0001)               'dm95                                    '
(PID.TID 0000.0001)     ;
(PID.TID 0000.0001) GM_maxSlope =  /* Maximum Slope (Tapering/Clipping) */
(PID.TID 0000.0001)                 1.000000000000000E-02
(PID.TID 0000.0001)     ;
(PID.TID 0000.0001) GM_facTrL2dz = /* Minimum Trans.Layer Thick. (factor of dz) */
(PID.TID 0000.0001)                 1.000000000000000E+00
(PID.TID 0000.0001)     ;
(PID.TID 0000.0001) GM_facTrL2ML = /* Max.Trans.Layer Thick. (factor of MxL Depth)*/
(PID.TID 0000.0001)                 5.000000000000000E+00
(PID.TID 0000.0001)     ;
(PID.TID 0000.0001) GM_maxTransLay = /* Maximum Transition Layer Thickness [m] */
(PID.TID 0000.0001)                 5.000000000000000E+02
(PID.TID 0000.0001)     ;
(PID.TID 0000.0001) GM_UseBVP = /* if TRUE => use bvp a la Ferrari et al. (2010) */
(PID.TID 0000.0001)                   F
(PID.TID 0000.0001)     ;
(PID.TID 0000.0001) GM_BVP_ModeNumber = /* Vertical mode number for BVP wave speed */
(PID.TID 0000.0001)                       1
(PID.TID 0000.0001)     ;
(PID.TID 0000.0001) GM_BVP_cMin = /* Minimum wave speed for BVP [m/s] */
(PID.TID 0000.0001)                 1.000000000000000E-01
(PID.TID 0000.0001)     ;
(PID.TID 0000.0001) GM_useSubMeso = /* if TRUE => use Sub-Meso param. (B.Fox-Kemper) */
(PID.TID 0000.0001)                   F
(PID.TID 0000.0001)     ;
(PID.TID 0000.0001) subMeso_Ceff = /* efficiency coeff. of Mixed-Layer Eddies [-] */
(PID.TID 0000.0001)                 7.000000000000001E-02
(PID.TID 0000.0001)     ;
(PID.TID 0000.0001) subMeso_invTau = /* inverse of Sub-Meso mixing time-scale [/s] */
(PID.TID 0000.0001)                 2.000000000000000E-06
(PID.TID 0000.0001)     ;
(PID.TID 0000.0001) subMeso_LfMin = /* minimum length-scale "Lf" [m] */
(PID.TID 0000.0001)                 1.000000000000000E+03
(PID.TID 0000.0001)     ;
(PID.TID 0000.0001) subMeso_Lmax = /* maximum grid-scale length [m] */
(PID.TID 0000.0001)                 1.100000000000000E+05
(PID.TID 0000.0001)     ;
(PID.TID 0000.0001) CTRL_CHECK: ctrl package
(PID.TID 0000.0001) COST_CHECK: cost package
(PID.TID 0000.0001) GRDCHK_CHECK: grdchk package
(PID.TID 0000.0001) GAD_CHECK: #define ALLOW_GENERIC_ADVDIFF
(PID.TID 0000.0001) // =======================================================
(PID.TID 0000.0001) // CONFIG_CHECK : Normal End
(PID.TID 0000.0001) // =======================================================
(PID.TID 0000.0001) 
(PID.TID 0000.0001) INI_CG2D: CG2D normalisation factor =  6.5682677425711703E-05
(PID.TID 0000.0001) 
(PID.TID 0000.0001) Start initial hydrostatic pressure computation
(PID.TID 0000.0001) Pressure is predetermined for buoyancyRelation OCEANIC
(PID.TID 0000.0001) 
(PID.TID 0000.0001) // =======================================================
(PID.TID 0000.0001) // Begin MONITOR dynamic field statistics
(PID.TID 0000.0001) // =======================================================
(PID.TID 0000.0001) %MON time_tsnumber                =                     0
(PID.TID 0000.0001) %MON time_secondsf                =   0.0000000000000E+00
(PID.TID 0000.0001) %MON dynstat_eta_max              =   0.0000000000000E+00
(PID.TID 0000.0001) %MON dynstat_eta_min              =   0.0000000000000E+00
(PID.TID 0000.0001) %MON dynstat_eta_mean             =   0.0000000000000E+00
(PID.TID 0000.0001) %MON dynstat_eta_sd               =   0.0000000000000E+00
(PID.TID 0000.0001) %MON dynstat_eta_del2             =   0.0000000000000E+00
(PID.TID 0000.0001) %MON dynstat_uvel_max             =   0.0000000000000E+00
(PID.TID 0000.0001) %MON dynstat_uvel_min             =   0.0000000000000E+00
(PID.TID 0000.0001) %MON dynstat_uvel_mean            =   0.0000000000000E+00
(PID.TID 0000.0001) %MON dynstat_uvel_sd              =   0.0000000000000E+00
(PID.TID 0000.0001) %MON dynstat_uvel_del2            =   0.0000000000000E+00
(PID.TID 0000.0001) %MON dynstat_vvel_max             =   0.0000000000000E+00
(PID.TID 0000.0001) %MON dynstat_vvel_min             =   0.0000000000000E+00
(PID.TID 0000.0001) %MON dynstat_vvel_mean            =   0.0000000000000E+00
(PID.TID 0000.0001) %MON dynstat_vvel_sd              =   0.0000000000000E+00
(PID.TID 0000.0001) %MON dynstat_vvel_del2            =   0.0000000000000E+00
(PID.TID 0000.0001) %MON dynstat_wvel_max             =  -0.0000000000000E+00
(PID.TID 0000.0001) %MON dynstat_wvel_min             =  -0.0000000000000E+00
(PID.TID 0000.0001) %MON dynstat_wvel_mean            =   0.0000000000000E+00
(PID.TID 0000.0001) %MON dynstat_wvel_sd              =   0.0000000000000E+00
(PID.TID 0000.0001) %MON dynstat_wvel_del2            =   0.0000000000000E+00
(PID.TID 0000.0001) %MON dynstat_theta_max            =   2.9733388900757E+01
(PID.TID 0000.0001) %MON dynstat_theta_min            =  -1.9000000000000E+00
(PID.TID 0000.0001) %MON dynstat_theta_mean           =   3.6197074666132E+00
(PID.TID 0000.0001) %MON dynstat_theta_sd             =   4.4174614518570E+00
(PID.TID 0000.0001) %MON dynstat_theta_del2           =   5.6229722638211E-03
(PID.TID 0000.0001) %MON dynstat_salt_max             =   3.7475627899170E+01
(PID.TID 0000.0001) %MON dynstat_salt_min             =   2.9752769470215E+01
(PID.TID 0000.0001) %MON dynstat_salt_mean            =   3.4718006161478E+01
(PID.TID 0000.0001) %MON dynstat_salt_sd              =   2.9628819587991E-01
(PID.TID 0000.0001) %MON dynstat_salt_del2            =   1.0127003139695E-03
(PID.TID 0000.0001) %MON forcing_qnet_max             =   4.4161361694336E+02
(PID.TID 0000.0001) %MON forcing_qnet_min             =  -1.8132531738281E+02
(PID.TID 0000.0001) %MON forcing_qnet_mean            =  -1.6512526001044E+01
(PID.TID 0000.0001) %MON forcing_qnet_sd              =   1.0987288293460E+02
(PID.TID 0000.0001) %MON forcing_qnet_del2            =   1.0245701543512E+00
(PID.TID 0000.0001) %MON forcing_qsw_max              =   0.0000000000000E+00
(PID.TID 0000.0001) %MON forcing_qsw_min              =   0.0000000000000E+00
(PID.TID 0000.0001) %MON forcing_qsw_mean             =   0.0000000000000E+00
(PID.TID 0000.0001) %MON forcing_qsw_sd               =   0.0000000000000E+00
(PID.TID 0000.0001) %MON forcing_qsw_del2             =   0.0000000000000E+00
(PID.TID 0000.0001) %MON forcing_empmr_max            =   0.0000000000000E+00
(PID.TID 0000.0001) %MON forcing_empmr_min            =   0.0000000000000E+00
(PID.TID 0000.0001) %MON forcing_empmr_mean           =   0.0000000000000E+00
(PID.TID 0000.0001) %MON forcing_empmr_sd             =   0.0000000000000E+00
(PID.TID 0000.0001) %MON forcing_empmr_del2           =   0.0000000000000E+00
(PID.TID 0000.0001) %MON forcing_fu_max               =   2.7877888083458E-01
(PID.TID 0000.0001) %MON forcing_fu_min               =  -1.7088057100773E-01
(PID.TID 0000.0001) %MON forcing_fu_mean              =   1.6001735152566E-02
(PID.TID 0000.0001) %MON forcing_fu_sd                =   9.1062350670783E-02
(PID.TID 0000.0001) %MON forcing_fu_del2              =   7.2483493833855E-04
(PID.TID 0000.0001) %MON forcing_fv_max               =   2.3312132060528E-01
(PID.TID 0000.0001) %MON forcing_fv_min               =  -1.7813690006733E-01
(PID.TID 0000.0001) %MON forcing_fv_mean              =  -5.2588977395051E-03
(PID.TID 0000.0001) %MON forcing_fv_sd                =   4.8248606070107E-02
(PID.TID 0000.0001) %MON forcing_fv_del2              =   4.9948324922575E-04
(PID.TID 0000.0001) %MON advcfl_uvel_max              =   0.0000000000000E+00
(PID.TID 0000.0001) %MON advcfl_vvel_max              =   0.0000000000000E+00
(PID.TID 0000.0001) %MON advcfl_wvel_max              =   0.0000000000000E+00
(PID.TID 0000.0001) %MON advcfl_W_hf_max              =   0.0000000000000E+00
(PID.TID 0000.0001) %MON pe_b_mean                    =   0.0000000000000E+00
(PID.TID 0000.0001) %MON ke_max                       =   0.0000000000000E+00
(PID.TID 0000.0001) %MON ke_mean                      =   0.0000000000000E+00
(PID.TID 0000.0001) %MON ke_vol                       =   1.3226782436722E+18
(PID.TID 0000.0001) %MON vort_r_min                   =   0.0000000000000E+00
(PID.TID 0000.0001) %MON vort_r_max                   =   0.0000000000000E+00
(PID.TID 0000.0001) %MON vort_a_mean                  =  -2.5205769728597E-05
(PID.TID 0000.0001) %MON vort_a_sd                    =   7.3403301351718E-05
(PID.TID 0000.0001) %MON vort_p_mean                  =  -3.1758669979760E-05
(PID.TID 0000.0001) %MON vort_p_sd                    =   1.3126616755304E-04
(PID.TID 0000.0001) %MON surfExpan_theta_mean         =   0.0000000000000E+00
(PID.TID 0000.0001) %MON surfExpan_salt_mean          =   0.0000000000000E+00
(PID.TID 0000.0001) // =======================================================
(PID.TID 0000.0001) // End MONITOR dynamic field statistics
(PID.TID 0000.0001) // =======================================================
 EXTERNAL_FIELDS_LOAD, it=         0 : Reading new data, i0,i1=   12    1 (prev=   12    0 )
(PID.TID 0000.0001) SOLVE_FOR_PRESSURE: putPmEinXvector =    F
 cg2d: Sum(rhs),rhsMax =   1.15463194561016E-14  2.53674886388737E+00
(PID.TID 0000.0001)                    cg2d_init_res =    6.19022764877148E+00
(PID.TID 0000.0001)                       cg2d_iters =    26
(PID.TID 0000.0001)                         cg2d_res =    4.93012145236804E-14
(PID.TID 0000.0001) // =======================================================
(PID.TID 0000.0001) // Begin MONITOR dynamic field statistics
(PID.TID 0000.0001) // =======================================================
(PID.TID 0000.0001) %MON time_tsnumber                =                     1
(PID.TID 0000.0001) %MON time_secondsf                =   4.3200000000000E+04
(PID.TID 0000.0001) %MON dynstat_eta_max              =   1.7834701827803E-01
(PID.TID 0000.0001) %MON dynstat_eta_min              =  -1.1528119640449E-01
(PID.TID 0000.0001) %MON dynstat_eta_mean             =   8.2957662215125E-19
(PID.TID 0000.0001) %MON dynstat_eta_sd               =   2.6147239617250E-02
(PID.TID 0000.0001) %MON dynstat_eta_del2             =   1.1687994198159E-03
(PID.TID 0000.0001) %MON dynstat_uvel_max             =   8.2589328748254E-03
(PID.TID 0000.0001) %MON dynstat_uvel_min             =  -8.7864788593940E-03
(PID.TID 0000.0001) %MON dynstat_uvel_mean            =  -3.5948047481453E-04
(PID.TID 0000.0001) %MON dynstat_uvel_sd              =   1.2234921326690E-03
(PID.TID 0000.0001) %MON dynstat_uvel_del2            =   1.1644120182858E-05
(PID.TID 0000.0001) %MON dynstat_vvel_max             =   1.8419668083618E-02
(PID.TID 0000.0001) %MON dynstat_vvel_min             =  -1.1236436695294E-02
(PID.TID 0000.0001) %MON dynstat_vvel_mean            =   9.0346553674464E-04
(PID.TID 0000.0001) %MON dynstat_vvel_sd              =   3.3985660820185E-03
(PID.TID 0000.0001) %MON dynstat_vvel_del2            =   1.5509009627357E-05
(PID.TID 0000.0001) %MON dynstat_wvel_max             =   1.5967409621856E-04
(PID.TID 0000.0001) %MON dynstat_wvel_min             =  -1.0325807956452E-04
(PID.TID 0000.0001) %MON dynstat_wvel_mean            =  -2.2790126576819E-22
(PID.TID 0000.0001) %MON dynstat_wvel_sd              =   1.6737769309918E-05
(PID.TID 0000.0001) %MON dynstat_wvel_del2            =   2.5270555877497E-07
(PID.TID 0000.0001) %MON dynstat_theta_max            =   2.9714172022203E+01
(PID.TID 0000.0001) %MON dynstat_theta_min            =  -1.9004353995426E+00
(PID.TID 0000.0001) %MON dynstat_theta_mean           =   3.6192179553284E+00
(PID.TID 0000.0001) %MON dynstat_theta_sd             =   4.4160443947441E+00
(PID.TID 0000.0001) %MON dynstat_theta_del2           =   5.5367442008055E-03
(PID.TID 0000.0001) %MON dynstat_salt_max             =   3.7470958645792E+01
(PID.TID 0000.0001) %MON dynstat_salt_min             =   2.9754725782649E+01
(PID.TID 0000.0001) %MON dynstat_salt_mean            =   3.4717966814585E+01
(PID.TID 0000.0001) %MON dynstat_salt_sd              =   2.9615533008323E-01
(PID.TID 0000.0001) %MON dynstat_salt_del2            =   1.0134085272792E-03
(PID.TID 0000.0001) %MON forcing_qnet_max             =   4.2589080810547E+02
(PID.TID 0000.0001) %MON forcing_qnet_min             =  -1.8702698516846E+02
(PID.TID 0000.0001) %MON forcing_qnet_mean            =  -1.6700205338390E+01
(PID.TID 0000.0001) %MON forcing_qnet_sd              =   1.1285666794876E+02
(PID.TID 0000.0001) %MON forcing_qnet_del2            =   9.9079877721394E-01
(PID.TID 0000.0001) %MON forcing_qsw_max              =   0.0000000000000E+00
(PID.TID 0000.0001) %MON forcing_qsw_min              =   0.0000000000000E+00
(PID.TID 0000.0001) %MON forcing_qsw_mean             =   0.0000000000000E+00
(PID.TID 0000.0001) %MON forcing_qsw_sd               =   0.0000000000000E+00
(PID.TID 0000.0001) %MON forcing_qsw_del2             =   0.0000000000000E+00
(PID.TID 0000.0001) %MON forcing_empmr_max            =   0.0000000000000E+00
(PID.TID 0000.0001) %MON forcing_empmr_min            =   0.0000000000000E+00
(PID.TID 0000.0001) %MON forcing_empmr_mean           =   0.0000000000000E+00
(PID.TID 0000.0001) %MON forcing_empmr_sd             =   0.0000000000000E+00
(PID.TID 0000.0001) %MON forcing_empmr_del2           =   0.0000000000000E+00
(PID.TID 0000.0001) %MON forcing_fu_max               =   2.7488999068737E-01
(PID.TID 0000.0001) %MON forcing_fu_min               =  -1.6014087945223E-01
(PID.TID 0000.0001) %MON forcing_fu_mean              =   1.6117127468124E-02
(PID.TID 0000.0001) %MON forcing_fu_sd                =   9.0153154829689E-02
(PID.TID 0000.0001) %MON forcing_fu_del2              =   6.5365667764058E-04
(PID.TID 0000.0001) %MON forcing_fv_max               =   2.0835298299789E-01
(PID.TID 0000.0001) %MON forcing_fv_min               =  -1.8690676242113E-01
(PID.TID 0000.0001) %MON forcing_fv_mean              =  -6.3653356424171E-03
(PID.TID 0000.0001) %MON forcing_fv_sd                =   4.5157892194461E-02
(PID.TID 0000.0001) %MON forcing_fv_del2              =   4.4595114894327E-04
(PID.TID 0000.0001) %MON advcfl_uvel_max              =   2.7952615317443E-03
(PID.TID 0000.0001) %MON advcfl_vvel_max              =   1.7893230463437E-03
(PID.TID 0000.0001) %MON advcfl_wvel_max              =   2.5681970632036E-01
(PID.TID 0000.0001) %MON advcfl_W_hf_max              =   1.3026877595789E-01
(PID.TID 0000.0001) %MON pe_b_mean                    =   8.7484858528223E-07
(PID.TID 0000.0001) %MON ke_max                       =   1.1990059187008E-04
(PID.TID 0000.0001) %MON ke_mean                      =   6.2906533822057E-06
(PID.TID 0000.0001) %MON ke_vol                       =   1.3226782436722E+18
(PID.TID 0000.0001) %MON vort_r_min                   =  -5.9384272215235E-08
(PID.TID 0000.0001) %MON vort_r_max                   =   6.6674503753026E-08
(PID.TID 0000.0001) %MON vort_a_mean                  =  -2.5205769366640E-05
(PID.TID 0000.0001) %MON vort_a_sd                    =   7.3403223633030E-05
(PID.TID 0000.0001) %MON vort_p_mean                  =  -3.1758669523702E-05
(PID.TID 0000.0001) %MON vort_p_sd                    =   1.3126608317243E-04
(PID.TID 0000.0001) %MON surfExpan_theta_mean         =   4.5905031741426E-05
(PID.TID 0000.0001) %MON surfExpan_salt_mean          =   3.5008272075359E-06
(PID.TID 0000.0001) // =======================================================
(PID.TID 0000.0001) // End MONITOR dynamic field statistics
(PID.TID 0000.0001) // =======================================================
 cg2d: Sum(rhs),rhsMax =   1.14908083048704E-14  4.94121822825309E+00
(PID.TID 0000.0001)                    cg2d_init_res =    3.35285429689842E+00
(PID.TID 0000.0001)                       cg2d_iters =    26
(PID.TID 0000.0001)                         cg2d_res =    3.25989161356866E-14
(PID.TID 0000.0001) // =======================================================
(PID.TID 0000.0001) // Begin MONITOR dynamic field statistics
(PID.TID 0000.0001) // =======================================================
(PID.TID 0000.0001) %MON time_tsnumber                =                     2
(PID.TID 0000.0001) %MON time_secondsf                =   8.6400000000000E+04
(PID.TID 0000.0001) %MON dynstat_eta_max              =   3.7226412581931E-01
(PID.TID 0000.0001) %MON dynstat_eta_min              =  -2.5315553566168E-01
(PID.TID 0000.0001) %MON dynstat_eta_mean             =   2.2923908364776E-18
(PID.TID 0000.0001) %MON dynstat_eta_sd               =   5.9789064878346E-02
(PID.TID 0000.0001) %MON dynstat_eta_del2             =   2.2530905946189E-03
(PID.TID 0000.0001) %MON dynstat_uvel_max             =   1.9023736235888E-02
(PID.TID 0000.0001) %MON dynstat_uvel_min             =  -1.7153168197942E-02
(PID.TID 0000.0001) %MON dynstat_uvel_mean            =  -8.9141171653051E-04
(PID.TID 0000.0001) %MON dynstat_uvel_sd              =   2.1302163165916E-03
(PID.TID 0000.0001) %MON dynstat_uvel_del2            =   2.3441107014752E-05
(PID.TID 0000.0001) %MON dynstat_vvel_max             =   3.3844730909554E-02
(PID.TID 0000.0001) %MON dynstat_vvel_min             =  -1.8093893597470E-02
(PID.TID 0000.0001) %MON dynstat_vvel_mean            =   1.7649629223212E-03
(PID.TID 0000.0001) %MON dynstat_vvel_sd              =   6.2186936704994E-03
(PID.TID 0000.0001) %MON dynstat_vvel_del2            =   2.8959924840084E-05
(PID.TID 0000.0001) %MON dynstat_wvel_max             =   2.0483824296381E-04
(PID.TID 0000.0001) %MON dynstat_wvel_min             =  -1.4658765187206E-04
(PID.TID 0000.0001) %MON dynstat_wvel_mean            =   1.2918074967859E-22
(PID.TID 0000.0001) %MON dynstat_wvel_sd              =   2.4010151508341E-05
(PID.TID 0000.0001) %MON dynstat_wvel_del2            =   2.8691083059834E-07
(PID.TID 0000.0001) %MON dynstat_theta_max            =   2.9694897420491E+01
(PID.TID 0000.0001) %MON dynstat_theta_min            =  -1.9018693620696E+00
(PID.TID 0000.0001) %MON dynstat_theta_mean           =   3.6183199726290E+00
(PID.TID 0000.0001) %MON dynstat_theta_sd             =   4.4139496088897E+00
(PID.TID 0000.0001) %MON dynstat_theta_del2           =   5.4579183035443E-03
(PID.TID 0000.0001) %MON dynstat_salt_max             =   3.7466286420271E+01
(PID.TID 0000.0001) %MON dynstat_salt_min             =   2.9757385463522E+01
(PID.TID 0000.0001) %MON dynstat_salt_mean            =   3.4717893048765E+01
(PID.TID 0000.0001) %MON dynstat_salt_sd              =   2.9607831358504E-01
(PID.TID 0000.0001) %MON dynstat_salt_del2            =   1.0179210091091E-03
(PID.TID 0000.0001) %MON forcing_qnet_max             =   4.2641490173340E+02
(PID.TID 0000.0001) %MON forcing_qnet_min             =  -1.8679340387980E+02
(PID.TID 0000.0001) %MON forcing_qnet_mean            =  -1.6693949360478E+01
(PID.TID 0000.0001) %MON forcing_qnet_sd              =   1.1274774925900E+02
(PID.TID 0000.0001) %MON forcing_qnet_del2            =   9.9129556347980E-01
(PID.TID 0000.0001) %MON forcing_qsw_max              =   0.0000000000000E+00
(PID.TID 0000.0001) %MON forcing_qsw_min              =   0.0000000000000E+00
(PID.TID 0000.0001) %MON forcing_qsw_mean             =   0.0000000000000E+00
(PID.TID 0000.0001) %MON forcing_qsw_sd               =   0.0000000000000E+00
(PID.TID 0000.0001) %MON forcing_qsw_del2             =   0.0000000000000E+00
(PID.TID 0000.0001) %MON forcing_empmr_max            =   0.0000000000000E+00
(PID.TID 0000.0001) %MON forcing_empmr_min            =   0.0000000000000E+00
(PID.TID 0000.0001) %MON forcing_empmr_mean           =   0.0000000000000E+00
(PID.TID 0000.0001) %MON forcing_empmr_sd             =   0.0000000000000E+00
(PID.TID 0000.0001) %MON forcing_empmr_del2           =   0.0000000000000E+00
(PID.TID 0000.0001) %MON forcing_fu_max               =   2.7446071654558E-01
(PID.TID 0000.0001) %MON forcing_fu_min               =  -1.5920810426275E-01
(PID.TID 0000.0001) %MON forcing_fu_mean              =   1.6113281057605E-02
(PID.TID 0000.0001) %MON forcing_fu_sd                =   9.0144235663722E-02
(PID.TID 0000.0001) %MON forcing_fu_del2              =   6.5420219060852E-04
(PID.TID 0000.0001) %MON forcing_fv_max               =   2.0858977933725E-01
(PID.TID 0000.0001) %MON forcing_fv_min               =  -1.8661443367600E-01
(PID.TID 0000.0001) %MON forcing_fv_mean              =  -6.3284543789867E-03
(PID.TID 0000.0001) %MON forcing_fv_sd                =   4.5207594835594E-02
(PID.TID 0000.0001) %MON forcing_fv_del2              =   4.4584970315419E-04
(PID.TID 0000.0001) %MON advcfl_uvel_max              =   5.5856193029661E-03
(PID.TID 0000.0001) %MON advcfl_vvel_max              =   3.2877442057508E-03
(PID.TID 0000.0001) %MON advcfl_wvel_max              =   2.7924063485945E-01
(PID.TID 0000.0001) %MON advcfl_W_hf_max              =   1.4449363595341E-01
(PID.TID 0000.0001) %MON pe_b_mean                    =   4.5743008236164E-06
(PID.TID 0000.0001) %MON ke_max                       =   4.0308382841890E-04
(PID.TID 0000.0001) %MON ke_mean                      =   2.1182669376064E-05
(PID.TID 0000.0001) %MON ke_vol                       =   1.3226782436722E+18
(PID.TID 0000.0001) %MON vort_r_min                   =  -1.0722450775978E-07
(PID.TID 0000.0001) %MON vort_r_max                   =   1.3041023481233E-07
(PID.TID 0000.0001) %MON vort_a_mean                  =  -2.5205769265888E-05
(PID.TID 0000.0001) %MON vort_a_sd                    =   7.3403114365457E-05
(PID.TID 0000.0001) %MON vort_p_mean                  =  -3.1758751348343E-05
(PID.TID 0000.0001) %MON vort_p_sd                    =   1.3126617455103E-04
(PID.TID 0000.0001) %MON surfExpan_theta_mean         =   8.3179051905480E-05
(PID.TID 0000.0001) %MON surfExpan_salt_mean          =   6.6674310782605E-06
(PID.TID 0000.0001) // =======================================================
(PID.TID 0000.0001) // End MONITOR dynamic field statistics
(PID.TID 0000.0001) // =======================================================
 cg2d: Sum(rhs),rhsMax =  -9.99200722162641E-16  6.30228980167606E+00
(PID.TID 0000.0001)                    cg2d_init_res =    2.20739908404816E+00
(PID.TID 0000.0001)                       cg2d_iters =    26
(PID.TID 0000.0001)                         cg2d_res =    2.89906160006607E-14
(PID.TID 0000.0001) // =======================================================
(PID.TID 0000.0001) // Begin MONITOR dynamic field statistics
(PID.TID 0000.0001) // =======================================================
(PID.TID 0000.0001) %MON time_tsnumber                =                     3
(PID.TID 0000.0001) %MON time_secondsf                =   1.2960000000000E+05
(PID.TID 0000.0001) %MON dynstat_eta_max              =   5.1145303960411E-01
(PID.TID 0000.0001) %MON dynstat_eta_min              =  -3.8057938990165E-01
(PID.TID 0000.0001) %MON dynstat_eta_mean             =  -7.0186781166229E-18
(PID.TID 0000.0001) %MON dynstat_eta_sd               =   9.2604417867293E-02
(PID.TID 0000.0001) %MON dynstat_eta_del2             =   2.8391641006209E-03
(PID.TID 0000.0001) %MON dynstat_uvel_max             =   3.1188983615586E-02
(PID.TID 0000.0001) %MON dynstat_uvel_min             =  -3.0283091422049E-02
(PID.TID 0000.0001) %MON dynstat_uvel_mean            =  -1.5691965494671E-03
(PID.TID 0000.0001) %MON dynstat_uvel_sd              =   3.0603698253455E-03
(PID.TID 0000.0001) %MON dynstat_uvel_del2            =   3.6885428175139E-05
(PID.TID 0000.0001) %MON dynstat_vvel_max             =   4.5497675682154E-02
(PID.TID 0000.0001) %MON dynstat_vvel_min             =  -2.4708569851754E-02
(PID.TID 0000.0001) %MON dynstat_vvel_mean            =   2.5619724935202E-03
(PID.TID 0000.0001) %MON dynstat_vvel_sd              =   8.5711502875801E-03
(PID.TID 0000.0001) %MON dynstat_vvel_del2            =   4.5001601256656E-05
(PID.TID 0000.0001) %MON dynstat_wvel_max             =   2.0233742969693E-04
(PID.TID 0000.0001) %MON dynstat_wvel_min             =  -1.7004808506487E-04
(PID.TID 0000.0001) %MON dynstat_wvel_mean            =  -1.6206312232405E-21
(PID.TID 0000.0001) %MON dynstat_wvel_sd              =   2.7050362954877E-05
(PID.TID 0000.0001) %MON dynstat_wvel_del2            =   2.6421369543913E-07
(PID.TID 0000.0001) %MON dynstat_theta_max            =   2.9686973787925E+01
(PID.TID 0000.0001) %MON dynstat_theta_min            =  -1.9101640430545E+00
(PID.TID 0000.0001) %MON dynstat_theta_mean           =   3.6171035597167E+00
(PID.TID 0000.0001) %MON dynstat_theta_sd             =   4.4112810071472E+00
(PID.TID 0000.0001) %MON dynstat_theta_del2           =   5.3861824159252E-03
(PID.TID 0000.0001) %MON dynstat_salt_max             =   3.7461879965891E+01
(PID.TID 0000.0001) %MON dynstat_salt_min             =   2.9760605038924E+01
(PID.TID 0000.0001) %MON dynstat_salt_mean            =   3.4717791013807E+01
(PID.TID 0000.0001) %MON dynstat_salt_sd              =   2.9604843421957E-01
(PID.TID 0000.0001) %MON dynstat_salt_del2            =   1.0141062598934E-03
(PID.TID 0000.0001) %MON forcing_qnet_max             =   4.2693899536133E+02
(PID.TID 0000.0001) %MON forcing_qnet_min             =  -1.8655982259115E+02
(PID.TID 0000.0001) %MON forcing_qnet_mean            =  -1.6687693382567E+01
(PID.TID 0000.0001) %MON forcing_qnet_sd              =   1.1263946608433E+02
(PID.TID 0000.0001) %MON forcing_qnet_del2            =   9.9183674388333E-01
(PID.TID 0000.0001) %MON forcing_qsw_max              =   0.0000000000000E+00
(PID.TID 0000.0001) %MON forcing_qsw_min              =   0.0000000000000E+00
(PID.TID 0000.0001) %MON forcing_qsw_mean             =   0.0000000000000E+00
(PID.TID 0000.0001) %MON forcing_qsw_sd               =   0.0000000000000E+00
(PID.TID 0000.0001) %MON forcing_qsw_del2             =   0.0000000000000E+00
(PID.TID 0000.0001) %MON forcing_empmr_max            =   0.0000000000000E+00
(PID.TID 0000.0001) %MON forcing_empmr_min            =   0.0000000000000E+00
(PID.TID 0000.0001) %MON forcing_empmr_mean           =   0.0000000000000E+00
(PID.TID 0000.0001) %MON forcing_empmr_sd             =   0.0000000000000E+00
(PID.TID 0000.0001) %MON forcing_empmr_del2           =   0.0000000000000E+00
(PID.TID 0000.0001) %MON forcing_fu_max               =   2.7403144240379E-01
(PID.TID 0000.0001) %MON forcing_fu_min               =  -1.5949268937111E-01
(PID.TID 0000.0001) %MON forcing_fu_mean              =   1.6109434647086E-02
(PID.TID 0000.0001) %MON forcing_fu_sd                =   9.0138031840955E-02
(PID.TID 0000.0001) %MON forcing_fu_del2              =   6.5488191036968E-04
(PID.TID 0000.0001) %MON forcing_fv_max               =   2.0882657567660E-01
(PID.TID 0000.0001) %MON forcing_fv_min               =  -1.8632210493088E-01
(PID.TID 0000.0001) %MON forcing_fv_mean              =  -6.2915731155563E-03
(PID.TID 0000.0001) %MON forcing_fv_sd                =   4.5261152700224E-02
(PID.TID 0000.0001) %MON forcing_fv_del2              =   4.4588571962377E-04
(PID.TID 0000.0001) %MON advcfl_uvel_max              =   7.0027307133566E-03
(PID.TID 0000.0001) %MON advcfl_vvel_max              =   4.4197343450264E-03
(PID.TID 0000.0001) %MON advcfl_wvel_max              =   2.0967850073094E-01
(PID.TID 0000.0001) %MON advcfl_W_hf_max              =   1.0902203616145E-01
(PID.TID 0000.0001) %MON pe_b_mean                    =   1.0973485956545E-05
(PID.TID 0000.0001) %MON ke_max                       =   8.0387465076047E-04
(PID.TID 0000.0001) %MON ke_mean                      =   4.1301715403867E-05
(PID.TID 0000.0001) %MON ke_vol                       =   1.3226782436722E+18
(PID.TID 0000.0001) %MON vort_r_min                   =  -1.6052529687177E-07
(PID.TID 0000.0001) %MON vort_r_max                   =   1.9055740302968E-07
(PID.TID 0000.0001) %MON vort_a_mean                  =  -2.5205769253761E-05
(PID.TID 0000.0001) %MON vort_a_sd                    =   7.3402980024253E-05
(PID.TID 0000.0001) %MON vort_p_mean                  =  -3.1758834527190E-05
(PID.TID 0000.0001) %MON vort_p_sd                    =   1.3126621209063E-04
(PID.TID 0000.0001) %MON surfExpan_theta_mean         =   1.1248175615642E-04
(PID.TID 0000.0001) %MON surfExpan_salt_mean          =   9.2656374561427E-06
(PID.TID 0000.0001) // =======================================================
(PID.TID 0000.0001) // End MONITOR dynamic field statistics
(PID.TID 0000.0001) // =======================================================
 EXTERNAL_FIELDS_LOAD, it=         3 : Reading new data, i0,i1=   12    1 (prev=   12    0 )
 cg2d: Sum(rhs),rhsMax =   4.88498130835069E-15  6.81726841666917E+00
(PID.TID 0000.0001)                    cg2d_init_res =    1.85666041186130E+00
(PID.TID 0000.0001)                       cg2d_iters =    26
(PID.TID 0000.0001)                         cg2d_res =    2.64970186532585E-14
(PID.TID 0000.0001) // =======================================================
(PID.TID 0000.0001) // Begin MONITOR dynamic field statistics
(PID.TID 0000.0001) // =======================================================
(PID.TID 0000.0001) %MON time_tsnumber                =                     4
(PID.TID 0000.0001) %MON time_secondsf                =   1.7280000000000E+05
(PID.TID 0000.0001) %MON dynstat_eta_max              =   5.9298420489292E-01
(PID.TID 0000.0001) %MON dynstat_eta_min              =  -4.9762575244280E-01
(PID.TID 0000.0001) %MON dynstat_eta_mean             =  -1.4263765204750E-17
(PID.TID 0000.0001) %MON dynstat_eta_sd               =   1.2302245779131E-01
(PID.TID 0000.0001) %MON dynstat_eta_del2             =   2.9960740005464E-03
(PID.TID 0000.0001) %MON dynstat_uvel_max             =   4.3855557502263E-02
(PID.TID 0000.0001) %MON dynstat_uvel_min             =  -4.3142776096981E-02
(PID.TID 0000.0001) %MON dynstat_uvel_mean            =  -2.3645863820376E-03
(PID.TID 0000.0001) %MON dynstat_uvel_sd              =   4.1284672050898E-03
(PID.TID 0000.0001) %MON dynstat_uvel_del2            =   4.9829816399970E-05
(PID.TID 0000.0001) %MON dynstat_vvel_max             =   5.3788079421114E-02
(PID.TID 0000.0001) %MON dynstat_vvel_min             =  -3.6667354931817E-02
(PID.TID 0000.0001) %MON dynstat_vvel_mean            =   3.2749676821530E-03
(PID.TID 0000.0001) %MON dynstat_vvel_sd              =   1.0541874836528E-02
(PID.TID 0000.0001) %MON dynstat_vvel_del2            =   6.1847900230144E-05
(PID.TID 0000.0001) %MON dynstat_wvel_max             =   2.0977794008611E-04
(PID.TID 0000.0001) %MON dynstat_wvel_min             =  -2.0786227920191E-04
(PID.TID 0000.0001) %MON dynstat_wvel_mean            =  -8.9252154323389E-22
(PID.TID 0000.0001) %MON dynstat_wvel_sd              =   2.8990428510203E-05
(PID.TID 0000.0001) %MON dynstat_wvel_del2            =   2.6673378289447E-07
(PID.TID 0000.0001) %MON dynstat_theta_max            =   2.9692859895241E+01
(PID.TID 0000.0001) %MON dynstat_theta_min            =  -1.9241321512026E+00
(PID.TID 0000.0001) %MON dynstat_theta_mean           =   3.6156448701197E+00
(PID.TID 0000.0001) %MON dynstat_theta_sd             =   4.4081447038113E+00
(PID.TID 0000.0001) %MON dynstat_theta_del2           =   5.3409426925891E-03
(PID.TID 0000.0001) %MON dynstat_salt_max             =   3.7457597422400E+01
(PID.TID 0000.0001) %MON dynstat_salt_min             =   2.9764216231339E+01
(PID.TID 0000.0001) %MON dynstat_salt_mean            =   3.4717667822675E+01
(PID.TID 0000.0001) %MON dynstat_salt_sd              =   2.9603681570268E-01
(PID.TID 0000.0001) %MON dynstat_salt_del2            =   1.0120130075396E-03
(PID.TID 0000.0001) %MON forcing_qnet_max             =   4.2746308898926E+02
(PID.TID 0000.0001) %MON forcing_qnet_min             =  -1.8632624130249E+02
(PID.TID 0000.0001) %MON forcing_qnet_mean            =  -1.6681437404655E+01
(PID.TID 0000.0001) %MON forcing_qnet_sd              =   1.1253182025933E+02
(PID.TID 0000.0001) %MON forcing_qnet_del2            =   9.9242224579849E-01
(PID.TID 0000.0001) %MON forcing_qsw_max              =   0.0000000000000E+00
(PID.TID 0000.0001) %MON forcing_qsw_min              =   0.0000000000000E+00
(PID.TID 0000.0001) %MON forcing_qsw_mean             =   0.0000000000000E+00
(PID.TID 0000.0001) %MON forcing_qsw_sd               =   0.0000000000000E+00
(PID.TID 0000.0001) %MON forcing_qsw_del2             =   0.0000000000000E+00
(PID.TID 0000.0001) %MON forcing_empmr_max            =   0.0000000000000E+00
(PID.TID 0000.0001) %MON forcing_empmr_min            =   0.0000000000000E+00
(PID.TID 0000.0001) %MON forcing_empmr_mean           =   0.0000000000000E+00
(PID.TID 0000.0001) %MON forcing_empmr_sd             =   0.0000000000000E+00
(PID.TID 0000.0001) %MON forcing_empmr_del2           =   0.0000000000000E+00
(PID.TID 0000.0001) %MON forcing_fu_max               =   2.7360216826200E-01
(PID.TID 0000.0001) %MON forcing_fu_min               =  -1.5989939942956E-01
(PID.TID 0000.0001) %MON forcing_fu_mean              =   1.6105588236568E-02
(PID.TID 0000.0001) %MON forcing_fu_sd                =   9.0134543922067E-02
(PID.TID 0000.0001) %MON forcing_fu_del2              =   6.5569541955203E-04
(PID.TID 0000.0001) %MON forcing_fv_max               =   2.0906337201595E-01
(PID.TID 0000.0001) %MON forcing_fv_min               =  -1.8602977618575E-01
(PID.TID 0000.0001) %MON forcing_fv_mean              =  -6.2546918521259E-03
(PID.TID 0000.0001) %MON forcing_fv_sd                =   4.5318552119942E-02
(PID.TID 0000.0001) %MON forcing_fv_del2              =   4.4605916505437E-04
(PID.TID 0000.0001) %MON advcfl_uvel_max              =   9.4664767789471E-03
(PID.TID 0000.0001) %MON advcfl_vvel_max              =   5.2250805872211E-03
(PID.TID 0000.0001) %MON advcfl_wvel_max              =   2.3782206379032E-01
(PID.TID 0000.0001) %MON advcfl_W_hf_max              =   1.1862763272047E-01
(PID.TID 0000.0001) %MON pe_b_mean                    =   1.9366449099497E-05
(PID.TID 0000.0001) %MON ke_max                       =   1.2669622173453E-03
(PID.TID 0000.0001) %MON ke_mean                      =   6.4989855188286E-05
(PID.TID 0000.0001) %MON ke_vol                       =   1.3226782436722E+18
(PID.TID 0000.0001) %MON vort_r_min                   =  -2.1230895951224E-07
(PID.TID 0000.0001) %MON vort_r_max                   =   2.4554353011947E-07
(PID.TID 0000.0001) %MON vort_a_mean                  =  -2.5205769238877E-05
(PID.TID 0000.0001) %MON vort_a_sd                    =   7.3402826360365E-05
(PID.TID 0000.0001) %MON vort_p_mean                  =  -3.1758889225096E-05
(PID.TID 0000.0001) %MON vort_p_sd                    =   1.3126611257982E-04
(PID.TID 0000.0001) %MON surfExpan_theta_mean         =   1.3485889446233E-04
(PID.TID 0000.0001) %MON surfExpan_salt_mean          =   1.1212760486450E-05
(PID.TID 0000.0001) // =======================================================
(PID.TID 0000.0001) // End MONITOR dynamic field statistics
(PID.TID 0000.0001) // =======================================================
 cg2d: Sum(rhs),rhsMax =  -3.01980662698043E-14  6.91967974525862E+00
(PID.TID 0000.0001)                    cg2d_init_res =    1.78283234397899E+00
(PID.TID 0000.0001)                       cg2d_iters =    26
(PID.TID 0000.0001)                         cg2d_res =    2.66203804564412E-14
(PID.TID 0000.0001) // =======================================================
(PID.TID 0000.0001) // Begin MONITOR dynamic field statistics
(PID.TID 0000.0001) // =======================================================
(PID.TID 0000.0001) %MON time_tsnumber                =                     5
(PID.TID 0000.0001) %MON time_secondsf                =   2.1600000000000E+05
(PID.TID 0000.0001) %MON dynstat_eta_max              =   6.3632971962275E-01
(PID.TID 0000.0001) %MON dynstat_eta_min              =  -5.7673180030732E-01
(PID.TID 0000.0001) %MON dynstat_eta_mean             =   4.5281794300793E-18
(PID.TID 0000.0001) %MON dynstat_eta_sd               =   1.5170376630818E-01
(PID.TID 0000.0001) %MON dynstat_eta_del2             =   2.9216752217885E-03
(PID.TID 0000.0001) %MON dynstat_uvel_max             =   5.6469603384161E-02
(PID.TID 0000.0001) %MON dynstat_uvel_min             =  -5.4254417013350E-02
(PID.TID 0000.0001) %MON dynstat_uvel_mean            =  -3.2479802373444E-03
(PID.TID 0000.0001) %MON dynstat_uvel_sd              =   5.3176553783756E-03
(PID.TID 0000.0001) %MON dynstat_uvel_del2            =   6.1287699261323E-05
(PID.TID 0000.0001) %MON dynstat_vvel_max             =   5.9776078775037E-02
(PID.TID 0000.0001) %MON dynstat_vvel_min             =  -4.8162703371432E-02
(PID.TID 0000.0001) %MON dynstat_vvel_mean            =   3.8874370613802E-03
(PID.TID 0000.0001) %MON dynstat_vvel_sd              =   1.2165795764065E-02
(PID.TID 0000.0001) %MON dynstat_vvel_del2            =   7.7091469533421E-05
(PID.TID 0000.0001) %MON dynstat_wvel_max             =   2.4145855094649E-04
(PID.TID 0000.0001) %MON dynstat_wvel_min             =  -2.4354017514566E-04
(PID.TID 0000.0001) %MON dynstat_wvel_mean            =  -2.8184890838965E-22
(PID.TID 0000.0001) %MON dynstat_wvel_sd              =   3.0856076844393E-05
(PID.TID 0000.0001) %MON dynstat_wvel_del2            =   2.9644920601321E-07
(PID.TID 0000.0001) %MON dynstat_theta_max            =   2.9706136276145E+01
(PID.TID 0000.0001) %MON dynstat_theta_min            =  -1.9423123947031E+00
(PID.TID 0000.0001) %MON dynstat_theta_mean           =   3.6140100420693E+00
(PID.TID 0000.0001) %MON dynstat_theta_sd             =   4.4046293409912E+00
(PID.TID 0000.0001) %MON dynstat_theta_del2           =   5.3076315286587E-03
(PID.TID 0000.0001) %MON dynstat_salt_max             =   3.7453604363022E+01
(PID.TID 0000.0001) %MON dynstat_salt_min             =   2.9768036216567E+01
(PID.TID 0000.0001) %MON dynstat_salt_mean            =   3.4717530255992E+01
(PID.TID 0000.0001) %MON dynstat_salt_sd              =   2.9602597441699E-01
(PID.TID 0000.0001) %MON dynstat_salt_del2            =   1.0088484435241E-03
(PID.TID 0000.0001) %MON forcing_qnet_max             =   4.2798718261719E+02
(PID.TID 0000.0001) %MON forcing_qnet_min             =  -1.8609266001383E+02
(PID.TID 0000.0001) %MON forcing_qnet_mean            =  -1.6675181426744E+01
(PID.TID 0000.0001) %MON forcing_qnet_sd              =   1.1242481361476E+02
(PID.TID 0000.0001) %MON forcing_qnet_del2            =   9.9305199082959E-01
(PID.TID 0000.0001) %MON forcing_qsw_max              =   0.0000000000000E+00
(PID.TID 0000.0001) %MON forcing_qsw_min              =   0.0000000000000E+00
(PID.TID 0000.0001) %MON forcing_qsw_mean             =   0.0000000000000E+00
(PID.TID 0000.0001) %MON forcing_qsw_sd               =   0.0000000000000E+00
(PID.TID 0000.0001) %MON forcing_qsw_del2             =   0.0000000000000E+00
(PID.TID 0000.0001) %MON forcing_empmr_max            =   0.0000000000000E+00
(PID.TID 0000.0001) %MON forcing_empmr_min            =   0.0000000000000E+00
(PID.TID 0000.0001) %MON forcing_empmr_mean           =   0.0000000000000E+00
(PID.TID 0000.0001) %MON forcing_empmr_sd             =   0.0000000000000E+00
(PID.TID 0000.0001) %MON forcing_empmr_del2           =   0.0000000000000E+00
(PID.TID 0000.0001) %MON forcing_fu_max               =   2.7317289412022E-01
(PID.TID 0000.0001) %MON forcing_fu_min               =  -1.6030610948801E-01
(PID.TID 0000.0001) %MON forcing_fu_mean              =   1.6101741826049E-02
(PID.TID 0000.0001) %MON forcing_fu_sd                =   9.0133772222350E-02
(PID.TID 0000.0001) %MON forcing_fu_del2              =   6.5664222090357E-04
(PID.TID 0000.0001) %MON forcing_fv_max               =   2.0930016835531E-01
(PID.TID 0000.0001) %MON forcing_fv_min               =  -1.8573744744062E-01
(PID.TID 0000.0001) %MON forcing_fv_mean              =  -6.2178105886955E-03
(PID.TID 0000.0001) %MON forcing_fv_sd                =   4.5379778517573E-02
(PID.TID 0000.0001) %MON forcing_fv_del2              =   4.4636987924417E-04
(PID.TID 0000.0001) %MON advcfl_uvel_max              =   1.2404736258952E-02
(PID.TID 0000.0001) %MON advcfl_vvel_max              =   5.8067667064730E-03
(PID.TID 0000.0001) %MON advcfl_wvel_max              =   2.4905788877854E-01
(PID.TID 0000.0001) %MON advcfl_W_hf_max              =   1.2559028977295E-01
(PID.TID 0000.0001) %MON pe_b_mean                    =   2.9449228801627E-05
(PID.TID 0000.0001) %MON ke_max                       =   1.8396677117500E-03
(PID.TID 0000.0001) %MON ke_mean                      =   9.0869924810200E-05
(PID.TID 0000.0001) %MON ke_vol                       =   1.3226782436722E+18
(PID.TID 0000.0001) %MON vort_r_min                   =  -2.5864227321788E-07
(PID.TID 0000.0001) %MON vort_r_max                   =   2.9365405610962E-07
(PID.TID 0000.0001) %MON vort_a_mean                  =  -2.5205769223572E-05
(PID.TID 0000.0001) %MON vort_a_sd                    =   7.3402658279266E-05
(PID.TID 0000.0001) %MON vort_p_mean                  =  -3.1758916838973E-05
(PID.TID 0000.0001) %MON vort_p_sd                    =   1.3126588261985E-04
(PID.TID 0000.0001) %MON surfExpan_theta_mean         =   1.5117582711641E-04
(PID.TID 0000.0001) %MON surfExpan_salt_mean          =   1.2542004953023E-05
(PID.TID 0000.0001) // =======================================================
(PID.TID 0000.0001) // End MONITOR dynamic field statistics
(PID.TID 0000.0001) // =======================================================
 cg2d: Sum(rhs),rhsMax =   2.66453525910038E-14  6.87878101803785E+00
(PID.TID 0000.0001)                    cg2d_init_res =    1.74759133709308E+00
(PID.TID 0000.0001)                       cg2d_iters =    26
(PID.TID 0000.0001)                         cg2d_res =    2.85702380880764E-14
(PID.TID 0000.0001) // =======================================================
(PID.TID 0000.0001) // Begin MONITOR dynamic field statistics
(PID.TID 0000.0001) // =======================================================
(PID.TID 0000.0001) %MON time_tsnumber                =                     6
(PID.TID 0000.0001) %MON time_secondsf                =   2.5920000000000E+05
(PID.TID 0000.0001) %MON dynstat_eta_max              =   7.2954334757608E-01
(PID.TID 0000.0001) %MON dynstat_eta_min              =  -6.3761885253059E-01
(PID.TID 0000.0001) %MON dynstat_eta_mean             =   1.2226084461214E-17
(PID.TID 0000.0001) %MON dynstat_eta_sd               =   1.7930331967004E-01
(PID.TID 0000.0001) %MON dynstat_eta_del2             =   2.7741418450236E-03
(PID.TID 0000.0001) %MON dynstat_uvel_max             =   6.8696798694642E-02
(PID.TID 0000.0001) %MON dynstat_uvel_min             =  -6.3370506270226E-02
(PID.TID 0000.0001) %MON dynstat_uvel_mean            =  -4.1885207011628E-03
(PID.TID 0000.0001) %MON dynstat_uvel_sd              =   6.5895928555918E-03
(PID.TID 0000.0001) %MON dynstat_uvel_del2            =   7.1301239046459E-05
(PID.TID 0000.0001) %MON dynstat_vvel_max             =   6.9459981287140E-02
(PID.TID 0000.0001) %MON dynstat_vvel_min             =  -5.9112522658990E-02
(PID.TID 0000.0001) %MON dynstat_vvel_mean            =   4.3862709584631E-03
(PID.TID 0000.0001) %MON dynstat_vvel_sd              =   1.3458637606343E-02
(PID.TID 0000.0001) %MON dynstat_vvel_del2            =   8.9858826476937E-05
(PID.TID 0000.0001) %MON dynstat_wvel_max             =   2.6805351874011E-04
(PID.TID 0000.0001) %MON dynstat_wvel_min             =  -2.7422323774307E-04
(PID.TID 0000.0001) %MON dynstat_wvel_mean            =   9.3949636129883E-23
(PID.TID 0000.0001) %MON dynstat_wvel_sd              =   3.2788110404344E-05
(PID.TID 0000.0001) %MON dynstat_wvel_del2            =   3.3573858783135E-07
(PID.TID 0000.0001) %MON dynstat_theta_max            =   2.9716931955462E+01
(PID.TID 0000.0001) %MON dynstat_theta_min            =  -1.9627742015600E+00
(PID.TID 0000.0001) %MON dynstat_theta_mean           =   3.6122583343306E+00
(PID.TID 0000.0001) %MON dynstat_theta_sd             =   4.4008137077135E+00
(PID.TID 0000.0001) %MON dynstat_theta_del2           =   5.2764644973536E-03
(PID.TID 0000.0001) %MON dynstat_salt_max             =   3.7450112513623E+01
(PID.TID 0000.0001) %MON dynstat_salt_min             =   2.9771878279461E+01
(PID.TID 0000.0001) %MON dynstat_salt_mean            =   3.4717384280490E+01
(PID.TID 0000.0001) %MON dynstat_salt_sd              =   2.9600857975427E-01
(PID.TID 0000.0001) %MON dynstat_salt_del2            =   1.0057517952095E-03
(PID.TID 0000.0001) %MON forcing_qnet_max             =   4.2851127624512E+02
(PID.TID 0000.0001) %MON forcing_qnet_min             =  -1.8585907872518E+02
(PID.TID 0000.0001) %MON forcing_qnet_mean            =  -1.6668925448832E+01
(PID.TID 0000.0001) %MON forcing_qnet_sd              =   1.1231844797748E+02
(PID.TID 0000.0001) %MON forcing_qnet_del2            =   9.9372589486325E-01
(PID.TID 0000.0001) %MON forcing_qsw_max              =   0.0000000000000E+00
(PID.TID 0000.0001) %MON forcing_qsw_min              =   0.0000000000000E+00
(PID.TID 0000.0001) %MON forcing_qsw_mean             =   0.0000000000000E+00
(PID.TID 0000.0001) %MON forcing_qsw_sd               =   0.0000000000000E+00
(PID.TID 0000.0001) %MON forcing_qsw_del2             =   0.0000000000000E+00
(PID.TID 0000.0001) %MON forcing_empmr_max            =   0.0000000000000E+00
(PID.TID 0000.0001) %MON forcing_empmr_min            =   0.0000000000000E+00
(PID.TID 0000.0001) %MON forcing_empmr_mean           =   0.0000000000000E+00
(PID.TID 0000.0001) %MON forcing_empmr_sd             =   0.0000000000000E+00
(PID.TID 0000.0001) %MON forcing_empmr_del2           =   0.0000000000000E+00
(PID.TID 0000.0001) %MON forcing_fu_max               =   2.7274361997843E-01
(PID.TID 0000.0001) %MON forcing_fu_min               =  -1.6071281954646E-01
(PID.TID 0000.0001) %MON forcing_fu_mean              =   1.6097895415531E-02
(PID.TID 0000.0001) %MON forcing_fu_sd                =   9.0135716811571E-02
(PID.TID 0000.0001) %MON forcing_fu_del2              =   6.5772173879570E-04
(PID.TID 0000.0001) %MON forcing_fv_max               =   2.0962250605226E-01
(PID.TID 0000.0001) %MON forcing_fv_min               =  -1.8544511869550E-01
(PID.TID 0000.0001) %MON forcing_fv_mean              =  -6.1809293252651E-03
(PID.TID 0000.0001) %MON forcing_fv_sd                =   4.5444816425210E-02
(PID.TID 0000.0001) %MON forcing_fv_del2              =   4.4681757582574E-04
(PID.TID 0000.0001) %MON advcfl_uvel_max              =   1.5145761814683E-02
(PID.TID 0000.0001) %MON advcfl_vvel_max              =   6.7474801799618E-03
(PID.TID 0000.0001) %MON advcfl_wvel_max              =   2.1702571281208E-01
(PID.TID 0000.0001) %MON advcfl_W_hf_max              =   1.1183975310098E-01
(PID.TID 0000.0001) %MON pe_b_mean                    =   4.1139391220987E-05
(PID.TID 0000.0001) %MON ke_max                       =   2.4635294953301E-03
(PID.TID 0000.0001) %MON ke_mean                      =   1.1765364257688E-04
(PID.TID 0000.0001) %MON ke_vol                       =   1.3226782436722E+18
(PID.TID 0000.0001) %MON vort_r_min                   =  -2.9739804006020E-07
(PID.TID 0000.0001) %MON vort_r_max                   =   3.3421452871358E-07
(PID.TID 0000.0001) %MON vort_a_mean                  =  -2.5205769235328E-05
(PID.TID 0000.0001) %MON vort_a_sd                    =   7.3402480591392E-05
(PID.TID 0000.0001) %MON vort_p_mean                  =  -3.1758927990940E-05
(PID.TID 0000.0001) %MON vort_p_sd                    =   1.3126555872390E-04
(PID.TID 0000.0001) %MON surfExpan_theta_mean         =   1.6207411305204E-04
(PID.TID 0000.0001) %MON surfExpan_salt_mean          =   1.3324775809016E-05
(PID.TID 0000.0001) // =======================================================
(PID.TID 0000.0001) // End MONITOR dynamic field statistics
(PID.TID 0000.0001) // =======================================================
 EXTERNAL_FIELDS_LOAD, it=         6 : Reading new data, i0,i1=   12    1 (prev=   12    0 )
 cg2d: Sum(rhs),rhsMax =   1.11910480882216E-13  7.25010420566021E+00
(PID.TID 0000.0001)                    cg2d_init_res =    1.59989520500379E+00
(PID.TID 0000.0001)                       cg2d_iters =    26
(PID.TID 0000.0001)                         cg2d_res =    2.68496103686728E-14
(PID.TID 0000.0001) // =======================================================
(PID.TID 0000.0001) // Begin MONITOR dynamic field statistics
(PID.TID 0000.0001) // =======================================================
(PID.TID 0000.0001) %MON time_tsnumber                =                     7
(PID.TID 0000.0001) %MON time_secondsf                =   3.0240000000000E+05
(PID.TID 0000.0001) %MON dynstat_eta_max              =   8.3348732220622E-01
(PID.TID 0000.0001) %MON dynstat_eta_min              =  -6.9205693539060E-01
(PID.TID 0000.0001) %MON dynstat_eta_mean             =   3.3508527782587E-17
(PID.TID 0000.0001) %MON dynstat_eta_sd               =   2.0600516105489E-01
(PID.TID 0000.0001) %MON dynstat_eta_del2             =   2.6355885044116E-03
(PID.TID 0000.0001) %MON dynstat_uvel_max             =   8.0350517438325E-02
(PID.TID 0000.0001) %MON dynstat_uvel_min             =  -7.7917523293704E-02
(PID.TID 0000.0001) %MON dynstat_uvel_mean            =  -5.1546258612976E-03
(PID.TID 0000.0001) %MON dynstat_uvel_sd              =   7.9091911972450E-03
(PID.TID 0000.0001) %MON dynstat_uvel_del2            =   8.0149879220582E-05
(PID.TID 0000.0001) %MON dynstat_vvel_max             =   7.9307932259402E-02
(PID.TID 0000.0001) %MON dynstat_vvel_min             =  -6.9997977431607E-02
(PID.TID 0000.0001) %MON dynstat_vvel_mean            =   4.7623555164681E-03
(PID.TID 0000.0001) %MON dynstat_vvel_sd              =   1.4435929802823E-02
(PID.TID 0000.0001) %MON dynstat_vvel_del2            =   1.0026035602247E-04
(PID.TID 0000.0001) %MON dynstat_wvel_max             =   2.8911988302486E-04
(PID.TID 0000.0001) %MON dynstat_wvel_min             =  -2.9896642055895E-04
(PID.TID 0000.0001) %MON dynstat_wvel_mean            =  -1.3152949058184E-21
(PID.TID 0000.0001) %MON dynstat_wvel_sd              =   3.4652155271407E-05
(PID.TID 0000.0001) %MON dynstat_wvel_del2            =   3.7328298449059E-07
(PID.TID 0000.0001) %MON dynstat_theta_max            =   2.9717980072665E+01
(PID.TID 0000.0001) %MON dynstat_theta_min            =  -1.9833482258632E+00
(PID.TID 0000.0001) %MON dynstat_theta_mean           =   3.6104435361790E+00
(PID.TID 0000.0001) %MON dynstat_theta_sd             =   4.3967768764859E+00
(PID.TID 0000.0001) %MON dynstat_theta_del2           =   5.2405870911478E-03
(PID.TID 0000.0001) %MON dynstat_salt_max             =   3.7447250294228E+01
(PID.TID 0000.0001) %MON dynstat_salt_min             =   2.9775562250774E+01
(PID.TID 0000.0001) %MON dynstat_salt_mean            =   3.4717235081445E+01
(PID.TID 0000.0001) %MON dynstat_salt_sd              =   2.9598279376532E-01
(PID.TID 0000.0001) %MON dynstat_salt_del2            =   1.0026087477819E-03
(PID.TID 0000.0001) %MON forcing_qnet_max             =   4.2903536987305E+02
(PID.TID 0000.0001) %MON forcing_qnet_min             =  -1.8562549743652E+02
(PID.TID 0000.0001) %MON forcing_qnet_mean            =  -1.6662669470921E+01
(PID.TID 0000.0001) %MON forcing_qnet_sd              =   1.1221272517031E+02
(PID.TID 0000.0001) %MON forcing_qnet_del2            =   9.9444386812388E-01
(PID.TID 0000.0001) %MON forcing_qsw_max              =   0.0000000000000E+00
(PID.TID 0000.0001) %MON forcing_qsw_min              =   0.0000000000000E+00
(PID.TID 0000.0001) %MON forcing_qsw_mean             =   0.0000000000000E+00
(PID.TID 0000.0001) %MON forcing_qsw_sd               =   0.0000000000000E+00
(PID.TID 0000.0001) %MON forcing_qsw_del2             =   0.0000000000000E+00
(PID.TID 0000.0001) %MON forcing_empmr_max            =   0.0000000000000E+00
(PID.TID 0000.0001) %MON forcing_empmr_min            =   0.0000000000000E+00
(PID.TID 0000.0001) %MON forcing_empmr_mean           =   0.0000000000000E+00
(PID.TID 0000.0001) %MON forcing_empmr_sd             =   0.0000000000000E+00
(PID.TID 0000.0001) %MON forcing_empmr_del2           =   0.0000000000000E+00
(PID.TID 0000.0001) %MON forcing_fu_max               =   2.7231434583664E-01
(PID.TID 0000.0001) %MON forcing_fu_min               =  -1.6111952960491E-01
(PID.TID 0000.0001) %MON forcing_fu_mean              =   1.6094049005012E-02
(PID.TID 0000.0001) %MON forcing_fu_sd                =   9.0140377513934E-02
(PID.TID 0000.0001) %MON forcing_fu_del2              =   6.5893332094781E-04
(PID.TID 0000.0001) %MON forcing_fv_max               =   2.1056245863438E-01
(PID.TID 0000.0001) %MON forcing_fv_min               =  -1.8515278995037E-01
(PID.TID 0000.0001) %MON forcing_fv_mean              =  -6.1440480618347E-03
(PID.TID 0000.0001) %MON forcing_fv_sd                =   4.5513649503191E-02
(PID.TID 0000.0001) %MON forcing_fv_del2              =   4.4740184358134E-04
(PID.TID 0000.0001) %MON advcfl_uvel_max              =   1.7564103873437E-02
(PID.TID 0000.0001) %MON advcfl_vvel_max              =   7.7041296458446E-03
(PID.TID 0000.0001) %MON advcfl_wvel_max              =   1.8506661478481E-01
(PID.TID 0000.0001) %MON advcfl_W_hf_max              =   9.3594386418058E-02
(PID.TID 0000.0001) %MON pe_b_mean                    =   5.4304697892321E-05
(PID.TID 0000.0001) %MON ke_max                       =   3.2228479312405E-03
(PID.TID 0000.0001) %MON ke_mean                      =   1.4422985315685E-04
(PID.TID 0000.0001) %MON ke_vol                       =   1.3226782436722E+18
(PID.TID 0000.0001) %MON vort_r_min                   =  -3.2759826702910E-07
(PID.TID 0000.0001) %MON vort_r_max                   =   3.6777617476623E-07
(PID.TID 0000.0001) %MON vort_a_mean                  =  -2.5205769288964E-05
(PID.TID 0000.0001) %MON vort_a_sd                    =   7.3402298345462E-05
(PID.TID 0000.0001) %MON vort_p_mean                  =  -3.1758932203989E-05
(PID.TID 0000.0001) %MON vort_p_sd                    =   1.3126517980656E-04
(PID.TID 0000.0001) %MON surfExpan_theta_mean         =   1.6807211364436E-04
(PID.TID 0000.0001) %MON surfExpan_salt_mean          =   1.3632857506701E-05
(PID.TID 0000.0001) // =======================================================
(PID.TID 0000.0001) // End MONITOR dynamic field statistics
(PID.TID 0000.0001) // =======================================================
 cg2d: Sum(rhs),rhsMax =  -3.73034936274053E-14  7.86920938791581E+00
(PID.TID 0000.0001)                    cg2d_init_res =    1.41877095265417E+00
(PID.TID 0000.0001)                       cg2d_iters =    26
(PID.TID 0000.0001)                         cg2d_res =    2.39980866743207E-14
(PID.TID 0000.0001) // =======================================================
(PID.TID 0000.0001) // Begin MONITOR dynamic field statistics
(PID.TID 0000.0001) // =======================================================
(PID.TID 0000.0001) %MON time_tsnumber                =                     8
(PID.TID 0000.0001) %MON time_secondsf                =   3.4560000000000E+05
(PID.TID 0000.0001) %MON dynstat_eta_max              =   9.0789231328498E-01
(PID.TID 0000.0001) %MON dynstat_eta_min              =  -7.2753041837110E-01
(PID.TID 0000.0001) %MON dynstat_eta_mean             =  -2.1735261264381E-17
(PID.TID 0000.0001) %MON dynstat_eta_sd               =   2.3166806514533E-01
(PID.TID 0000.0001) %MON dynstat_eta_del2             =   2.5291757103782E-03
(PID.TID 0000.0001) %MON dynstat_uvel_max             =   9.1359739344757E-02
(PID.TID 0000.0001) %MON dynstat_uvel_min             =  -9.8312193725158E-02
(PID.TID 0000.0001) %MON dynstat_uvel_mean            =  -6.1147016716302E-03
(PID.TID 0000.0001) %MON dynstat_uvel_sd              =   9.2437146917097E-03
(PID.TID 0000.0001) %MON dynstat_uvel_del2            =   8.8044544447136E-05
(PID.TID 0000.0001) %MON dynstat_vvel_max             =   8.5968380324716E-02
(PID.TID 0000.0001) %MON dynstat_vvel_min             =  -7.9888673183797E-02
(PID.TID 0000.0001) %MON dynstat_vvel_mean            =   5.0111066203718E-03
(PID.TID 0000.0001) %MON dynstat_vvel_sd              =   1.5118577265437E-02
(PID.TID 0000.0001) %MON dynstat_vvel_del2            =   1.0869288778308E-04
(PID.TID 0000.0001) %MON dynstat_wvel_max             =   3.0380150829578E-04
(PID.TID 0000.0001) %MON dynstat_wvel_min             =  -3.1733646011605E-04
(PID.TID 0000.0001) %MON dynstat_wvel_mean            =  -2.9124387200264E-21
(PID.TID 0000.0001) %MON dynstat_wvel_sd              =   3.6252162712969E-05
(PID.TID 0000.0001) %MON dynstat_wvel_del2            =   4.0329860877394E-07
(PID.TID 0000.0001) %MON dynstat_theta_max            =   2.9708605944761E+01
(PID.TID 0000.0001) %MON dynstat_theta_min            =  -2.0020235021087E+00
(PID.TID 0000.0001) %MON dynstat_theta_mean           =   3.6086140903701E+00
(PID.TID 0000.0001) %MON dynstat_theta_sd             =   4.3925958399541E+00
(PID.TID 0000.0001) %MON dynstat_theta_del2           =   5.1996386985553E-03
(PID.TID 0000.0001) %MON dynstat_salt_max             =   3.7444992175370E+01
(PID.TID 0000.0001) %MON dynstat_salt_min             =   2.9778924155844E+01
(PID.TID 0000.0001) %MON dynstat_salt_mean            =   3.4717087175043E+01
(PID.TID 0000.0001) %MON dynstat_salt_sd              =   2.9594850551263E-01
(PID.TID 0000.0001) %MON dynstat_salt_del2            =   9.9938068678189E-04
(PID.TID 0000.0001) %MON forcing_qnet_max             =   4.2955946350098E+02
(PID.TID 0000.0001) %MON forcing_qnet_min             =  -1.8539191614787E+02
(PID.TID 0000.0001) %MON forcing_qnet_mean            =  -1.6656413493009E+01
(PID.TID 0000.0001) %MON forcing_qnet_sd              =   1.1210764701191E+02
(PID.TID 0000.0001) %MON forcing_qnet_del2            =   9.9520581523265E-01
(PID.TID 0000.0001) %MON forcing_qsw_max              =   0.0000000000000E+00
(PID.TID 0000.0001) %MON forcing_qsw_min              =   0.0000000000000E+00
(PID.TID 0000.0001) %MON forcing_qsw_mean             =   0.0000000000000E+00
(PID.TID 0000.0001) %MON forcing_qsw_sd               =   0.0000000000000E+00
(PID.TID 0000.0001) %MON forcing_qsw_del2             =   0.0000000000000E+00
(PID.TID 0000.0001) %MON forcing_empmr_max            =   0.0000000000000E+00
(PID.TID 0000.0001) %MON forcing_empmr_min            =   0.0000000000000E+00
(PID.TID 0000.0001) %MON forcing_empmr_mean           =   0.0000000000000E+00
(PID.TID 0000.0001) %MON forcing_empmr_sd             =   0.0000000000000E+00
(PID.TID 0000.0001) %MON forcing_empmr_del2           =   0.0000000000000E+00
(PID.TID 0000.0001) %MON forcing_fu_max               =   2.7188507169485E-01
(PID.TID 0000.0001) %MON forcing_fu_min               =  -1.6152623966336E-01
(PID.TID 0000.0001) %MON forcing_fu_mean              =   1.6090202594493E-02
(PID.TID 0000.0001) %MON forcing_fu_sd                =   9.0147753908164E-02
(PID.TID 0000.0001) %MON forcing_fu_del2              =   6.6027624036139E-04
(PID.TID 0000.0001) %MON forcing_fv_max               =   2.1150241121650E-01
(PID.TID 0000.0001) %MON forcing_fv_min               =  -1.8486046120524E-01
(PID.TID 0000.0001) %MON forcing_fv_mean              =  -6.1071667984043E-03
(PID.TID 0000.0001) %MON forcing_fv_sd                =   4.5586260559939E-02
(PID.TID 0000.0001) %MON forcing_fv_del2              =   4.4812214832125E-04
(PID.TID 0000.0001) %MON advcfl_uvel_max              =   1.8679734369017E-02
(PID.TID 0000.0001) %MON advcfl_vvel_max              =   8.3511387650177E-03
(PID.TID 0000.0001) %MON advcfl_wvel_max              =   1.9972710830121E-01
(PID.TID 0000.0001) %MON advcfl_W_hf_max              =   1.0242819931715E-01
(PID.TID 0000.0001) %MON pe_b_mean                    =   6.8677352244440E-05
(PID.TID 0000.0001) %MON ke_max                       =   4.2227255142096E-03
(PID.TID 0000.0001) %MON ke_mean                      =   1.6969380767525E-04
(PID.TID 0000.0001) %MON ke_vol                       =   1.3226782436722E+18
(PID.TID 0000.0001) %MON vort_r_min                   =  -3.4942516672766E-07
(PID.TID 0000.0001) %MON vort_r_max                   =   4.4978932602406E-07
(PID.TID 0000.0001) %MON vort_a_mean                  =  -2.5205769380887E-05
(PID.TID 0000.0001) %MON vort_a_sd                    =   7.3402116790049E-05
(PID.TID 0000.0001) %MON vort_p_mean                  =  -3.1758934367848E-05
(PID.TID 0000.0001) %MON vort_p_sd                    =   1.3126477352951E-04
(PID.TID 0000.0001) %MON surfExpan_theta_mean         =   1.6966147253276E-04
(PID.TID 0000.0001) %MON surfExpan_salt_mean          =   1.3527438682613E-05
(PID.TID 0000.0001) // =======================================================
(PID.TID 0000.0001) // End MONITOR dynamic field statistics
(PID.TID 0000.0001) // =======================================================
 cg2d: Sum(rhs),rhsMax =   3.73034936274053E-14  8.21195954531567E+00
(PID.TID 0000.0001)                    cg2d_init_res =    1.31028998213307E+00
(PID.TID 0000.0001)                       cg2d_iters =    25
(PID.TID 0000.0001)                         cg2d_res =    9.71831890273571E-14
(PID.TID 0000.0001) // =======================================================
(PID.TID 0000.0001) // Begin MONITOR dynamic field statistics
(PID.TID 0000.0001) // =======================================================
(PID.TID 0000.0001) %MON time_tsnumber                =                     9
(PID.TID 0000.0001) %MON time_secondsf                =   3.8880000000000E+05
(PID.TID 0000.0001) %MON dynstat_eta_max              =   9.5118713820208E-01
(PID.TID 0000.0001) %MON dynstat_eta_min              =  -8.1220046617176E-01
(PID.TID 0000.0001) %MON dynstat_eta_mean             =  -2.2640897150396E-17
(PID.TID 0000.0001) %MON dynstat_eta_sd               =   2.5600839168753E-01
(PID.TID 0000.0001) %MON dynstat_eta_del2             =   2.4476077113719E-03
(PID.TID 0000.0001) %MON dynstat_uvel_max             =   1.0172302921286E-01
(PID.TID 0000.0001) %MON dynstat_uvel_min             =  -1.1625974811249E-01
(PID.TID 0000.0001) %MON dynstat_uvel_mean            =  -7.0380330184449E-03
(PID.TID 0000.0001) %MON dynstat_uvel_sd              =   1.0561772754192E-02
(PID.TID 0000.0001) %MON dynstat_uvel_del2            =   9.5101570540269E-05
(PID.TID 0000.0001) %MON dynstat_vvel_max             =   9.0911941820504E-02
(PID.TID 0000.0001) %MON dynstat_vvel_min             =  -8.8663487553381E-02
(PID.TID 0000.0001) %MON dynstat_vvel_mean            =   5.1328315411198E-03
(PID.TID 0000.0001) %MON dynstat_vvel_sd              =   1.5534414331959E-02
(PID.TID 0000.0001) %MON dynstat_vvel_del2            =   1.1549100087432E-04
(PID.TID 0000.0001) %MON dynstat_wvel_max             =   3.1100919446572E-04
(PID.TID 0000.0001) %MON dynstat_wvel_min             =  -3.2963611552128E-04
(PID.TID 0000.0001) %MON dynstat_wvel_mean            =   2.8184890838965E-22
(PID.TID 0000.0001) %MON dynstat_wvel_sd              =   3.7435145392307E-05
(PID.TID 0000.0001) %MON dynstat_wvel_del2            =   4.2377143423745E-07
(PID.TID 0000.0001) %MON dynstat_theta_max            =   2.9690157187088E+01
(PID.TID 0000.0001) %MON dynstat_theta_min            =  -2.0173274108396E+00
(PID.TID 0000.0001) %MON dynstat_theta_mean           =   3.6068126175241E+00
(PID.TID 0000.0001) %MON dynstat_theta_sd             =   4.3883403139093E+00
(PID.TID 0000.0001) %MON dynstat_theta_del2           =   5.1557056407495E-03
(PID.TID 0000.0001) %MON dynstat_salt_max             =   3.7443178334409E+01
(PID.TID 0000.0001) %MON dynstat_salt_min             =   2.9781824569490E+01
(PID.TID 0000.0001) %MON dynstat_salt_mean            =   3.4716944466475E+01
(PID.TID 0000.0001) %MON dynstat_salt_sd              =   2.9590596472838E-01
(PID.TID 0000.0001) %MON dynstat_salt_del2            =   9.9619316175691E-04
(PID.TID 0000.0001) %MON forcing_qnet_max             =   4.3008355712891E+02
(PID.TID 0000.0001) %MON forcing_qnet_min             =  -1.8515833485921E+02
(PID.TID 0000.0001) %MON forcing_qnet_mean            =  -1.6650157515098E+01
(PID.TID 0000.0001) %MON forcing_qnet_sd              =   1.1200321531664E+02
(PID.TID 0000.0001) %MON forcing_qnet_del2            =   9.9601163526981E-01
(PID.TID 0000.0001) %MON forcing_qsw_max              =   0.0000000000000E+00
(PID.TID 0000.0001) %MON forcing_qsw_min              =   0.0000000000000E+00
(PID.TID 0000.0001) %MON forcing_qsw_mean             =   0.0000000000000E+00
(PID.TID 0000.0001) %MON forcing_qsw_sd               =   0.0000000000000E+00
(PID.TID 0000.0001) %MON forcing_qsw_del2             =   0.0000000000000E+00
(PID.TID 0000.0001) %MON forcing_empmr_max            =   0.0000000000000E+00
(PID.TID 0000.0001) %MON forcing_empmr_min            =   0.0000000000000E+00
(PID.TID 0000.0001) %MON forcing_empmr_mean           =   0.0000000000000E+00
(PID.TID 0000.0001) %MON forcing_empmr_sd             =   0.0000000000000E+00
(PID.TID 0000.0001) %MON forcing_empmr_del2           =   0.0000000000000E+00
(PID.TID 0000.0001) %MON forcing_fu_max               =   2.7145579755306E-01
(PID.TID 0000.0001) %MON forcing_fu_min               =  -1.6193294972181E-01
(PID.TID 0000.0001) %MON forcing_fu_mean              =   1.6086356183975E-02
(PID.TID 0000.0001) %MON forcing_fu_sd                =   9.0157845327697E-02
(PID.TID 0000.0001) %MON forcing_fu_del2              =   6.6174969745051E-04
(PID.TID 0000.0001) %MON forcing_fv_max               =   2.1244236379862E-01
(PID.TID 0000.0001) %MON forcing_fv_min               =  -1.8456813246012E-01
(PID.TID 0000.0001) %MON forcing_fv_mean              =  -6.0702855349739E-03
(PID.TID 0000.0001) %MON forcing_fv_sd                =   4.5662631572644E-02
(PID.TID 0000.0001) %MON forcing_fv_del2              =   4.4897783530480E-04
(PID.TID 0000.0001) %MON advcfl_uvel_max              =   1.8330174928065E-02
(PID.TID 0000.0001) %MON advcfl_vvel_max              =   8.8313661217363E-03
(PID.TID 0000.0001) %MON advcfl_wvel_max              =   2.0597155193351E-01
(PID.TID 0000.0001) %MON advcfl_W_hf_max              =   1.0857776354071E-01
(PID.TID 0000.0001) %MON pe_b_mean                    =   8.3866709275658E-05
(PID.TID 0000.0001) %MON ke_max                       =   5.3111407283164E-03
(PID.TID 0000.0001) %MON ke_mean                      =   1.9334766461610E-04
(PID.TID 0000.0001) %MON ke_vol                       =   1.3226782436722E+18
(PID.TID 0000.0001) %MON vort_r_min                   =  -3.9463332474240E-07
(PID.TID 0000.0001) %MON vort_r_max                   =   5.3859813066652E-07
(PID.TID 0000.0001) %MON vort_a_mean                  =  -2.5205769497037E-05
(PID.TID 0000.0001) %MON vort_a_sd                    =   7.3401941172408E-05
(PID.TID 0000.0001) %MON vort_p_mean                  =  -3.1758935327607E-05
(PID.TID 0000.0001) %MON vort_p_sd                    =   1.3126435711636E-04
(PID.TID 0000.0001) %MON surfExpan_theta_mean         =   1.6734973642066E-04
(PID.TID 0000.0001) %MON surfExpan_salt_mean          =   1.3062598554669E-05
(PID.TID 0000.0001) // =======================================================
(PID.TID 0000.0001) // End MONITOR dynamic field statistics
(PID.TID 0000.0001) // =======================================================
 EXTERNAL_FIELDS_LOAD, it=         9 : Reading new data, i0,i1=   12    1 (prev=   12    0 )
 cg2d: Sum(rhs),rhsMax =  -5.32907051820075E-14  8.30815352750043E+00
(PID.TID 0000.0001)                    cg2d_init_res =    1.24977302476957E+00
(PID.TID 0000.0001)                       cg2d_iters =    25
(PID.TID 0000.0001)                         cg2d_res =    8.93500024750158E-14
(PID.TID 0000.0001) // =======================================================
(PID.TID 0000.0001) // Begin MONITOR dynamic field statistics
(PID.TID 0000.0001) // =======================================================
(PID.TID 0000.0001) %MON time_tsnumber                =                    10
(PID.TID 0000.0001) %MON time_secondsf                =   4.3200000000000E+05
(PID.TID 0000.0001) %MON dynstat_eta_max              =   9.6719038388986E-01
(PID.TID 0000.0001) %MON dynstat_eta_min              =  -8.6634328672986E-01
(PID.TID 0000.0001) %MON dynstat_eta_mean             =  -1.2678902404222E-17
(PID.TID 0000.0001) %MON dynstat_eta_sd               =   2.7870512959921E-01
(PID.TID 0000.0001) %MON dynstat_eta_del2             =   2.3770568020594E-03
(PID.TID 0000.0001) %MON dynstat_uvel_max             =   1.1145230722998E-01
(PID.TID 0000.0001) %MON dynstat_uvel_min             =  -1.3043888042147E-01
(PID.TID 0000.0001) %MON dynstat_uvel_mean            =  -7.8957550098249E-03
(PID.TID 0000.0001) %MON dynstat_uvel_sd              =   1.1834319752598E-02
(PID.TID 0000.0001) %MON dynstat_uvel_del2            =   1.0137309940673E-04
(PID.TID 0000.0001) %MON dynstat_vvel_max             =   1.0161815945680E-01
(PID.TID 0000.0001) %MON dynstat_vvel_min             =  -9.6137564219927E-02
(PID.TID 0000.0001) %MON dynstat_vvel_mean            =   5.1329450673478E-03
(PID.TID 0000.0001) %MON dynstat_vvel_sd              =   1.5718744011618E-02
(PID.TID 0000.0001) %MON dynstat_vvel_del2            =   1.2084400049643E-04
(PID.TID 0000.0001) %MON dynstat_wvel_max             =   3.0979809116068E-04
(PID.TID 0000.0001) %MON dynstat_wvel_min             =  -3.3777605870210E-04
(PID.TID 0000.0001) %MON dynstat_wvel_mean            =   1.6910934503379E-21
(PID.TID 0000.0001) %MON dynstat_wvel_sd              =   3.8129410261618E-05
(PID.TID 0000.0001) %MON dynstat_wvel_del2            =   4.3499690609985E-07
(PID.TID 0000.0001) %MON dynstat_theta_max            =   2.9665688802761E+01
(PID.TID 0000.0001) %MON dynstat_theta_min            =  -2.0285225602130E+00
(PID.TID 0000.0001) %MON dynstat_theta_mean           =   3.6050756308505E+00
(PID.TID 0000.0001) %MON dynstat_theta_sd             =   4.3840751641858E+00
(PID.TID 0000.0001) %MON dynstat_theta_del2           =   5.1110826110900E-03
(PID.TID 0000.0001) %MON dynstat_salt_max             =   3.7441589104924E+01
(PID.TID 0000.0001) %MON dynstat_salt_min             =   2.9784155296122E+01
(PID.TID 0000.0001) %MON dynstat_salt_mean            =   3.4716810252715E+01
(PID.TID 0000.0001) %MON dynstat_salt_sd              =   2.9585632528422E-01
(PID.TID 0000.0001) %MON dynstat_salt_del2            =   9.9308421304740E-04
(PID.TID 0000.0001) %MON forcing_qnet_max             =   4.3060765075684E+02
(PID.TID 0000.0001) %MON forcing_qnet_min             =  -1.8492475357056E+02
(PID.TID 0000.0001) %MON forcing_qnet_mean            =  -1.6643901537186E+01
(PID.TID 0000.0001) %MON forcing_qnet_sd              =   1.1189943189448E+02
(PID.TID 0000.0001) %MON forcing_qnet_del2            =   9.9686122184036E-01
(PID.TID 0000.0001) %MON forcing_qsw_max              =   0.0000000000000E+00
(PID.TID 0000.0001) %MON forcing_qsw_min              =   0.0000000000000E+00
(PID.TID 0000.0001) %MON forcing_qsw_mean             =   0.0000000000000E+00
(PID.TID 0000.0001) %MON forcing_qsw_sd               =   0.0000000000000E+00
(PID.TID 0000.0001) %MON forcing_qsw_del2             =   0.0000000000000E+00
(PID.TID 0000.0001) %MON forcing_empmr_max            =   0.0000000000000E+00
(PID.TID 0000.0001) %MON forcing_empmr_min            =   0.0000000000000E+00
(PID.TID 0000.0001) %MON forcing_empmr_mean           =   0.0000000000000E+00
(PID.TID 0000.0001) %MON forcing_empmr_sd             =   0.0000000000000E+00
(PID.TID 0000.0001) %MON forcing_empmr_del2           =   0.0000000000000E+00
(PID.TID 0000.0001) %MON forcing_fu_max               =   2.7102652341127E-01
(PID.TID 0000.0001) %MON forcing_fu_min               =  -1.6233965978026E-01
(PID.TID 0000.0001) %MON forcing_fu_mean              =   1.6082509773456E-02
(PID.TID 0000.0001) %MON forcing_fu_sd                =   9.0170650860979E-02
(PID.TID 0000.0001) %MON forcing_fu_del2              =   6.6335282235437E-04
(PID.TID 0000.0001) %MON forcing_fv_max               =   2.1338231638074E-01
(PID.TID 0000.0001) %MON forcing_fv_min               =  -1.8427580371499E-01
(PID.TID 0000.0001) %MON forcing_fv_mean              =  -6.0334042715435E-03
(PID.TID 0000.0001) %MON forcing_fv_sd                =   4.5742743708708E-02
(PID.TID 0000.0001) %MON forcing_fv_del2              =   4.4996813217914E-04
(PID.TID 0000.0001) %MON advcfl_uvel_max              =   1.6827974484679E-02
(PID.TID 0000.0001) %MON advcfl_vvel_max              =   9.8713893115591E-03
(PID.TID 0000.0001) %MON advcfl_wvel_max              =   2.0534297811641E-01
(PID.TID 0000.0001) %MON advcfl_W_hf_max              =   1.0471376767420E-01
(PID.TID 0000.0001) %MON pe_b_mean                    =   9.9396507358836E-05
(PID.TID 0000.0001) %MON ke_max                       =   6.2755206050950E-03
(PID.TID 0000.0001) %MON ke_mean                      =   2.1470173911373E-04
(PID.TID 0000.0001) %MON ke_vol                       =   1.3226782436722E+18
(PID.TID 0000.0001) %MON vort_r_min                   =  -4.2636803524044E-07
(PID.TID 0000.0001) %MON vort_r_max                   =   6.1846252470585E-07
(PID.TID 0000.0001) %MON vort_a_mean                  =  -2.5205769620114E-05
(PID.TID 0000.0001) %MON vort_a_sd                    =   7.3401776536287E-05
(PID.TID 0000.0001) %MON vort_p_mean                  =  -3.1758934551967E-05
(PID.TID 0000.0001) %MON vort_p_sd                    =   1.3126394387307E-04
(PID.TID 0000.0001) %MON surfExpan_theta_mean         =   1.6169714047805E-04
(PID.TID 0000.0001) %MON surfExpan_salt_mean          =   1.2294476311911E-05
(PID.TID 0000.0001) // =======================================================
(PID.TID 0000.0001) // End MONITOR dynamic field statistics
(PID.TID 0000.0001) // =======================================================
(PID.TID 0000.0001) %CHECKPOINT        10 ckptA
 --> objf_test(bi,bj)   =  0.000000000000000D+00
 --> objf_tracer(bi,bj) =  0.000000000000000D+00
 --> objf_atl(bi,bj)    =  0.000000000000000D+00
 --> objf_test(bi,bj)   =  0.000000000000000D+00
 --> objf_tracer(bi,bj) =  0.000000000000000D+00
 --> objf_atl(bi,bj)    =  0.000000000000000D+00
 --> objf_test(bi,bj)   =  0.000000000000000D+00
 --> objf_tracer(bi,bj) =  0.000000000000000D+00
 --> objf_atl(bi,bj)    =  0.000000000000000D+00
 --> objf_test(bi,bj)   =  0.000000000000000D+00
 --> objf_tracer(bi,bj) =  0.000000000000000D+00
 --> objf_atl(bi,bj)    = -0.456780861167716D-01
  local fc = -0.456780861167716D-01
 global fc = -0.456780861167716D-01
 EXTERNAL_FIELDS_LOAD, it=         0 : Reading new data, i0,i1=   12    1 (prev=   12    0 )
(PID.TID 0000.0001) SOLVE_FOR_PRESSURE: putPmEinXvector =    F
 cg2d: Sum(rhs),rhsMax =   1.15463194561016E-14  2.53674886388737E+00
 cg2d: Sum(rhs),rhsMax =   1.14908083048704E-14  4.94121822825309E+00
 cg2d: Sum(rhs),rhsMax =  -9.99200722162641E-16  6.30228980167606E+00
 EXTERNAL_FIELDS_LOAD, it=         3 : Reading new data, i0,i1=   12    1 (prev=   12    0 )
 cg2d: Sum(rhs),rhsMax =   4.88498130835069E-15  6.81726841666917E+00
 cg2d: Sum(rhs),rhsMax =  -3.01980662698043E-14  6.91967974525862E+00
 cg2d: Sum(rhs),rhsMax =   2.66453525910038E-14  6.87878101803785E+00
 EXTERNAL_FIELDS_LOAD, it=         6 : Reading new data, i0,i1=   12    1 (prev=   12    0 )
 cg2d: Sum(rhs),rhsMax =   1.11910480882216E-13  7.25010420566021E+00
 cg2d: Sum(rhs),rhsMax =  -3.73034936274053E-14  7.86920938791581E+00
 cg2d: Sum(rhs),rhsMax =   3.73034936274053E-14  8.21195954531567E+00
 EXTERNAL_FIELDS_LOAD, it=         9 : Reading new data, i0,i1=   12    1 (prev=   12    0 )
 cg2d: Sum(rhs),rhsMax =  -5.32907051820075E-14  8.30815352750043E+00
(PID.TID 0000.0001) Did not write pickup because writePickupAtEnd = FALSE
 EXTERNAL_FIELDS_LOAD, it=         9 : Reading new data, i0,i1=   12    1 (prev=   12    0 )
 cg2d: Sum(rhs),rhsMax =  -5.32907051820075E-14  8.30815352750043E+00
(PID.TID 0000.0001) Did not write pickup because writePickupAtEnd = FALSE
 EXTERNAL_FIELDS_LOAD, it=         9 : Reading new data, i0,i1=   12    1 (prev=   12    0 )
 cg2d: Sum(rhs),rhsMax =  -5.32907051820075E-14  8.30815352750043E+00
(PID.TID 0000.0001) Did not write pickup because writePickupAtEnd = FALSE
(PID.TID 0000.0001) // =======================================================
(PID.TID 0000.0001) // Begin MONITOR dynamic field statistics
(PID.TID 0000.0001) // =======================================================
(PID.TID 0000.0001) %MON ad_time_tsnumber             =                    10
(PID.TID 0000.0001) %MON ad_time_secondsf             =   4.3200000000000E+05
(PID.TID 0000.0001) %MON ad_dynstat_adeta_max         =   0.0000000000000E+00
(PID.TID 0000.0001) %MON ad_dynstat_adeta_min         =   0.0000000000000E+00
(PID.TID 0000.0001) %MON ad_dynstat_adeta_mean        =   0.0000000000000E+00
(PID.TID 0000.0001) %MON ad_dynstat_adeta_sd          =   0.0000000000000E+00
(PID.TID 0000.0001) %MON ad_dynstat_adeta_del2        =   0.0000000000000E+00
(PID.TID 0000.0001) %MON ad_dynstat_aduvel_max        =   0.0000000000000E+00
(PID.TID 0000.0001) %MON ad_dynstat_aduvel_min        =   0.0000000000000E+00
(PID.TID 0000.0001) %MON ad_dynstat_aduvel_mean       =   0.0000000000000E+00
(PID.TID 0000.0001) %MON ad_dynstat_aduvel_sd         =   0.0000000000000E+00
(PID.TID 0000.0001) %MON ad_dynstat_aduvel_del2       =   0.0000000000000E+00
(PID.TID 0000.0001) %MON ad_dynstat_advvel_max        =   5.3455016687344E-03
(PID.TID 0000.0001) %MON ad_dynstat_advvel_min        =   0.0000000000000E+00
(PID.TID 0000.0001) %MON ad_dynstat_advvel_mean       =   3.0039420602689E-05
(PID.TID 0000.0001) %MON ad_dynstat_advvel_sd         =   3.1338584640396E-04
(PID.TID 0000.0001) %MON ad_dynstat_advvel_del2       =   4.2134021826147E-06
(PID.TID 0000.0001) %MON ad_dynstat_adwvel_max        =   0.0000000000000E+00
(PID.TID 0000.0001) %MON ad_dynstat_adwvel_min        =   0.0000000000000E+00
(PID.TID 0000.0001) %MON ad_dynstat_adwvel_mean       =   0.0000000000000E+00
(PID.TID 0000.0001) %MON ad_dynstat_adwvel_sd         =   0.0000000000000E+00
(PID.TID 0000.0001) %MON ad_dynstat_adwvel_del2       =   0.0000000000000E+00
(PID.TID 0000.0001) %MON ad_dynstat_adtheta_max       =   2.0191844739172E-06
(PID.TID 0000.0001) %MON ad_dynstat_adtheta_min       =  -4.9674918119719E-06
(PID.TID 0000.0001) %MON ad_dynstat_adtheta_mean      =  -2.0423135281454E-08
(PID.TID 0000.0001) %MON ad_dynstat_adtheta_sd        =   2.4100212639712E-07
(PID.TID 0000.0001) %MON ad_dynstat_adtheta_del2      =   1.9831899293287E-09
(PID.TID 0000.0001) %MON ad_dynstat_adsalt_max        =   0.0000000000000E+00
(PID.TID 0000.0001) %MON ad_dynstat_adsalt_min        =   0.0000000000000E+00
(PID.TID 0000.0001) %MON ad_dynstat_adsalt_mean       =   0.0000000000000E+00
(PID.TID 0000.0001) %MON ad_dynstat_adsalt_sd         =   0.0000000000000E+00
(PID.TID 0000.0001) %MON ad_dynstat_adsalt_del2       =   0.0000000000000E+00
(PID.TID 0000.0001) %MON ad_forcing_adqnet_max        =   0.0000000000000E+00
(PID.TID 0000.0001) %MON ad_forcing_adqnet_min        =   0.0000000000000E+00
(PID.TID 0000.0001) %MON ad_forcing_adqnet_mean       =   0.0000000000000E+00
(PID.TID 0000.0001) %MON ad_forcing_adqnet_sd         =   0.0000000000000E+00
(PID.TID 0000.0001) %MON ad_forcing_adqnet_del2       =   0.0000000000000E+00
(PID.TID 0000.0001) %MON ad_forcing_adempmr_max       =   0.0000000000000E+00
(PID.TID 0000.0001) %MON ad_forcing_adempmr_min       =   0.0000000000000E+00
(PID.TID 0000.0001) %MON ad_forcing_adempmr_mean      =   0.0000000000000E+00
(PID.TID 0000.0001) %MON ad_forcing_adempmr_sd        =   0.0000000000000E+00
(PID.TID 0000.0001) %MON ad_forcing_adempmr_del2      =   0.0000000000000E+00
(PID.TID 0000.0001) %MON ad_forcing_adfu_max          =   0.0000000000000E+00
(PID.TID 0000.0001) %MON ad_forcing_adfu_min          =   0.0000000000000E+00
(PID.TID 0000.0001) %MON ad_forcing_adfu_mean         =   0.0000000000000E+00
(PID.TID 0000.0001) %MON ad_forcing_adfu_sd           =   0.0000000000000E+00
(PID.TID 0000.0001) %MON ad_forcing_adfu_del2         =   0.0000000000000E+00
(PID.TID 0000.0001) %MON ad_forcing_adfv_max          =   0.0000000000000E+00
(PID.TID 0000.0001) %MON ad_forcing_adfv_min          =   0.0000000000000E+00
(PID.TID 0000.0001) %MON ad_forcing_adfv_mean         =   0.0000000000000E+00
(PID.TID 0000.0001) %MON ad_forcing_adfv_sd           =   0.0000000000000E+00
(PID.TID 0000.0001) %MON ad_forcing_adfv_del2         =   0.0000000000000E+00
(PID.TID 0000.0001) %MON ad_advcfl_aduvel_max         =   0.0000000000000E+00
(PID.TID 0000.0001) %MON ad_advcfl_advvel_max         =   5.1927262134774E-04
(PID.TID 0000.0001) %MON ad_advcfl_adwvel_max         =   0.0000000000000E+00
(PID.TID 0000.0001) %MON ad_advcfl_adW_hf_max         =   0.0000000000000E+00
(PID.TID 0000.0001) // =======================================================
(PID.TID 0000.0001) // End MONITOR dynamic field statistics
(PID.TID 0000.0001) // =======================================================
 cg2d: Sum(rhs),rhsMax =   1.10461112074328E-15  8.04918798498047E-09
 EXTERNAL_FIELDS_LOAD, it=         6 : Reading new data, i0,i1=   12    1 (prev=   12    0 )
 cg2d: Sum(rhs),rhsMax =   1.11910480882216E-13  7.25010420566021E+00
 cg2d: Sum(rhs),rhsMax =  -3.73034936274053E-14  7.86920938791581E+00
 cg2d: Sum(rhs),rhsMax =  -1.77635683940025E-15  8.21195954531566E+00
 cg2d: Sum(rhs),rhsMax =  -1.77635683940025E-15  8.21195954531566E+00
(PID.TID 0000.0001) // =======================================================
(PID.TID 0000.0001) // Begin MONITOR dynamic field statistics
(PID.TID 0000.0001) // =======================================================
(PID.TID 0000.0001) %MON ad_time_tsnumber             =                     9
(PID.TID 0000.0001) %MON ad_time_secondsf             =   3.8880000000000E+05
(PID.TID 0000.0001) %MON ad_dynstat_adeta_max         =   6.8870041168297E-05
(PID.TID 0000.0001) %MON ad_dynstat_adeta_min         =  -5.7115500966338E-05
(PID.TID 0000.0001) %MON ad_dynstat_adeta_mean        =   5.3902682255533E-10
(PID.TID 0000.0001) %MON ad_dynstat_adeta_sd          =   2.7356807354653E-06
(PID.TID 0000.0001) %MON ad_dynstat_adeta_del2        =   8.0094006885374E-08
(PID.TID 0000.0001) %MON ad_dynstat_aduvel_max        =   6.6029324372380E-04
(PID.TID 0000.0001) %MON ad_dynstat_aduvel_min        =  -1.3576579782482E-04
(PID.TID 0000.0001) %MON ad_dynstat_aduvel_mean       =   3.4016674609860E-07
(PID.TID 0000.0001) %MON ad_dynstat_aduvel_sd         =   1.2004579846658E-05
(PID.TID 0000.0001) %MON ad_dynstat_aduvel_del2       =   8.1281161714268E-08
(PID.TID 0000.0001) %MON ad_dynstat_advvel_max        =   1.0037378729336E-02
(PID.TID 0000.0001) %MON ad_dynstat_advvel_min        =  -2.1867173826258E-03
(PID.TID 0000.0001) %MON ad_dynstat_advvel_mean       =   5.8331528911464E-05
(PID.TID 0000.0001) %MON ad_dynstat_advvel_sd         =   5.1618777207613E-04
(PID.TID 0000.0001) %MON ad_dynstat_advvel_del2       =   6.8587072568005E-06
(PID.TID 0000.0001) %MON ad_dynstat_adwvel_max        =   1.6819780397852E-04
(PID.TID 0000.0001) %MON ad_dynstat_adwvel_min        =  -3.2077127014605E-04
(PID.TID 0000.0001) %MON ad_dynstat_adwvel_mean       =   2.1149780948432E-07
(PID.TID 0000.0001) %MON ad_dynstat_adwvel_sd         =   5.8977938803926E-06
(PID.TID 0000.0001) %MON ad_dynstat_adwvel_del2       =   7.0561464744143E-08
(PID.TID 0000.0001) %MON ad_dynstat_adtheta_max       =   1.4056942516508E-05
(PID.TID 0000.0001) %MON ad_dynstat_adtheta_min       =  -2.0653934285263E-05
(PID.TID 0000.0001) %MON ad_dynstat_adtheta_mean      =  -4.4709273979596E-08
(PID.TID 0000.0001) %MON ad_dynstat_adtheta_sd        =   1.1366874850073E-06
(PID.TID 0000.0001) %MON ad_dynstat_adtheta_del2      =   1.7349183939635E-08
(PID.TID 0000.0001) %MON ad_dynstat_adsalt_max        =   5.5002015842734E-05
(PID.TID 0000.0001) %MON ad_dynstat_adsalt_min        =  -5.3041291616223E-05
(PID.TID 0000.0001) %MON ad_dynstat_adsalt_mean       =   2.2319070342928E-08
(PID.TID 0000.0001) %MON ad_dynstat_adsalt_sd         =   4.2217547754154E-06
(PID.TID 0000.0001) %MON ad_dynstat_adsalt_del2       =   6.0838721253337E-08
(PID.TID 0000.0001) %MON ad_forcing_adqnet_max        =   0.0000000000000E+00
(PID.TID 0000.0001) %MON ad_forcing_adqnet_min        =   0.0000000000000E+00
(PID.TID 0000.0001) %MON ad_forcing_adqnet_mean       =   0.0000000000000E+00
(PID.TID 0000.0001) %MON ad_forcing_adqnet_sd         =   0.0000000000000E+00
(PID.TID 0000.0001) %MON ad_forcing_adqnet_del2       =   0.0000000000000E+00
(PID.TID 0000.0001) %MON ad_forcing_adempmr_max       =   8.1360581319433E-04
(PID.TID 0000.0001) %MON ad_forcing_adempmr_min       =  -7.9214727958672E-04
(PID.TID 0000.0001) %MON ad_forcing_adempmr_mean      =  -3.8138000871713E-07
(PID.TID 0000.0001) %MON ad_forcing_adempmr_sd        =   9.2015859159313E-05
(PID.TID 0000.0001) %MON ad_forcing_adempmr_del2      =   4.8975837535619E-06
(PID.TID 0000.0001) %MON ad_forcing_adfu_max          =   0.0000000000000E+00
(PID.TID 0000.0001) %MON ad_forcing_adfu_min          =   0.0000000000000E+00
(PID.TID 0000.0001) %MON ad_forcing_adfu_mean         =   0.0000000000000E+00
(PID.TID 0000.0001) %MON ad_forcing_adfu_sd           =   0.0000000000000E+00
(PID.TID 0000.0001) %MON ad_forcing_adfu_del2         =   0.0000000000000E+00
(PID.TID 0000.0001) %MON ad_forcing_adfv_max          =   0.0000000000000E+00
(PID.TID 0000.0001) %MON ad_forcing_adfv_min          =   0.0000000000000E+00
(PID.TID 0000.0001) %MON ad_forcing_adfv_mean         =   0.0000000000000E+00
(PID.TID 0000.0001) %MON ad_forcing_adfv_sd           =   0.0000000000000E+00
(PID.TID 0000.0001) %MON ad_forcing_adfv_del2         =   0.0000000000000E+00
(PID.TID 0000.0001) %MON ad_advcfl_aduvel_max         =   7.4065025612694E-05
(PID.TID 0000.0001) %MON ad_advcfl_advvel_max         =   9.7505085345455E-04
(PID.TID 0000.0001) %MON ad_advcfl_adwvel_max         =   2.3095531450516E-01
(PID.TID 0000.0001) %MON ad_advcfl_adW_hf_max         =   2.7652028283088E-01
(PID.TID 0000.0001) // =======================================================
(PID.TID 0000.0001) // End MONITOR dynamic field statistics
(PID.TID 0000.0001) // =======================================================
 cg2d: Sum(rhs),rhsMax =  -2.81564593689054E-15  9.23188033569319E-09
 cg2d: Sum(rhs),rhsMax =  -3.73034936274053E-14  7.86920938791581E+00
(PID.TID 0000.0001) // =======================================================
(PID.TID 0000.0001) // Begin MONITOR dynamic field statistics
(PID.TID 0000.0001) // =======================================================
(PID.TID 0000.0001) %MON ad_time_tsnumber             =                     8
(PID.TID 0000.0001) %MON ad_time_secondsf             =   3.4560000000000E+05
(PID.TID 0000.0001) %MON ad_dynstat_adeta_max         =   1.6525119740335E-04
(PID.TID 0000.0001) %MON ad_dynstat_adeta_min         =  -1.3332596579051E-04
(PID.TID 0000.0001) %MON ad_dynstat_adeta_mean        =   2.4457568202851E-09
(PID.TID 0000.0001) %MON ad_dynstat_adeta_sd          =   6.6120092398250E-06
(PID.TID 0000.0001) %MON ad_dynstat_adeta_del2        =   2.0335155936438E-07
(PID.TID 0000.0001) %MON ad_dynstat_aduvel_max        =   1.7669928579965E-03
(PID.TID 0000.0001) %MON ad_dynstat_aduvel_min        =  -5.0961921438330E-04
(PID.TID 0000.0001) %MON ad_dynstat_aduvel_mean       =   1.2203809360108E-06
(PID.TID 0000.0001) %MON ad_dynstat_aduvel_sd         =   3.6916990801677E-05
(PID.TID 0000.0001) %MON ad_dynstat_aduvel_del2       =   2.6500856078872E-07
(PID.TID 0000.0001) %MON ad_dynstat_advvel_max        =   1.3989660574466E-02
(PID.TID 0000.0001) %MON ad_dynstat_advvel_min        =  -6.6709951296189E-03
(PID.TID 0000.0001) %MON ad_dynstat_advvel_mean       =   8.3145537258330E-05
(PID.TID 0000.0001) %MON ad_dynstat_advvel_sd         =   6.5484800753552E-04
(PID.TID 0000.0001) %MON ad_dynstat_advvel_del2       =   8.6054945902131E-06
(PID.TID 0000.0001) %MON ad_dynstat_adwvel_max        =   2.2366514333654E-04
(PID.TID 0000.0001) %MON ad_dynstat_adwvel_min        =  -4.5395598742312E-04
(PID.TID 0000.0001) %MON ad_dynstat_adwvel_mean       =   2.3233664505210E-07
(PID.TID 0000.0001) %MON ad_dynstat_adwvel_sd         =   7.7962919791872E-06
(PID.TID 0000.0001) %MON ad_dynstat_adwvel_del2       =   9.4324899862386E-08
(PID.TID 0000.0001) %MON ad_dynstat_adtheta_max       =   4.6821860375740E-05
(PID.TID 0000.0001) %MON ad_dynstat_adtheta_min       =  -4.1192315138414E-05
(PID.TID 0000.0001) %MON ad_dynstat_adtheta_mean      =  -7.2027384752655E-08
(PID.TID 0000.0001) %MON ad_dynstat_adtheta_sd        =   3.8660271170051E-06
(PID.TID 0000.0001) %MON ad_dynstat_adtheta_del2      =   5.5367653194313E-08
(PID.TID 0000.0001) %MON ad_dynstat_adsalt_max        =   1.8191870057661E-04
(PID.TID 0000.0001) %MON ad_dynstat_adsalt_min        =  -1.9088980760963E-04
(PID.TID 0000.0001) %MON ad_dynstat_adsalt_mean       =   6.0378164016815E-08
(PID.TID 0000.0001) %MON ad_dynstat_adsalt_sd         =   1.7028397847949E-05
(PID.TID 0000.0001) %MON ad_dynstat_adsalt_del2       =   2.4306094312417E-07
(PID.TID 0000.0001) %MON ad_forcing_adqnet_max        =   0.0000000000000E+00
(PID.TID 0000.0001) %MON ad_forcing_adqnet_min        =   0.0000000000000E+00
(PID.TID 0000.0001) %MON ad_forcing_adqnet_mean       =   0.0000000000000E+00
(PID.TID 0000.0001) %MON ad_forcing_adqnet_sd         =   0.0000000000000E+00
(PID.TID 0000.0001) %MON ad_forcing_adqnet_del2       =   0.0000000000000E+00
(PID.TID 0000.0001) %MON ad_forcing_adempmr_max       =   2.0217472253531E-03
(PID.TID 0000.0001) %MON ad_forcing_adempmr_min       =  -1.8224424361183E-03
(PID.TID 0000.0001) %MON ad_forcing_adempmr_mean      =  -8.7471253277420E-07
(PID.TID 0000.0001) %MON ad_forcing_adempmr_sd        =   2.0115650778425E-04
(PID.TID 0000.0001) %MON ad_forcing_adempmr_del2      =   9.7792514164248E-06
(PID.TID 0000.0001) %MON ad_forcing_adfu_max          =   0.0000000000000E+00
(PID.TID 0000.0001) %MON ad_forcing_adfu_min          =   0.0000000000000E+00
(PID.TID 0000.0001) %MON ad_forcing_adfu_mean         =   0.0000000000000E+00
(PID.TID 0000.0001) %MON ad_forcing_adfu_sd           =   0.0000000000000E+00
(PID.TID 0000.0001) %MON ad_forcing_adfu_del2         =   0.0000000000000E+00
(PID.TID 0000.0001) %MON ad_forcing_adfv_max          =   0.0000000000000E+00
(PID.TID 0000.0001) %MON ad_forcing_adfv_min          =   0.0000000000000E+00
(PID.TID 0000.0001) %MON ad_forcing_adfv_mean         =   0.0000000000000E+00
(PID.TID 0000.0001) %MON ad_forcing_adfv_sd           =   0.0000000000000E+00
(PID.TID 0000.0001) %MON ad_forcing_adfv_del2         =   0.0000000000000E+00
(PID.TID 0000.0001) %MON ad_advcfl_aduvel_max         =   1.9820340815073E-04
(PID.TID 0000.0001) %MON ad_advcfl_advvel_max         =   1.3589833412189E-03
(PID.TID 0000.0001) %MON ad_advcfl_adwvel_max         =   3.2684831094465E-01
(PID.TID 0000.0001) %MON ad_advcfl_adW_hf_max         =   3.9147419448348E-01
(PID.TID 0000.0001) // =======================================================
(PID.TID 0000.0001) // End MONITOR dynamic field statistics
(PID.TID 0000.0001) // =======================================================
 cg2d: Sum(rhs),rhsMax =  -2.47414935761192E-16  8.78011628740188E-09
 EXTERNAL_FIELDS_LOAD, it=         6 : Reading new data, i0,i1=   12    1 (prev=   12    0 )
 cg2d: Sum(rhs),rhsMax =   1.11910480882216E-13  7.25010420566021E+00
(PID.TID 0000.0001) // =======================================================
(PID.TID 0000.0001) // Begin MONITOR dynamic field statistics
(PID.TID 0000.0001) // =======================================================
(PID.TID 0000.0001) %MON ad_time_tsnumber             =                     7
(PID.TID 0000.0001) %MON ad_time_secondsf             =   3.0240000000000E+05
(PID.TID 0000.0001) %MON ad_dynstat_adeta_max         =   2.7867344196821E-04
(PID.TID 0000.0001) %MON ad_dynstat_adeta_min         =  -2.1967025316380E-04
(PID.TID 0000.0001) %MON ad_dynstat_adeta_mean        =   6.7238214922787E-09
(PID.TID 0000.0001) %MON ad_dynstat_adeta_sd          =   1.1434482987405E-05
(PID.TID 0000.0001) %MON ad_dynstat_adeta_del2        =   3.7555602237696E-07
(PID.TID 0000.0001) %MON ad_dynstat_aduvel_max        =   2.8060394115978E-03
(PID.TID 0000.0001) %MON ad_dynstat_aduvel_min        =  -1.0435981620849E-03
(PID.TID 0000.0001) %MON ad_dynstat_aduvel_mean       =   2.7493614895762E-06
(PID.TID 0000.0001) %MON ad_dynstat_aduvel_sd         =   7.3497600561061E-05
(PID.TID 0000.0001) %MON ad_dynstat_aduvel_del2       =   5.6565170722579E-07
(PID.TID 0000.0001) %MON ad_dynstat_advvel_max        =   1.7410636599882E-02
(PID.TID 0000.0001) %MON ad_dynstat_advvel_min        =  -1.2445799419811E-02
(PID.TID 0000.0001) %MON ad_dynstat_advvel_mean       =   1.0336725894288E-04
(PID.TID 0000.0001) %MON ad_dynstat_advvel_sd         =   8.1536153544534E-04
(PID.TID 0000.0001) %MON ad_dynstat_advvel_del2       =   1.0590722054488E-05
(PID.TID 0000.0001) %MON ad_dynstat_adwvel_max        =   2.5708782337494E-04
(PID.TID 0000.0001) %MON ad_dynstat_adwvel_min        =  -5.4267102838451E-04
(PID.TID 0000.0001) %MON ad_dynstat_adwvel_mean       =   2.1672655166862E-07
(PID.TID 0000.0001) %MON ad_dynstat_adwvel_sd         =   8.9151648886006E-06
(PID.TID 0000.0001) %MON ad_dynstat_adwvel_del2       =   1.0934861683800E-07
(PID.TID 0000.0001) %MON ad_dynstat_adtheta_max       =   1.1473068831719E-04
(PID.TID 0000.0001) %MON ad_dynstat_adtheta_min       =  -1.1031734026667E-04
(PID.TID 0000.0001) %MON ad_dynstat_adtheta_mean      =  -1.0104793371904E-07
(PID.TID 0000.0001) %MON ad_dynstat_adtheta_sd        =   9.9247204584005E-06
(PID.TID 0000.0001) %MON ad_dynstat_adtheta_del2      =   1.4318967393857E-07
(PID.TID 0000.0001) %MON ad_dynstat_adsalt_max        =   5.0052619374415E-04
(PID.TID 0000.0001) %MON ad_dynstat_adsalt_min        =  -5.2118680570679E-04
(PID.TID 0000.0001) %MON ad_dynstat_adsalt_mean       =   1.0666264653159E-07
(PID.TID 0000.0001) %MON ad_dynstat_adsalt_sd         =   4.5508883104297E-05
(PID.TID 0000.0001) %MON ad_dynstat_adsalt_del2       =   6.6227060914890E-07
(PID.TID 0000.0001) %MON ad_forcing_adqnet_max        =   0.0000000000000E+00
(PID.TID 0000.0001) %MON ad_forcing_adqnet_min        =   0.0000000000000E+00
(PID.TID 0000.0001) %MON ad_forcing_adqnet_mean       =   0.0000000000000E+00
(PID.TID 0000.0001) %MON ad_forcing_adqnet_sd         =   0.0000000000000E+00
(PID.TID 0000.0001) %MON ad_forcing_adqnet_del2       =   0.0000000000000E+00
(PID.TID 0000.0001) %MON ad_forcing_adempmr_max       =   3.2140296784565E-03
(PID.TID 0000.0001) %MON ad_forcing_adempmr_min       =  -2.7549595798838E-03
(PID.TID 0000.0001) %MON ad_forcing_adempmr_mean      =  -1.3151583659740E-06
(PID.TID 0000.0001) %MON ad_forcing_adempmr_sd        =   2.9346636636408E-04
(PID.TID 0000.0001) %MON ad_forcing_adempmr_del2      =   1.2792483795285E-05
(PID.TID 0000.0001) %MON ad_forcing_adfu_max          =   0.0000000000000E+00
(PID.TID 0000.0001) %MON ad_forcing_adfu_min          =   0.0000000000000E+00
(PID.TID 0000.0001) %MON ad_forcing_adfu_mean         =   0.0000000000000E+00
(PID.TID 0000.0001) %MON ad_forcing_adfu_sd           =   0.0000000000000E+00
(PID.TID 0000.0001) %MON ad_forcing_adfu_del2         =   0.0000000000000E+00
(PID.TID 0000.0001) %MON ad_forcing_adfv_max          =   0.0000000000000E+00
(PID.TID 0000.0001) %MON ad_forcing_adfv_min          =   0.0000000000000E+00
(PID.TID 0000.0001) %MON ad_forcing_adfv_mean         =   0.0000000000000E+00
(PID.TID 0000.0001) %MON ad_forcing_adfv_sd           =   0.0000000000000E+00
(PID.TID 0000.0001) %MON ad_forcing_adfv_del2         =   0.0000000000000E+00
(PID.TID 0000.0001) %MON ad_advcfl_aduvel_max         =   3.1475315379291E-04
(PID.TID 0000.0001) %MON ad_advcfl_advvel_max         =   1.6913037291585E-03
(PID.TID 0000.0001) %MON ad_advcfl_adwvel_max         =   3.9072314043685E-01
(PID.TID 0000.0001) %MON ad_advcfl_adW_hf_max         =   4.6825689254939E-01
(PID.TID 0000.0001) // =======================================================
(PID.TID 0000.0001) // End MONITOR dynamic field statistics
(PID.TID 0000.0001) // =======================================================
 cg2d: Sum(rhs),rhsMax =   2.65586164172049E-15  5.53238075614817E-09
 EXTERNAL_FIELDS_LOAD, it=         3 : Reading new data, i0,i1=   12    1 (prev=   12    0 )
 cg2d: Sum(rhs),rhsMax =   4.88498130835069E-15  6.81726841666917E+00
 cg2d: Sum(rhs),rhsMax =  -3.01980662698043E-14  6.91967974525862E+00
 cg2d: Sum(rhs),rhsMax =   2.22044604925031E-14  6.87878101803785E+00
 cg2d: Sum(rhs),rhsMax =   2.22044604925031E-14  6.87878101803785E+00
(PID.TID 0000.0001) // =======================================================
(PID.TID 0000.0001) // Begin MONITOR dynamic field statistics
(PID.TID 0000.0001) // =======================================================
(PID.TID 0000.0001) %MON ad_time_tsnumber             =                     6
(PID.TID 0000.0001) %MON ad_time_secondsf             =   2.5920000000000E+05
(PID.TID 0000.0001) %MON ad_dynstat_adeta_max         =   4.0116325747870E-04
(PID.TID 0000.0001) %MON ad_dynstat_adeta_min         =  -3.1178761412549E-04
(PID.TID 0000.0001) %MON ad_dynstat_adeta_mean        =   1.4447797904203E-08
(PID.TID 0000.0001) %MON ad_dynstat_adeta_sd          =   1.7135881523919E-05
(PID.TID 0000.0001) %MON ad_dynstat_adeta_del2        =   5.9950686891240E-07
(PID.TID 0000.0001) %MON ad_dynstat_aduvel_max        =   4.1945710199453E-03
(PID.TID 0000.0001) %MON ad_dynstat_aduvel_min        =  -1.5176971584766E-03
(PID.TID 0000.0001) %MON ad_dynstat_aduvel_mean       =   5.0348640605575E-06
(PID.TID 0000.0001) %MON ad_dynstat_aduvel_sd         =   1.1967259644834E-04
(PID.TID 0000.0001) %MON ad_dynstat_aduvel_del2       =   9.4679603074382E-07
(PID.TID 0000.0001) %MON ad_dynstat_advvel_max        =   2.0572240221585E-02
(PID.TID 0000.0001) %MON ad_dynstat_advvel_min        =  -1.8505305377032E-02
(PID.TID 0000.0001) %MON ad_dynstat_advvel_mean       =   1.1867383422932E-04
(PID.TID 0000.0001) %MON ad_dynstat_advvel_sd         =   1.0124490271965E-03
(PID.TID 0000.0001) %MON ad_dynstat_advvel_del2       =   1.2960546942912E-05
(PID.TID 0000.0001) %MON ad_dynstat_adwvel_max        =   2.7212450433389E-04
(PID.TID 0000.0001) %MON ad_dynstat_adwvel_min        =  -5.9075828057634E-04
(PID.TID 0000.0001) %MON ad_dynstat_adwvel_mean       =   1.9395669383685E-07
(PID.TID 0000.0001) %MON ad_dynstat_adwvel_sd         =   9.4508460561882E-06
(PID.TID 0000.0001) %MON ad_dynstat_adwvel_del2       =   1.1770736951632E-07
(PID.TID 0000.0001) %MON ad_dynstat_adtheta_max       =   2.1782250489305E-04
(PID.TID 0000.0001) %MON ad_dynstat_adtheta_min       =  -2.1408754288106E-04
(PID.TID 0000.0001) %MON ad_dynstat_adtheta_mean      =  -1.2954160103551E-07
(PID.TID 0000.0001) %MON ad_dynstat_adtheta_sd        =   1.9357523071871E-05
(PID.TID 0000.0001) %MON ad_dynstat_adtheta_del2      =   2.8041025142322E-07
(PID.TID 0000.0001) %MON ad_dynstat_adsalt_max        =   1.0032731979648E-03
(PID.TID 0000.0001) %MON ad_dynstat_adsalt_min        =  -1.0279353587095E-03
(PID.TID 0000.0001) %MON ad_dynstat_adsalt_mean       =   1.5325957025524E-07
(PID.TID 0000.0001) %MON ad_dynstat_adsalt_sd         =   8.9571267698702E-05
(PID.TID 0000.0001) %MON ad_dynstat_adsalt_del2       =   1.3041574417484E-06
(PID.TID 0000.0001) %MON ad_forcing_adqnet_max        =   0.0000000000000E+00
(PID.TID 0000.0001) %MON ad_forcing_adqnet_min        =   0.0000000000000E+00
(PID.TID 0000.0001) %MON ad_forcing_adqnet_mean       =   0.0000000000000E+00
(PID.TID 0000.0001) %MON ad_forcing_adqnet_sd         =   0.0000000000000E+00
(PID.TID 0000.0001) %MON ad_forcing_adqnet_del2       =   0.0000000000000E+00
(PID.TID 0000.0001) %MON ad_forcing_adempmr_max       =   4.1382318034266E-03
(PID.TID 0000.0001) %MON ad_forcing_adempmr_min       =  -3.3589209488089E-03
(PID.TID 0000.0001) %MON ad_forcing_adempmr_mean      =  -1.6827651286747E-06
(PID.TID 0000.0001) %MON ad_forcing_adempmr_sd        =   3.6738438024633E-04
(PID.TID 0000.0001) %MON ad_forcing_adempmr_del2      =   1.4481070599527E-05
(PID.TID 0000.0001) %MON ad_forcing_adfu_max          =   0.0000000000000E+00
(PID.TID 0000.0001) %MON ad_forcing_adfu_min          =   0.0000000000000E+00
(PID.TID 0000.0001) %MON ad_forcing_adfu_mean         =   0.0000000000000E+00
(PID.TID 0000.0001) %MON ad_forcing_adfu_sd           =   0.0000000000000E+00
(PID.TID 0000.0001) %MON ad_forcing_adfu_del2         =   0.0000000000000E+00
(PID.TID 0000.0001) %MON ad_forcing_adfv_max          =   0.0000000000000E+00
(PID.TID 0000.0001) %MON ad_forcing_adfv_min          =   0.0000000000000E+00
(PID.TID 0000.0001) %MON ad_forcing_adfv_mean         =   0.0000000000000E+00
(PID.TID 0000.0001) %MON ad_forcing_adfv_sd           =   0.0000000000000E+00
(PID.TID 0000.0001) %MON ad_forcing_adfv_del2         =   0.0000000000000E+00
(PID.TID 0000.0001) %MON ad_advcfl_aduvel_max         =   4.7050460228011E-04
(PID.TID 0000.0001) %MON ad_advcfl_advvel_max         =   1.9984281679940E-03
(PID.TID 0000.0001) %MON ad_advcfl_adwvel_max         =   4.2534596201496E-01
(PID.TID 0000.0001) %MON ad_advcfl_adW_hf_max         =   5.1014003793345E-01
(PID.TID 0000.0001) // =======================================================
(PID.TID 0000.0001) // End MONITOR dynamic field statistics
(PID.TID 0000.0001) // =======================================================
 cg2d: Sum(rhs),rhsMax =  -5.55111512312578E-15  3.71467065612247E-09
 cg2d: Sum(rhs),rhsMax =  -3.01980662698043E-14  6.91967974525862E+00
(PID.TID 0000.0001) // =======================================================
(PID.TID 0000.0001) // Begin MONITOR dynamic field statistics
(PID.TID 0000.0001) // =======================================================
(PID.TID 0000.0001) %MON ad_time_tsnumber             =                     5
(PID.TID 0000.0001) %MON ad_time_secondsf             =   2.1600000000000E+05
(PID.TID 0000.0001) %MON ad_dynstat_adeta_max         =   5.2761789009169E-04
(PID.TID 0000.0001) %MON ad_dynstat_adeta_min         =  -4.0935178283799E-04
(PID.TID 0000.0001) %MON ad_dynstat_adeta_mean        =   2.6660843556982E-08
(PID.TID 0000.0001) %MON ad_dynstat_adeta_sd          =   2.3704840707983E-05
(PID.TID 0000.0001) %MON ad_dynstat_adeta_del2        =   8.7407554410888E-07
(PID.TID 0000.0001) %MON ad_dynstat_aduvel_max        =   6.6066379424772E-03
(PID.TID 0000.0001) %MON ad_dynstat_aduvel_min        =  -1.8342278570371E-03
(PID.TID 0000.0001) %MON ad_dynstat_aduvel_mean       =   8.1757358838446E-06
(PID.TID 0000.0001) %MON ad_dynstat_aduvel_sd         =   1.7078021105180E-04
(PID.TID 0000.0001) %MON ad_dynstat_aduvel_del2       =   1.3328691843253E-06
(PID.TID 0000.0001) %MON ad_dynstat_advvel_max        =   2.3558234533431E-02
(PID.TID 0000.0001) %MON ad_dynstat_advvel_min        =  -2.4307009933984E-02
(PID.TID 0000.0001) %MON ad_dynstat_advvel_mean       =   1.2935786012369E-04
(PID.TID 0000.0001) %MON ad_dynstat_advvel_sd         =   1.2201326054341E-03
(PID.TID 0000.0001) %MON ad_dynstat_advvel_del2       =   1.5368949833001E-05
(PID.TID 0000.0001) %MON ad_dynstat_adwvel_max        =   2.7106584422110E-04
(PID.TID 0000.0001) %MON ad_dynstat_adwvel_min        =  -5.9852180421088E-04
(PID.TID 0000.0001) %MON ad_dynstat_adwvel_mean       =   1.7552498865058E-07
(PID.TID 0000.0001) %MON ad_dynstat_adwvel_sd         =   9.4115976157441E-06
(PID.TID 0000.0001) %MON ad_dynstat_adwvel_del2       =   1.1925866465232E-07
(PID.TID 0000.0001) %MON ad_dynstat_adtheta_max       =   3.4930335073305E-04
(PID.TID 0000.0001) %MON ad_dynstat_adtheta_min       =  -3.6188662960518E-04
(PID.TID 0000.0001) %MON ad_dynstat_adtheta_mean      =  -1.5431738228266E-07
(PID.TID 0000.0001) %MON ad_dynstat_adtheta_sd        =   3.1616515499617E-05
(PID.TID 0000.0001) %MON ad_dynstat_adtheta_del2      =   4.5597284745505E-07
(PID.TID 0000.0001) %MON ad_dynstat_adsalt_max        =   1.7532828474559E-03
(PID.TID 0000.0001) %MON ad_dynstat_adsalt_min        =  -1.6742633956339E-03
(PID.TID 0000.0001) %MON ad_dynstat_adsalt_mean       =   1.9205252508751E-07
(PID.TID 0000.0001) %MON ad_dynstat_adsalt_sd         =   1.4666958672158E-04
(PID.TID 0000.0001) %MON ad_dynstat_adsalt_del2       =   2.1194862804043E-06
(PID.TID 0000.0001) %MON ad_forcing_adqnet_max        =   0.0000000000000E+00
(PID.TID 0000.0001) %MON ad_forcing_adqnet_min        =   0.0000000000000E+00
(PID.TID 0000.0001) %MON ad_forcing_adqnet_mean       =   0.0000000000000E+00
(PID.TID 0000.0001) %MON ad_forcing_adqnet_sd         =   0.0000000000000E+00
(PID.TID 0000.0001) %MON ad_forcing_adqnet_del2       =   0.0000000000000E+00
(PID.TID 0000.0001) %MON ad_forcing_adempmr_max       =   4.7525126059353E-03
(PID.TID 0000.0001) %MON ad_forcing_adempmr_min       =  -3.6519243731943E-03
(PID.TID 0000.0001) %MON ad_forcing_adempmr_mean      =  -2.0314440488149E-06
(PID.TID 0000.0001) %MON ad_forcing_adempmr_sd        =   4.3363708693871E-04
(PID.TID 0000.0001) %MON ad_forcing_adempmr_del2      =   1.6237827550764E-05
(PID.TID 0000.0001) %MON ad_forcing_adfu_max          =   0.0000000000000E+00
(PID.TID 0000.0001) %MON ad_forcing_adfu_min          =   0.0000000000000E+00
(PID.TID 0000.0001) %MON ad_forcing_adfu_mean         =   0.0000000000000E+00
(PID.TID 0000.0001) %MON ad_forcing_adfu_sd           =   0.0000000000000E+00
(PID.TID 0000.0001) %MON ad_forcing_adfu_del2         =   0.0000000000000E+00
(PID.TID 0000.0001) %MON ad_forcing_adfv_max          =   0.0000000000000E+00
(PID.TID 0000.0001) %MON ad_forcing_adfv_min          =   0.0000000000000E+00
(PID.TID 0000.0001) %MON ad_forcing_adfv_mean         =   0.0000000000000E+00
(PID.TID 0000.0001) %MON ad_forcing_adfv_sd           =   0.0000000000000E+00
(PID.TID 0000.0001) %MON ad_forcing_adfv_del2         =   0.0000000000000E+00
(PID.TID 0000.0001) %MON ad_advcfl_aduvel_max         =   7.4106590227061E-04
(PID.TID 0000.0001) %MON ad_advcfl_advvel_max         =   2.3612310963011E-03
(PID.TID 0000.0001) %MON ad_advcfl_adwvel_max         =   4.3093569903183E-01
(PID.TID 0000.0001) %MON ad_advcfl_adW_hf_max         =   5.1723291482553E-01
(PID.TID 0000.0001) // =======================================================
(PID.TID 0000.0001) // End MONITOR dynamic field statistics
(PID.TID 0000.0001) // =======================================================
 cg2d: Sum(rhs),rhsMax =   5.68989300120393E-15  5.91068533618791E-09
 EXTERNAL_FIELDS_LOAD, it=         3 : Reading new data, i0,i1=   12    1 (prev=   12    0 )
 cg2d: Sum(rhs),rhsMax =   4.88498130835069E-15  6.81726841666917E+00
(PID.TID 0000.0001) // =======================================================
(PID.TID 0000.0001) // Begin MONITOR dynamic field statistics
(PID.TID 0000.0001) // =======================================================
(PID.TID 0000.0001) %MON ad_time_tsnumber             =                     4
(PID.TID 0000.0001) %MON ad_time_secondsf             =   1.7280000000000E+05
(PID.TID 0000.0001) %MON ad_dynstat_adeta_max         =   6.5547529799339E-04
(PID.TID 0000.0001) %MON ad_dynstat_adeta_min         =  -5.1442892870601E-04
(PID.TID 0000.0001) %MON ad_dynstat_adeta_mean        =   4.4294787025920E-08
(PID.TID 0000.0001) %MON ad_dynstat_adeta_sd          =   3.1129333266859E-05
(PID.TID 0000.0001) %MON ad_dynstat_adeta_del2        =   1.1963291661673E-06
(PID.TID 0000.0001) %MON ad_dynstat_aduvel_max        =   8.9408277930541E-03
(PID.TID 0000.0001) %MON ad_dynstat_aduvel_min        =  -2.3614231539911E-03
(PID.TID 0000.0001) %MON ad_dynstat_aduvel_mean       =   1.2204137430419E-05
(PID.TID 0000.0001) %MON ad_dynstat_aduvel_sd         =   2.2084371297994E-04
(PID.TID 0000.0001) %MON ad_dynstat_aduvel_del2       =   1.6608288102708E-06
(PID.TID 0000.0001) %MON ad_dynstat_advvel_max        =   2.6355240183505E-02
(PID.TID 0000.0001) %MON ad_dynstat_advvel_min        =  -2.9709644278397E-02
(PID.TID 0000.0001) %MON ad_dynstat_advvel_mean       =   1.3599874811111E-04
(PID.TID 0000.0001) %MON ad_dynstat_advvel_sd         =   1.4202007439023E-03
(PID.TID 0000.0001) %MON ad_dynstat_advvel_del2       =   1.7604601636899E-05
(PID.TID 0000.0001) %MON ad_dynstat_adwvel_max        =   2.5285245225595E-04
(PID.TID 0000.0001) %MON ad_dynstat_adwvel_min        =  -5.6441021602631E-04
(PID.TID 0000.0001) %MON ad_dynstat_adwvel_mean       =   1.5931643545628E-07
(PID.TID 0000.0001) %MON ad_dynstat_adwvel_sd         =   8.7522851578812E-06
(PID.TID 0000.0001) %MON ad_dynstat_adwvel_del2       =   1.1310828209508E-07
(PID.TID 0000.0001) %MON ad_dynstat_adtheta_max       =   5.0405570528936E-04
(PID.TID 0000.0001) %MON ad_dynstat_adtheta_min       =  -5.5126379727866E-04
(PID.TID 0000.0001) %MON ad_dynstat_adtheta_mean      =  -1.7177818804060E-07
(PID.TID 0000.0001) %MON ad_dynstat_adtheta_sd        =   4.6169009588229E-05
(PID.TID 0000.0001) %MON ad_dynstat_adtheta_del2      =   6.6049418017710E-07
(PID.TID 0000.0001) %MON ad_dynstat_adsalt_max        =   2.6891791728587E-03
(PID.TID 0000.0001) %MON ad_dynstat_adsalt_min        =  -2.4411768362499E-03
(PID.TID 0000.0001) %MON ad_dynstat_adsalt_mean       =   2.1500157970571E-07
(PID.TID 0000.0001) %MON ad_dynstat_adsalt_sd         =   2.1434712137410E-04
(PID.TID 0000.0001) %MON ad_dynstat_adsalt_del2       =   3.0670762392226E-06
(PID.TID 0000.0001) %MON ad_forcing_adqnet_max        =   0.0000000000000E+00
(PID.TID 0000.0001) %MON ad_forcing_adqnet_min        =   0.0000000000000E+00
(PID.TID 0000.0001) %MON ad_forcing_adqnet_mean       =   0.0000000000000E+00
(PID.TID 0000.0001) %MON ad_forcing_adqnet_sd         =   0.0000000000000E+00
(PID.TID 0000.0001) %MON ad_forcing_adqnet_del2       =   0.0000000000000E+00
(PID.TID 0000.0001) %MON ad_forcing_adempmr_max       =   5.1783505923760E-03
(PID.TID 0000.0001) %MON ad_forcing_adempmr_min       =  -3.9294853144071E-03
(PID.TID 0000.0001) %MON ad_forcing_adempmr_mean      =  -2.2803401774693E-06
(PID.TID 0000.0001) %MON ad_forcing_adempmr_sd        =   5.0632900944000E-04
(PID.TID 0000.0001) %MON ad_forcing_adempmr_del2      =   1.9402473416554E-05
(PID.TID 0000.0001) %MON ad_forcing_adfu_max          =   0.0000000000000E+00
(PID.TID 0000.0001) %MON ad_forcing_adfu_min          =   0.0000000000000E+00
(PID.TID 0000.0001) %MON ad_forcing_adfu_mean         =   0.0000000000000E+00
(PID.TID 0000.0001) %MON ad_forcing_adfu_sd           =   0.0000000000000E+00
(PID.TID 0000.0001) %MON ad_forcing_adfu_del2         =   0.0000000000000E+00
(PID.TID 0000.0001) %MON ad_forcing_adfv_max          =   0.0000000000000E+00
(PID.TID 0000.0001) %MON ad_forcing_adfv_min          =   0.0000000000000E+00
(PID.TID 0000.0001) %MON ad_forcing_adfv_mean         =   0.0000000000000E+00
(PID.TID 0000.0001) %MON ad_forcing_adfv_sd           =   0.0000000000000E+00
(PID.TID 0000.0001) %MON ad_forcing_adfv_del2         =   0.0000000000000E+00
(PID.TID 0000.0001) %MON ad_advcfl_aduvel_max         =   1.0028917390653E-03
(PID.TID 0000.0001) %MON ad_advcfl_advvel_max         =   2.8860536989421E-03
(PID.TID 0000.0001) %MON ad_advcfl_adwvel_max         =   4.0637535553894E-01
(PID.TID 0000.0001) %MON ad_advcfl_adW_hf_max         =   4.8799302490326E-01
(PID.TID 0000.0001) // =======================================================
(PID.TID 0000.0001) // End MONITOR dynamic field statistics
(PID.TID 0000.0001) // =======================================================
 cg2d: Sum(rhs),rhsMax =   7.35522753814166E-15  7.28684657730482E-09
 EXTERNAL_FIELDS_LOAD, it=         0 : Reading new data, i0,i1=   12    1 (prev=   12    0 )
(PID.TID 0000.0001) SOLVE_FOR_PRESSURE: putPmEinXvector =    F
 cg2d: Sum(rhs),rhsMax =   1.15463194561016E-14  2.53674886388737E+00
 cg2d: Sum(rhs),rhsMax =   1.14908083048704E-14  4.94121822825309E+00
 cg2d: Sum(rhs),rhsMax =  -1.11022302462516E-15  6.30228980167606E+00
 cg2d: Sum(rhs),rhsMax =  -1.11022302462516E-15  6.30228980167606E+00
(PID.TID 0000.0001) // =======================================================
(PID.TID 0000.0001) // Begin MONITOR dynamic field statistics
(PID.TID 0000.0001) // =======================================================
(PID.TID 0000.0001) %MON ad_time_tsnumber             =                     3
(PID.TID 0000.0001) %MON ad_time_secondsf             =   1.2960000000000E+05
(PID.TID 0000.0001) %MON ad_dynstat_adeta_max         =   7.8394324433991E-04
(PID.TID 0000.0001) %MON ad_dynstat_adeta_min         =  -6.2961349832641E-04
(PID.TID 0000.0001) %MON ad_dynstat_adeta_mean        =   6.8137228635320E-08
(PID.TID 0000.0001) %MON ad_dynstat_adeta_sd          =   3.9365434924812E-05
(PID.TID 0000.0001) %MON ad_dynstat_adeta_del2        =   1.5628015113945E-06
(PID.TID 0000.0001) %MON ad_dynstat_aduvel_max        =   1.0935912963132E-02
(PID.TID 0000.0001) %MON ad_dynstat_aduvel_min        =  -2.7760429801630E-03
(PID.TID 0000.0001) %MON ad_dynstat_aduvel_mean       =   1.7038613187454E-05
(PID.TID 0000.0001) %MON ad_dynstat_aduvel_sd         =   2.6522779502792E-04
(PID.TID 0000.0001) %MON ad_dynstat_aduvel_del2       =   1.9082397331577E-06
(PID.TID 0000.0001) %MON ad_dynstat_advvel_max        =   2.8923559258914E-02
(PID.TID 0000.0001) %MON ad_dynstat_advvel_min        =  -3.4735120032568E-02
(PID.TID 0000.0001) %MON ad_dynstat_advvel_mean       =   1.3919078782715E-04
(PID.TID 0000.0001) %MON ad_dynstat_advvel_sd         =   1.6063844861117E-03
(PID.TID 0000.0001) %MON ad_dynstat_advvel_del2       =   1.9608665049624E-05
(PID.TID 0000.0001) %MON ad_dynstat_adwvel_max        =   2.1550125786333E-04
(PID.TID 0000.0001) %MON ad_dynstat_adwvel_min        =  -4.8697175841682E-04
(PID.TID 0000.0001) %MON ad_dynstat_adwvel_mean       =   1.3761977277701E-07
(PID.TID 0000.0001) %MON ad_dynstat_adwvel_sd         =   7.4524480620102E-06
(PID.TID 0000.0001) %MON ad_dynstat_adwvel_del2       =   9.8494633674216E-08
(PID.TID 0000.0001) %MON ad_dynstat_adtheta_max       =   6.8992834732988E-04
(PID.TID 0000.0001) %MON ad_dynstat_adtheta_min       =  -7.7414392543639E-04
(PID.TID 0000.0001) %MON ad_dynstat_adtheta_mean      =  -1.7902900934654E-07
(PID.TID 0000.0001) %MON ad_dynstat_adtheta_sd        =   6.2659232214139E-05
(PID.TID 0000.0001) %MON ad_dynstat_adtheta_del2      =   8.8873264096908E-07
(PID.TID 0000.0001) %MON ad_dynstat_adsalt_max        =   3.7901944044832E-03
(PID.TID 0000.0001) %MON ad_dynstat_adsalt_min        =  -3.3496761263952E-03
(PID.TID 0000.0001) %MON ad_dynstat_adsalt_mean       =   2.1443860297882E-07
(PID.TID 0000.0001) %MON ad_dynstat_adsalt_sd         =   2.9096078681616E-04
(PID.TID 0000.0001) %MON ad_dynstat_adsalt_del2       =   4.1238697208752E-06
(PID.TID 0000.0001) %MON ad_forcing_adqnet_max        =   0.0000000000000E+00
(PID.TID 0000.0001) %MON ad_forcing_adqnet_min        =   0.0000000000000E+00
(PID.TID 0000.0001) %MON ad_forcing_adqnet_mean       =   0.0000000000000E+00
(PID.TID 0000.0001) %MON ad_forcing_adqnet_sd         =   0.0000000000000E+00
(PID.TID 0000.0001) %MON ad_forcing_adqnet_del2       =   0.0000000000000E+00
(PID.TID 0000.0001) %MON ad_forcing_adempmr_max       =   5.6055003194041E-03
(PID.TID 0000.0001) %MON ad_forcing_adempmr_min       =  -4.8443112534643E-03
(PID.TID 0000.0001) %MON ad_forcing_adempmr_mean      =  -2.0986299446094E-06
(PID.TID 0000.0001) %MON ad_forcing_adempmr_sd        =   5.9961589022697E-04
(PID.TID 0000.0001) %MON ad_forcing_adempmr_del2      =   2.4870492184788E-05
(PID.TID 0000.0001) %MON ad_forcing_adfu_max          =   0.0000000000000E+00
(PID.TID 0000.0001) %MON ad_forcing_adfu_min          =   0.0000000000000E+00
(PID.TID 0000.0001) %MON ad_forcing_adfu_mean         =   0.0000000000000E+00
(PID.TID 0000.0001) %MON ad_forcing_adfu_sd           =   0.0000000000000E+00
(PID.TID 0000.0001) %MON ad_forcing_adfu_del2         =   0.0000000000000E+00
(PID.TID 0000.0001) %MON ad_forcing_adfv_max          =   0.0000000000000E+00
(PID.TID 0000.0001) %MON ad_forcing_adfv_min          =   0.0000000000000E+00
(PID.TID 0000.0001) %MON ad_forcing_adfv_mean         =   0.0000000000000E+00
(PID.TID 0000.0001) %MON ad_forcing_adfv_sd           =   0.0000000000000E+00
(PID.TID 0000.0001) %MON ad_forcing_adfv_del2         =   0.0000000000000E+00
(PID.TID 0000.0001) %MON ad_advcfl_aduvel_max         =   1.2266802385326E-03
(PID.TID 0000.0001) %MON ad_advcfl_advvel_max         =   3.3742383689893E-03
(PID.TID 0000.0001) %MON ad_advcfl_adwvel_max         =   3.5061966606011E-01
(PID.TID 0000.0001) %MON ad_advcfl_adW_hf_max         =   4.2105847163060E-01
(PID.TID 0000.0001) // =======================================================
(PID.TID 0000.0001) // End MONITOR dynamic field statistics
(PID.TID 0000.0001) // =======================================================
 cg2d: Sum(rhs),rhsMax =  -3.21964677141295E-15  8.27065784821655E-09
 cg2d: Sum(rhs),rhsMax =   1.14908083048704E-14  4.94121822825309E+00
(PID.TID 0000.0001) // =======================================================
(PID.TID 0000.0001) // Begin MONITOR dynamic field statistics
(PID.TID 0000.0001) // =======================================================
(PID.TID 0000.0001) %MON ad_time_tsnumber             =                     2
(PID.TID 0000.0001) %MON ad_time_secondsf             =   8.6400000000000E+04
(PID.TID 0000.0001) %MON ad_dynstat_adeta_max         =   9.1306141252673E-04
(PID.TID 0000.0001) %MON ad_dynstat_adeta_min         =  -7.5660020897781E-04
(PID.TID 0000.0001) %MON ad_dynstat_adeta_mean        =   9.8847167254058E-08
(PID.TID 0000.0001) %MON ad_dynstat_adeta_sd          =   4.8334084837053E-05
(PID.TID 0000.0001) %MON ad_dynstat_adeta_del2        =   1.9698381329948E-06
(PID.TID 0000.0001) %MON ad_dynstat_aduvel_max        =   1.2533601835666E-02
(PID.TID 0000.0001) %MON ad_dynstat_aduvel_min        =  -3.0893754592606E-03
(PID.TID 0000.0001) %MON ad_dynstat_aduvel_mean       =   2.2480377606730E-05
(PID.TID 0000.0001) %MON ad_dynstat_aduvel_sd         =   3.0217527216551E-04
(PID.TID 0000.0001) %MON ad_dynstat_aduvel_del2       =   2.0902646964002E-06
(PID.TID 0000.0001) %MON ad_dynstat_advvel_max        =   3.1225132487676E-02
(PID.TID 0000.0001) %MON ad_dynstat_advvel_min        =  -3.9399087126634E-02
(PID.TID 0000.0001) %MON ad_dynstat_advvel_mean       =   1.3941476273012E-04
(PID.TID 0000.0001) %MON ad_dynstat_advvel_sd         =   1.7769062276262E-03
(PID.TID 0000.0001) %MON ad_dynstat_advvel_del2       =   2.1368622521438E-05
(PID.TID 0000.0001) %MON ad_dynstat_adwvel_max        =   1.5962026275268E-04
(PID.TID 0000.0001) %MON ad_dynstat_adwvel_min        =  -3.6614940525959E-04
(PID.TID 0000.0001) %MON ad_dynstat_adwvel_mean       =   1.0409186241864E-07
(PID.TID 0000.0001) %MON ad_dynstat_adwvel_sd         =   5.5313660889052E-06
(PID.TID 0000.0001) %MON ad_dynstat_adwvel_del2       =   7.4970372257880E-08
(PID.TID 0000.0001) %MON ad_dynstat_adtheta_max       =   9.0190034342879E-04
(PID.TID 0000.0001) %MON ad_dynstat_adtheta_min       =  -1.0266084256529E-03
(PID.TID 0000.0001) %MON ad_dynstat_adtheta_mean      =  -1.7525786560876E-07
(PID.TID 0000.0001) %MON ad_dynstat_adtheta_sd        =   8.0858848931130E-05
(PID.TID 0000.0001) %MON ad_dynstat_adtheta_del2      =   1.1381194974703E-06
(PID.TID 0000.0001) %MON ad_dynstat_adsalt_max        =   5.0366257055167E-03
(PID.TID 0000.0001) %MON ad_dynstat_adsalt_min        =  -4.3613063440193E-03
(PID.TID 0000.0001) %MON ad_dynstat_adsalt_mean       =   1.8326745641077E-07
(PID.TID 0000.0001) %MON ad_dynstat_adsalt_sd         =   3.7545468263873E-04
(PID.TID 0000.0001) %MON ad_dynstat_adsalt_del2       =   5.2783790378610E-06
(PID.TID 0000.0001) %MON ad_forcing_adqnet_max        =   0.0000000000000E+00
(PID.TID 0000.0001) %MON ad_forcing_adqnet_min        =   0.0000000000000E+00
(PID.TID 0000.0001) %MON ad_forcing_adqnet_mean       =   0.0000000000000E+00
(PID.TID 0000.0001) %MON ad_forcing_adqnet_sd         =   0.0000000000000E+00
(PID.TID 0000.0001) %MON ad_forcing_adqnet_del2       =   0.0000000000000E+00
(PID.TID 0000.0001) %MON ad_forcing_adempmr_max       =   6.8975203281844E-03
(PID.TID 0000.0001) %MON ad_forcing_adempmr_min       =  -6.1331955382474E-03
(PID.TID 0000.0001) %MON ad_forcing_adempmr_mean      =  -1.5253124823199E-06
(PID.TID 0000.0001) %MON ad_forcing_adempmr_sd        =   7.2198326331962E-04
(PID.TID 0000.0001) %MON ad_forcing_adempmr_del2      =   3.2720171207421E-05
(PID.TID 0000.0001) %MON ad_forcing_adfu_max          =   0.0000000000000E+00
(PID.TID 0000.0001) %MON ad_forcing_adfu_min          =   0.0000000000000E+00
(PID.TID 0000.0001) %MON ad_forcing_adfu_mean         =   0.0000000000000E+00
(PID.TID 0000.0001) %MON ad_forcing_adfu_sd           =   0.0000000000000E+00
(PID.TID 0000.0001) %MON ad_forcing_adfu_del2         =   0.0000000000000E+00
(PID.TID 0000.0001) %MON ad_forcing_adfv_max          =   0.0000000000000E+00
(PID.TID 0000.0001) %MON ad_forcing_adfv_min          =   0.0000000000000E+00
(PID.TID 0000.0001) %MON ad_forcing_adfv_mean         =   0.0000000000000E+00
(PID.TID 0000.0001) %MON ad_forcing_adfv_sd           =   0.0000000000000E+00
(PID.TID 0000.0001) %MON ad_forcing_adfv_del2         =   0.0000000000000E+00
(PID.TID 0000.0001) %MON ad_advcfl_aduvel_max         =   1.4058928359507E-03
(PID.TID 0000.0001) %MON ad_advcfl_advvel_max         =   3.8273053716582E-03
(PID.TID 0000.0001) %MON ad_advcfl_adwvel_max         =   2.6362757178690E-01
(PID.TID 0000.0001) %MON ad_advcfl_adW_hf_max         =   3.1647995459418E-01
(PID.TID 0000.0001) // =======================================================
(PID.TID 0000.0001) // End MONITOR dynamic field statistics
(PID.TID 0000.0001) // =======================================================
 cg2d: Sum(rhs),rhsMax =   5.21804821573824E-15  9.28285785728950E-09
 EXTERNAL_FIELDS_LOAD, it=         0 : Reading new data, i0,i1=   12    1 (prev=   12    0 )
(PID.TID 0000.0001) SOLVE_FOR_PRESSURE: putPmEinXvector =    F
 cg2d: Sum(rhs),rhsMax =   1.15463194561016E-14  2.53674886388737E+00
(PID.TID 0000.0001) // =======================================================
(PID.TID 0000.0001) // Begin MONITOR dynamic field statistics
(PID.TID 0000.0001) // =======================================================
(PID.TID 0000.0001) %MON ad_time_tsnumber             =                     1
(PID.TID 0000.0001) %MON ad_time_secondsf             =   4.3200000000000E+04
(PID.TID 0000.0001) %MON ad_dynstat_adeta_max         =   1.0429427545325E-03
(PID.TID 0000.0001) %MON ad_dynstat_adeta_min         =  -8.9551000583982E-04
(PID.TID 0000.0001) %MON ad_dynstat_adeta_mean        =   1.3698855914083E-07
(PID.TID 0000.0001) %MON ad_dynstat_adeta_sd          =   5.7935460618128E-05
(PID.TID 0000.0001) %MON ad_dynstat_adeta_del2        =   2.4136361920132E-06
(PID.TID 0000.0001) %MON ad_dynstat_aduvel_max        =   1.3823988810547E-02
(PID.TID 0000.0001) %MON ad_dynstat_aduvel_min        =  -3.3067243561606E-03
(PID.TID 0000.0001) %MON ad_dynstat_aduvel_mean       =   2.8241343033816E-05
(PID.TID 0000.0001) %MON ad_dynstat_aduvel_sd         =   3.3274253718593E-04
(PID.TID 0000.0001) %MON ad_dynstat_aduvel_del2       =   2.2399539628329E-06
(PID.TID 0000.0001) %MON ad_dynstat_advvel_max        =   3.3234239101596E-02
(PID.TID 0000.0001) %MON ad_dynstat_advvel_min        =  -4.3669470202344E-02
(PID.TID 0000.0001) %MON ad_dynstat_advvel_mean       =   1.3705357328188E-04
(PID.TID 0000.0001) %MON ad_dynstat_advvel_sd         =   1.9308332001083E-03
(PID.TID 0000.0001) %MON ad_dynstat_advvel_del2       =   2.2872446478831E-05
(PID.TID 0000.0001) %MON ad_dynstat_adwvel_max        =   8.6870137211306E-05
(PID.TID 0000.0001) %MON ad_dynstat_adwvel_min        =  -2.0297878783337E-04
(PID.TID 0000.0001) %MON ad_dynstat_adwvel_mean       =   5.7211144004034E-08
(PID.TID 0000.0001) %MON ad_dynstat_adwvel_sd         =   3.0317608218449E-06
(PID.TID 0000.0001) %MON ad_dynstat_adwvel_del2       =   4.2252589598362E-08
(PID.TID 0000.0001) %MON ad_dynstat_adtheta_max       =   1.1352286987095E-03
(PID.TID 0000.0001) %MON ad_dynstat_adtheta_min       =  -1.3048829605014E-03
(PID.TID 0000.0001) %MON ad_dynstat_adtheta_mean      =  -1.6256181827193E-07
(PID.TID 0000.0001) %MON ad_dynstat_adtheta_sd        =   1.0057724551154E-04
(PID.TID 0000.0001) %MON ad_dynstat_adtheta_del2      =   1.4066899729293E-06
(PID.TID 0000.0001) %MON ad_dynstat_adsalt_max        =   6.4090856060198E-03
(PID.TID 0000.0001) %MON ad_dynstat_adsalt_min        =  -5.4690471864756E-03
(PID.TID 0000.0001) %MON ad_dynstat_adsalt_mean       =   1.1516743956626E-07
(PID.TID 0000.0001) %MON ad_dynstat_adsalt_sd         =   4.6694946147161E-04
(PID.TID 0000.0001) %MON ad_dynstat_adsalt_del2       =   6.5215420478000E-06
(PID.TID 0000.0001) %MON ad_forcing_adqnet_max        =   0.0000000000000E+00
(PID.TID 0000.0001) %MON ad_forcing_adqnet_min        =   0.0000000000000E+00
(PID.TID 0000.0001) %MON ad_forcing_adqnet_mean       =   0.0000000000000E+00
(PID.TID 0000.0001) %MON ad_forcing_adqnet_sd         =   0.0000000000000E+00
(PID.TID 0000.0001) %MON ad_forcing_adqnet_del2       =   0.0000000000000E+00
(PID.TID 0000.0001) %MON ad_forcing_adempmr_max       =   8.7255639278024E-03
(PID.TID 0000.0001) %MON ad_forcing_adempmr_min       =  -7.8168006879474E-03
(PID.TID 0000.0001) %MON ad_forcing_adempmr_mean      =  -2.9331414849783E-07
(PID.TID 0000.0001) %MON ad_forcing_adempmr_sd        =   8.7654168617020E-04
(PID.TID 0000.0001) %MON ad_forcing_adempmr_del2      =   4.2609909160576E-05
(PID.TID 0000.0001) %MON ad_forcing_adfu_max          =   0.0000000000000E+00
(PID.TID 0000.0001) %MON ad_forcing_adfu_min          =   0.0000000000000E+00
(PID.TID 0000.0001) %MON ad_forcing_adfu_mean         =   0.0000000000000E+00
(PID.TID 0000.0001) %MON ad_forcing_adfu_sd           =   0.0000000000000E+00
(PID.TID 0000.0001) %MON ad_forcing_adfu_del2         =   0.0000000000000E+00
(PID.TID 0000.0001) %MON ad_forcing_adfv_max          =   0.0000000000000E+00
(PID.TID 0000.0001) %MON ad_forcing_adfv_min          =   0.0000000000000E+00
(PID.TID 0000.0001) %MON ad_forcing_adfv_mean         =   0.0000000000000E+00
(PID.TID 0000.0001) %MON ad_forcing_adfv_sd           =   0.0000000000000E+00
(PID.TID 0000.0001) %MON ad_forcing_adfv_del2         =   0.0000000000000E+00
(PID.TID 0000.0001) %MON ad_advcfl_aduvel_max         =   1.5506354109403E-03
(PID.TID 0000.0001) %MON ad_advcfl_advvel_max         =   4.2421388431082E-03
(PID.TID 0000.0001) %MON ad_advcfl_adwvel_max         =   1.4614472724002E-01
(PID.TID 0000.0001) %MON ad_advcfl_adW_hf_max         =   1.7537367268803E-01
(PID.TID 0000.0001) // =======================================================
(PID.TID 0000.0001) // End MONITOR dynamic field statistics
(PID.TID 0000.0001) // =======================================================
 cg2d: Sum(rhs),rhsMax =   3.10862446895044E-15  1.12114840061903E-08
(PID.TID 0000.0001) Start initial hydrostatic pressure computation
(PID.TID 0000.0001) Pressure is predetermined for buoyancyRelation OCEANIC
(PID.TID 0000.0001) 
(PID.TID 0000.0001) // =======================================================
(PID.TID 0000.0001) // Begin MONITOR dynamic field statistics
(PID.TID 0000.0001) // =======================================================
(PID.TID 0000.0001) %MON ad_time_tsnumber             =                     0
(PID.TID 0000.0001) %MON ad_time_secondsf             =   0.0000000000000E+00
(PID.TID 0000.0001) %MON ad_dynstat_adeta_max         =   1.1733443285690E-03
(PID.TID 0000.0001) %MON ad_dynstat_adeta_min         =  -1.0449521975849E-03
(PID.TID 0000.0001) %MON ad_dynstat_adeta_mean        =   1.7928036802485E-07
(PID.TID 0000.0001) %MON ad_dynstat_adeta_sd          =   6.8063977765077E-05
(PID.TID 0000.0001) %MON ad_dynstat_adeta_del2        =   2.8900502170430E-06
(PID.TID 0000.0001) %MON ad_dynstat_aduvel_max        =   1.4953776567360E-02
(PID.TID 0000.0001) %MON ad_dynstat_aduvel_min        =  -3.4188914860590E-03
(PID.TID 0000.0001) %MON ad_dynstat_aduvel_mean       =   3.3975037419476E-05
(PID.TID 0000.0001) %MON ad_dynstat_aduvel_sd         =   3.5989705734471E-04
(PID.TID 0000.0001) %MON ad_dynstat_aduvel_del2       =   2.3870242991356E-06
(PID.TID 0000.0001) %MON ad_dynstat_advvel_max        =   2.9577999979448E-02
(PID.TID 0000.0001) %MON ad_dynstat_advvel_min        =  -4.7472341869287E-02
(PID.TID 0000.0001) %MON ad_dynstat_advvel_mean       =   1.0095020769810E-04
(PID.TID 0000.0001) %MON ad_dynstat_advvel_sd         =   2.0729446631225E-03
(PID.TID 0000.0001) %MON ad_dynstat_advvel_del2       =   2.2466635162548E-05
(PID.TID 0000.0001) %MON ad_dynstat_adwvel_max        =   0.0000000000000E+00
(PID.TID 0000.0001) %MON ad_dynstat_adwvel_min        =   0.0000000000000E+00
(PID.TID 0000.0001) %MON ad_dynstat_adwvel_mean       =   0.0000000000000E+00
(PID.TID 0000.0001) %MON ad_dynstat_adwvel_sd         =   0.0000000000000E+00
(PID.TID 0000.0001) %MON ad_dynstat_adwvel_del2       =   0.0000000000000E+00
(PID.TID 0000.0001) %MON ad_dynstat_adtheta_max       =   1.3887456335048E-03
(PID.TID 0000.0001) %MON ad_dynstat_adtheta_min       =  -1.6053365415827E-03
(PID.TID 0000.0001) %MON ad_dynstat_adtheta_mean      =  -1.7844481220458E-07
(PID.TID 0000.0001) %MON ad_dynstat_adtheta_sd        =   1.2160219489220E-04
(PID.TID 0000.0001) %MON ad_dynstat_adtheta_del2      =   1.6917573140990E-06
(PID.TID 0000.0001) %MON ad_dynstat_adsalt_max        =   7.8885195323450E-03
(PID.TID 0000.0001) %MON ad_dynstat_adsalt_min        =  -6.6677541612968E-03
(PID.TID 0000.0001) %MON ad_dynstat_adsalt_mean       =   1.7329389727414E-07
(PID.TID 0000.0001) %MON ad_dynstat_adsalt_sd         =   5.6446714064037E-04
(PID.TID 0000.0001) %MON ad_dynstat_adsalt_del2       =   7.8408213377413E-06
(PID.TID 0000.0001) %MON ad_forcing_adqnet_max        =   0.0000000000000E+00
(PID.TID 0000.0001) %MON ad_forcing_adqnet_min        =   0.0000000000000E+00
(PID.TID 0000.0001) %MON ad_forcing_adqnet_mean       =   0.0000000000000E+00
(PID.TID 0000.0001) %MON ad_forcing_adqnet_sd         =   0.0000000000000E+00
(PID.TID 0000.0001) %MON ad_forcing_adqnet_del2       =   0.0000000000000E+00
(PID.TID 0000.0001) %MON ad_forcing_adempmr_max       =   1.0953098611958E-02
(PID.TID 0000.0001) %MON ad_forcing_adempmr_min       =  -9.8967687119515E-03
(PID.TID 0000.0001) %MON ad_forcing_adempmr_mean      =   1.5632041335131E-06
(PID.TID 0000.0001) %MON ad_forcing_adempmr_sd        =   1.0668471875494E-03
(PID.TID 0000.0001) %MON ad_forcing_adempmr_del2      =   5.4465823417632E-05
(PID.TID 0000.0001) %MON ad_forcing_adfu_max          =   0.0000000000000E+00
(PID.TID 0000.0001) %MON ad_forcing_adfu_min          =   0.0000000000000E+00
(PID.TID 0000.0001) %MON ad_forcing_adfu_mean         =   0.0000000000000E+00
(PID.TID 0000.0001) %MON ad_forcing_adfu_sd           =   0.0000000000000E+00
(PID.TID 0000.0001) %MON ad_forcing_adfu_del2         =   0.0000000000000E+00
(PID.TID 0000.0001) %MON ad_forcing_adfv_max          =   0.0000000000000E+00
(PID.TID 0000.0001) %MON ad_forcing_adfv_min          =   0.0000000000000E+00
(PID.TID 0000.0001) %MON ad_forcing_adfv_mean         =   0.0000000000000E+00
(PID.TID 0000.0001) %MON ad_forcing_adfv_sd           =   0.0000000000000E+00
(PID.TID 0000.0001) %MON ad_forcing_adfv_del2         =   0.0000000000000E+00
(PID.TID 0000.0001) %MON ad_advcfl_aduvel_max         =   1.6773635880656E-03
(PID.TID 0000.0001) %MON ad_advcfl_advvel_max         =   4.6115573301873E-03
(PID.TID 0000.0001) %MON ad_advcfl_adwvel_max         =   0.0000000000000E+00
(PID.TID 0000.0001) %MON ad_advcfl_adW_hf_max         =   0.0000000000000E+00
(PID.TID 0000.0001) // =======================================================
(PID.TID 0000.0001) // End MONITOR dynamic field statistics
(PID.TID 0000.0001) // =======================================================
 ph-pack: packing ecco_cost
 ph-pack: packing ecco_ctrl
 ph-check entering grdchk_main 
 ph-check fcref =  -4.56780861167715921E-002
grad-res -------------------------------
 grad-res  proc    #    i    j    k   bi   bj iobc               fc ref           fc + eps           fc - eps
 grad-res  proc    #    i    j    k   bi   bj iobc             adj grad            fd grad         1 - fd/adj
 grad-res exact position met: 
 grad-res     0  258   31    7    1    2    2
 ph-test icomp, ncvarcomp, ichknum          258       29309           1
 ph-grd _loc: bi, bj, icomptest, ichknum            2           2           0           1
 ph-grd -->hit<--           31           7           1           1
(PID.TID 0000.0001) INI_CG2D: CG2D normalisation factor =  6.5682677425711703E-05
(PID.TID 0000.0001) 
(PID.TID 0000.0001) Start initial hydrostatic pressure computation
(PID.TID 0000.0001) Pressure is predetermined for buoyancyRelation OCEANIC
(PID.TID 0000.0001) 
(PID.TID 0000.0001) // =======================================================
(PID.TID 0000.0001) // Model current state
(PID.TID 0000.0001) // =======================================================
(PID.TID 0000.0001) 
 EXTERNAL_FIELDS_LOAD, it=         0 : Reading new data, i0,i1=   12    1 (prev=   12    0 )
(PID.TID 0000.0001) SOLVE_FOR_PRESSURE: putPmEinXvector =    F
 cg2d: Sum(rhs),rhsMax =   1.15463194561016E-14  2.53674886388737E+00
 cg2d: Sum(rhs),rhsMax =   9.65894031423886E-15  4.94121822825309E+00
 cg2d: Sum(rhs),rhsMax =  -1.11022302462516E-16  6.30228980167606E+00
 EXTERNAL_FIELDS_LOAD, it=         3 : Reading new data, i0,i1=   12    1 (prev=   12    0 )
 cg2d: Sum(rhs),rhsMax =   2.22044604925031E-15  6.81726841666918E+00
 cg2d: Sum(rhs),rhsMax =   4.44089209850063E-15  6.91967974525863E+00
 cg2d: Sum(rhs),rhsMax =   1.77635683940025E-14  6.87878101803784E+00
 EXTERNAL_FIELDS_LOAD, it=         6 : Reading new data, i0,i1=   12    1 (prev=   12    0 )
 cg2d: Sum(rhs),rhsMax =   6.21724893790088E-14  7.25010420566021E+00
 cg2d: Sum(rhs),rhsMax =   1.40332190312620E-13  7.86920938791598E+00
 cg2d: Sum(rhs),rhsMax =  -9.23705556488130E-14  8.21195954531582E+00
 EXTERNAL_FIELDS_LOAD, it=         9 : Reading new data, i0,i1=   12    1 (prev=   12    0 )
 cg2d: Sum(rhs),rhsMax =   7.63833440942108E-14  8.30815352750050E+00
(PID.TID 0000.0001) Did not write pickup because writePickupAtEnd = FALSE
 --> objf_test(bi,bj)   =  0.000000000000000D+00
 --> objf_tracer(bi,bj) =  0.000000000000000D+00
 --> objf_atl(bi,bj)    =  0.000000000000000D+00
 --> objf_test(bi,bj)   =  0.000000000000000D+00
 --> objf_tracer(bi,bj) =  0.000000000000000D+00
 --> objf_atl(bi,bj)    =  0.000000000000000D+00
 --> objf_test(bi,bj)   =  0.000000000000000D+00
 --> objf_tracer(bi,bj) =  0.000000000000000D+00
 --> objf_atl(bi,bj)    =  0.000000000000000D+00
 --> objf_test(bi,bj)   =  0.000000000000000D+00
 --> objf_tracer(bi,bj) =  0.000000000000000D+00
 --> objf_atl(bi,bj)    = -0.456782312559932D-01
  local fc = -0.456782312559932D-01
 global fc = -0.456782312559932D-01
 ph-check fcpertplus =  -4.56782312559931708E-002
 ph-check fcpertminus =  -4.56780861167715921E-002
(PID.TID 0000.0001) INI_CG2D: CG2D normalisation factor =  6.5682677425711703E-05
(PID.TID 0000.0001) 
(PID.TID 0000.0001) Start initial hydrostatic pressure computation
(PID.TID 0000.0001) Pressure is predetermined for buoyancyRelation OCEANIC
(PID.TID 0000.0001) 
(PID.TID 0000.0001) // =======================================================
(PID.TID 0000.0001) // Model current state
(PID.TID 0000.0001) // =======================================================
(PID.TID 0000.0001) 
 EXTERNAL_FIELDS_LOAD, it=         0 : Reading new data, i0,i1=   12    1 (prev=   12    0 )
(PID.TID 0000.0001) SOLVE_FOR_PRESSURE: putPmEinXvector =    F
 cg2d: Sum(rhs),rhsMax =   1.15463194561016E-14  2.53674886388737E+00
 cg2d: Sum(rhs),rhsMax =   1.66533453693773E-16  4.94121822825309E+00
 cg2d: Sum(rhs),rhsMax =  -7.54951656745106E-15  6.30228980167606E+00
 EXTERNAL_FIELDS_LOAD, it=         3 : Reading new data, i0,i1=   12    1 (prev=   12    0 )
 cg2d: Sum(rhs),rhsMax =   1.90958360235527E-14  6.81726841666918E+00
 cg2d: Sum(rhs),rhsMax =  -4.44089209850063E-14  6.91967974525862E+00
 cg2d: Sum(rhs),rhsMax =   2.30926389122033E-14  6.87878101803784E+00
 EXTERNAL_FIELDS_LOAD, it=         6 : Reading new data, i0,i1=   12    1 (prev=   12    0 )
 cg2d: Sum(rhs),rhsMax =   4.08562073062058E-14  7.25010420566021E+00
 cg2d: Sum(rhs),rhsMax =   7.46069872548105E-14  7.86920938791598E+00
 cg2d: Sum(rhs),rhsMax =  -2.30926389122033E-14  8.21195954531581E+00
 EXTERNAL_FIELDS_LOAD, it=         9 : Reading new data, i0,i1=   12    1 (prev=   12    0 )
 cg2d: Sum(rhs),rhsMax =   3.19744231092045E-14  8.30815352750049E+00
(PID.TID 0000.0001) Did not write pickup because writePickupAtEnd = FALSE
 --> objf_test(bi,bj)   =  0.000000000000000D+00
 --> objf_tracer(bi,bj) =  0.000000000000000D+00
 --> objf_atl(bi,bj)    =  0.000000000000000D+00
 --> objf_test(bi,bj)   =  0.000000000000000D+00
 --> objf_tracer(bi,bj) =  0.000000000000000D+00
 --> objf_atl(bi,bj)    =  0.000000000000000D+00
 --> objf_test(bi,bj)   =  0.000000000000000D+00
 --> objf_tracer(bi,bj) =  0.000000000000000D+00
 --> objf_atl(bi,bj)    =  0.000000000000000D+00
 --> objf_test(bi,bj)   =  0.000000000000000D+00
 --> objf_tracer(bi,bj) =  0.000000000000000D+00
 --> objf_atl(bi,bj)    = -0.456779409693835D-01
  local fc = -0.456779409693835D-01
 global fc = -0.456779409693835D-01
grad-res -------------------------------
 grad-res     0    1   31    7    1    2    2    1  -4.56780861168E-02 -4.56782312560E-02 -4.56779409694E-02
 grad-res     0    1    1  258    0    2    2    1  -1.45143643687E-05 -1.45143304816E-05  2.33472629996E-06
(PID.TID 0000.0001)  ADM  ref_cost_function      = -4.56780861167716E-02
(PID.TID 0000.0001)  ADM  adjoint_gradient       = -1.45143643686619E-05
(PID.TID 0000.0001)  ADM  finite-diff_grad       = -1.45143304815937E-05
 ph-grd  ierr ---------------------------
 ph-grd  ierr =            0 , icomp =          258 , ichknum =            1
 ph-test icomp, ncvarcomp, ichknum          259       29309           2
 ph-grd _loc: bi, bj, icomptest, ichknum            2           2         258           2
 ph-grd -->hit<--           32           7           1           1
(PID.TID 0000.0001) INI_CG2D: CG2D normalisation factor =  6.5682677425711703E-05
(PID.TID 0000.0001) 
(PID.TID 0000.0001) Start initial hydrostatic pressure computation
(PID.TID 0000.0001) Pressure is predetermined for buoyancyRelation OCEANIC
(PID.TID 0000.0001) 
(PID.TID 0000.0001) // =======================================================
(PID.TID 0000.0001) // Model current state
(PID.TID 0000.0001) // =======================================================
(PID.TID 0000.0001) 
 EXTERNAL_FIELDS_LOAD, it=         0 : Reading new data, i0,i1=   12    1 (prev=   12    0 )
(PID.TID 0000.0001) SOLVE_FOR_PRESSURE: putPmEinXvector =    F
 cg2d: Sum(rhs),rhsMax =   1.15463194561016E-14  2.53674886388737E+00
 cg2d: Sum(rhs),rhsMax =   5.38458166943201E-15  4.94121822825309E+00
 cg2d: Sum(rhs),rhsMax =   1.29896093881143E-14  6.30228980167606E+00
 EXTERNAL_FIELDS_LOAD, it=         3 : Reading new data, i0,i1=   12    1 (prev=   12    0 )
 cg2d: Sum(rhs),rhsMax =   2.22044604925031E-15  6.81726841666917E+00
 cg2d: Sum(rhs),rhsMax =  -1.50990331349021E-14  6.91967974525862E+00
 cg2d: Sum(rhs),rhsMax =   4.26325641456060E-14  6.87878101803785E+00
 EXTERNAL_FIELDS_LOAD, it=         6 : Reading new data, i0,i1=   12    1 (prev=   12    0 )
 cg2d: Sum(rhs),rhsMax =   8.88178419700125E-14  7.25010420566021E+00
 cg2d: Sum(rhs),rhsMax =   4.79616346638068E-14  7.86920938791598E+00
 cg2d: Sum(rhs),rhsMax =  -9.05941988094128E-14  8.21195954531581E+00
 EXTERNAL_FIELDS_LOAD, it=         9 : Reading new data, i0,i1=   12    1 (prev=   12    0 )
 cg2d: Sum(rhs),rhsMax =  -4.08562073062058E-14  8.30815352750049E+00
(PID.TID 0000.0001) Did not write pickup because writePickupAtEnd = FALSE
 --> objf_test(bi,bj)   =  0.000000000000000D+00
 --> objf_tracer(bi,bj) =  0.000000000000000D+00
 --> objf_atl(bi,bj)    =  0.000000000000000D+00
 --> objf_test(bi,bj)   =  0.000000000000000D+00
 --> objf_tracer(bi,bj) =  0.000000000000000D+00
 --> objf_atl(bi,bj)    =  0.000000000000000D+00
 --> objf_test(bi,bj)   =  0.000000000000000D+00
 --> objf_tracer(bi,bj) =  0.000000000000000D+00
 --> objf_atl(bi,bj)    =  0.000000000000000D+00
 --> objf_test(bi,bj)   =  0.000000000000000D+00
 --> objf_tracer(bi,bj) =  0.000000000000000D+00
 --> objf_atl(bi,bj)    = -0.456782212947356D-01
  local fc = -0.456782212947356D-01
 global fc = -0.456782212947356D-01
 ph-check fcpertplus =  -4.56782212947356159E-002
 ph-check fcpertminus =  -4.56780861167715921E-002
(PID.TID 0000.0001) INI_CG2D: CG2D normalisation factor =  6.5682677425711703E-05
(PID.TID 0000.0001) 
(PID.TID 0000.0001) Start initial hydrostatic pressure computation
(PID.TID 0000.0001) Pressure is predetermined for buoyancyRelation OCEANIC
(PID.TID 0000.0001) 
(PID.TID 0000.0001) // =======================================================
(PID.TID 0000.0001) // Model current state
(PID.TID 0000.0001) // =======================================================
(PID.TID 0000.0001) 
 EXTERNAL_FIELDS_LOAD, it=         0 : Reading new data, i0,i1=   12    1 (prev=   12    0 )
(PID.TID 0000.0001) SOLVE_FOR_PRESSURE: putPmEinXvector =    F
 cg2d: Sum(rhs),rhsMax =   1.15463194561016E-14  2.53674886388737E+00
 cg2d: Sum(rhs),rhsMax =   4.99600361081320E-15  4.94121822825309E+00
 cg2d: Sum(rhs),rhsMax =   9.32587340685131E-15  6.30228980167606E+00
 EXTERNAL_FIELDS_LOAD, it=         3 : Reading new data, i0,i1=   12    1 (prev=   12    0 )
 cg2d: Sum(rhs),rhsMax =   1.77635683940025E-15  6.81726841666918E+00
 cg2d: Sum(rhs),rhsMax =   1.50990331349021E-14  6.91967974525863E+00
 cg2d: Sum(rhs),rhsMax =   3.73034936274053E-14  6.87878101803785E+00
 EXTERNAL_FIELDS_LOAD, it=         6 : Reading new data, i0,i1=   12    1 (prev=   12    0 )
 cg2d: Sum(rhs),rhsMax =   9.23705556488130E-14  7.25010420566021E+00
 cg2d: Sum(rhs),rhsMax =   1.26121335597418E-13  7.86920938791596E+00
 cg2d: Sum(rhs),rhsMax =  -1.08357767203415E-13  8.21195954531580E+00
 EXTERNAL_FIELDS_LOAD, it=         9 : Reading new data, i0,i1=   12    1 (prev=   12    0 )
 cg2d: Sum(rhs),rhsMax =   1.42108547152020E-14  8.30815352750050E+00
(PID.TID 0000.0001) Did not write pickup because writePickupAtEnd = FALSE
 --> objf_test(bi,bj)   =  0.000000000000000D+00
 --> objf_tracer(bi,bj) =  0.000000000000000D+00
 --> objf_atl(bi,bj)    =  0.000000000000000D+00
 --> objf_test(bi,bj)   =  0.000000000000000D+00
 --> objf_tracer(bi,bj) =  0.000000000000000D+00
 --> objf_atl(bi,bj)    =  0.000000000000000D+00
 --> objf_test(bi,bj)   =  0.000000000000000D+00
 --> objf_tracer(bi,bj) =  0.000000000000000D+00
 --> objf_atl(bi,bj)    =  0.000000000000000D+00
 --> objf_test(bi,bj)   =  0.000000000000000D+00
 --> objf_tracer(bi,bj) =  0.000000000000000D+00
 --> objf_atl(bi,bj)    = -0.456779508901523D-01
  local fc = -0.456779508901523D-01
 global fc = -0.456779508901523D-01
grad-res -------------------------------
 grad-res     0    2   32    7    1    2    2    1  -4.56780861168E-02 -4.56782212947E-02 -4.56779508902E-02
 grad-res     0    2    2  259    0    2    2    1  -1.35202303153E-05 -1.35202291654E-05  8.50501423733E-08
(PID.TID 0000.0001)  ADM  ref_cost_function      = -4.56780861167716E-02
(PID.TID 0000.0001)  ADM  adjoint_gradient       = -1.35202303152955E-05
(PID.TID 0000.0001)  ADM  finite-diff_grad       = -1.35202291653980E-05
 ph-grd  ierr ---------------------------
 ph-grd  ierr =            0 , icomp =          259 , ichknum =            2
 ph-test icomp, ncvarcomp, ichknum          260       29309           3
 ph-grd _loc: bi, bj, icomptest, ichknum            2           2         259           3
 ph-grd -->hit<--           33           7           1           1
(PID.TID 0000.0001) INI_CG2D: CG2D normalisation factor =  6.5682677425711703E-05
(PID.TID 0000.0001) 
(PID.TID 0000.0001) Start initial hydrostatic pressure computation
(PID.TID 0000.0001) Pressure is predetermined for buoyancyRelation OCEANIC
(PID.TID 0000.0001) 
(PID.TID 0000.0001) // =======================================================
(PID.TID 0000.0001) // Model current state
(PID.TID 0000.0001) // =======================================================
(PID.TID 0000.0001) 
 EXTERNAL_FIELDS_LOAD, it=         0 : Reading new data, i0,i1=   12    1 (prev=   12    0 )
(PID.TID 0000.0001) SOLVE_FOR_PRESSURE: putPmEinXvector =    F
 cg2d: Sum(rhs),rhsMax =   1.15463194561016E-14  2.53674886388737E+00
 cg2d: Sum(rhs),rhsMax =   2.83106871279415E-15  4.94121822825308E+00
 cg2d: Sum(rhs),rhsMax =   8.88178419700125E-16  6.30228980167606E+00
 EXTERNAL_FIELDS_LOAD, it=         3 : Reading new data, i0,i1=   12    1 (prev=   12    0 )
 cg2d: Sum(rhs),rhsMax =  -3.55271367880050E-15  6.81726841666918E+00
 cg2d: Sum(rhs),rhsMax =  -7.99360577730113E-15  6.91967974525863E+00
 cg2d: Sum(rhs),rhsMax =   6.83897383169096E-14  6.87878101803784E+00
 EXTERNAL_FIELDS_LOAD, it=         6 : Reading new data, i0,i1=   12    1 (prev=   12    0 )
 cg2d: Sum(rhs),rhsMax =   3.37507799486048E-14  7.25010420566021E+00
 cg2d: Sum(rhs),rhsMax =   1.26121335597418E-13  7.86920938791597E+00
 cg2d: Sum(rhs),rhsMax =  -6.75015598972095E-14  8.21195954531581E+00
 EXTERNAL_FIELDS_LOAD, it=         9 : Reading new data, i0,i1=   12    1 (prev=   12    0 )
 cg2d: Sum(rhs),rhsMax =   1.77635683940025E-14  8.30815352750048E+00
(PID.TID 0000.0001) Did not write pickup because writePickupAtEnd = FALSE
 --> objf_test(bi,bj)   =  0.000000000000000D+00
 --> objf_tracer(bi,bj) =  0.000000000000000D+00
 --> objf_atl(bi,bj)    =  0.000000000000000D+00
 --> objf_test(bi,bj)   =  0.000000000000000D+00
 --> objf_tracer(bi,bj) =  0.000000000000000D+00
 --> objf_atl(bi,bj)    =  0.000000000000000D+00
 --> objf_test(bi,bj)   =  0.000000000000000D+00
 --> objf_tracer(bi,bj) =  0.000000000000000D+00
 --> objf_atl(bi,bj)    =  0.000000000000000D+00
 --> objf_test(bi,bj)   =  0.000000000000000D+00
 --> objf_tracer(bi,bj) =  0.000000000000000D+00
 --> objf_atl(bi,bj)    = -0.456781786610785D-01
  local fc = -0.456781786610785D-01
 global fc = -0.456781786610785D-01
 ph-check fcpertplus =  -4.56781786610784765E-002
 ph-check fcpertminus =  -4.56780861167715921E-002
(PID.TID 0000.0001) INI_CG2D: CG2D normalisation factor =  6.5682677425711703E-05
(PID.TID 0000.0001) 
(PID.TID 0000.0001) Start initial hydrostatic pressure computation
(PID.TID 0000.0001) Pressure is predetermined for buoyancyRelation OCEANIC
(PID.TID 0000.0001) 
(PID.TID 0000.0001) // =======================================================
(PID.TID 0000.0001) // Model current state
(PID.TID 0000.0001) // =======================================================
(PID.TID 0000.0001) 
 EXTERNAL_FIELDS_LOAD, it=         0 : Reading new data, i0,i1=   12    1 (prev=   12    0 )
(PID.TID 0000.0001) SOLVE_FOR_PRESSURE: putPmEinXvector =    F
 cg2d: Sum(rhs),rhsMax =   9.76996261670138E-15  2.53674886388737E+00
 cg2d: Sum(rhs),rhsMax =   8.71525074330748E-15  4.94121822825309E+00
 cg2d: Sum(rhs),rhsMax =   1.45439216225896E-14  6.30228980167606E+00
 EXTERNAL_FIELDS_LOAD, it=         3 : Reading new data, i0,i1=   12    1 (prev=   12    0 )
 cg2d: Sum(rhs),rhsMax =  -4.44089209850063E-15  6.81726841666918E+00
 cg2d: Sum(rhs),rhsMax =  -1.15463194561016E-14  6.91967974525862E+00
 cg2d: Sum(rhs),rhsMax =   8.43769498715119E-14  6.87878101803784E+00
 EXTERNAL_FIELDS_LOAD, it=         6 : Reading new data, i0,i1=   12    1 (prev=   12    0 )
 cg2d: Sum(rhs),rhsMax =   7.10542735760100E-14  7.25010420566021E+00
 cg2d: Sum(rhs),rhsMax =  -3.90798504668055E-14  7.86920938791582E+00
 cg2d: Sum(rhs),rhsMax =  -5.32907051820075E-14  8.21195954531567E+00
 EXTERNAL_FIELDS_LOAD, it=         9 : Reading new data, i0,i1=   12    1 (prev=   12    0 )
 cg2d: Sum(rhs),rhsMax =  -1.01252339845814E-13  8.30815352750042E+00
(PID.TID 0000.0001) Did not write pickup because writePickupAtEnd = FALSE
 --> objf_test(bi,bj)   =  0.000000000000000D+00
 --> objf_tracer(bi,bj) =  0.000000000000000D+00
 --> objf_atl(bi,bj)    =  0.000000000000000D+00
 --> objf_test(bi,bj)   =  0.000000000000000D+00
 --> objf_tracer(bi,bj) =  0.000000000000000D+00
 --> objf_atl(bi,bj)    =  0.000000000000000D+00
 --> objf_test(bi,bj)   =  0.000000000000000D+00
 --> objf_tracer(bi,bj) =  0.000000000000000D+00
 --> objf_atl(bi,bj)    =  0.000000000000000D+00
 --> objf_test(bi,bj)   =  0.000000000000000D+00
 --> objf_tracer(bi,bj) =  0.000000000000000D+00
 --> objf_atl(bi,bj)    = -0.456779939555383D-01
  local fc = -0.456779939555383D-01
 global fc = -0.456779939555383D-01
grad-res -------------------------------
 grad-res     0    3   33    7    1    2    2    1  -4.56780861168E-02 -4.56781786611E-02 -4.56779939555E-02
 grad-res     0    3    3  260    0    2    2    1  -9.23572556626E-06 -9.23527700980E-06  4.85675386348E-05
(PID.TID 0000.0001)  ADM  ref_cost_function      = -4.56780861167716E-02
(PID.TID 0000.0001)  ADM  adjoint_gradient       = -9.23572556625857E-06
(PID.TID 0000.0001)  ADM  finite-diff_grad       = -9.23527700980031E-06
 ph-grd  ierr ---------------------------
 ph-grd  ierr =            0 , icomp =          260 , ichknum =            3
 ph-test icomp, ncvarcomp, ichknum          261       29309           4
 ph-grd _loc: bi, bj, icomptest, ichknum            2           2         260           4
 ph-grd -->hit<--           34           7           1           1
(PID.TID 0000.0001) INI_CG2D: CG2D normalisation factor =  6.5682677425711703E-05
(PID.TID 0000.0001) 
(PID.TID 0000.0001) Start initial hydrostatic pressure computation
(PID.TID 0000.0001) Pressure is predetermined for buoyancyRelation OCEANIC
(PID.TID 0000.0001) 
(PID.TID 0000.0001) // =======================================================
(PID.TID 0000.0001) // Model current state
(PID.TID 0000.0001) // =======================================================
(PID.TID 0000.0001) 
 EXTERNAL_FIELDS_LOAD, it=         0 : Reading new data, i0,i1=   12    1 (prev=   12    0 )
(PID.TID 0000.0001) SOLVE_FOR_PRESSURE: putPmEinXvector =    F
 cg2d: Sum(rhs),rhsMax =   9.76996261670138E-15  2.53674886388737E+00
 cg2d: Sum(rhs),rhsMax =   4.27435864480685E-15  4.94121822825308E+00
 cg2d: Sum(rhs),rhsMax =   1.47659662275146E-14  6.30228980167606E+00
 EXTERNAL_FIELDS_LOAD, it=         3 : Reading new data, i0,i1=   12    1 (prev=   12    0 )
 cg2d: Sum(rhs),rhsMax =   2.13162820728030E-14  6.81726841666917E+00
 cg2d: Sum(rhs),rhsMax =  -3.81916720471054E-14  6.91967974525863E+00
 cg2d: Sum(rhs),rhsMax =   5.95079541199084E-14  6.87878101803785E+00
 EXTERNAL_FIELDS_LOAD, it=         6 : Reading new data, i0,i1=   12    1 (prev=   12    0 )
 cg2d: Sum(rhs),rhsMax =   8.88178419700125E-14  7.25010420566021E+00
 cg2d: Sum(rhs),rhsMax =  -3.73034936274053E-14  7.86920938791581E+00
 cg2d: Sum(rhs),rhsMax =  -2.13162820728030E-14  8.21195954531566E+00
 EXTERNAL_FIELDS_LOAD, it=         9 : Reading new data, i0,i1=   12    1 (prev=   12    0 )
 cg2d: Sum(rhs),rhsMax =  -1.26121335597418E-13  8.30815352750042E+00
(PID.TID 0000.0001) Did not write pickup because writePickupAtEnd = FALSE
 --> objf_test(bi,bj)   =  0.000000000000000D+00
 --> objf_tracer(bi,bj) =  0.000000000000000D+00
 --> objf_atl(bi,bj)    =  0.000000000000000D+00
 --> objf_test(bi,bj)   =  0.000000000000000D+00
 --> objf_tracer(bi,bj) =  0.000000000000000D+00
 --> objf_atl(bi,bj)    =  0.000000000000000D+00
 --> objf_test(bi,bj)   =  0.000000000000000D+00
 --> objf_tracer(bi,bj) =  0.000000000000000D+00
 --> objf_atl(bi,bj)    =  0.000000000000000D+00
 --> objf_test(bi,bj)   =  0.000000000000000D+00
 --> objf_tracer(bi,bj) =  0.000000000000000D+00
 --> objf_atl(bi,bj)    = -0.456784037651770D-01
  local fc = -0.456784037651770D-01
 global fc = -0.456784037651770D-01
 ph-check fcpertplus =  -4.56784037651769698E-002
 ph-check fcpertminus =  -4.56780861167715921E-002
(PID.TID 0000.0001) INI_CG2D: CG2D normalisation factor =  6.5682677425711703E-05
(PID.TID 0000.0001) 
(PID.TID 0000.0001) Start initial hydrostatic pressure computation
(PID.TID 0000.0001) Pressure is predetermined for buoyancyRelation OCEANIC
(PID.TID 0000.0001) 
(PID.TID 0000.0001) // =======================================================
(PID.TID 0000.0001) // Model current state
(PID.TID 0000.0001) // =======================================================
(PID.TID 0000.0001) 
 EXTERNAL_FIELDS_LOAD, it=         0 : Reading new data, i0,i1=   12    1 (prev=   12    0 )
(PID.TID 0000.0001) SOLVE_FOR_PRESSURE: putPmEinXvector =    F
 cg2d: Sum(rhs),rhsMax =   9.76996261670138E-15  2.53674886388737E+00
 cg2d: Sum(rhs),rhsMax =   3.83026943495679E-15  4.94121822825308E+00
 cg2d: Sum(rhs),rhsMax =   8.65973959207622E-15  6.30228980167606E+00
 EXTERNAL_FIELDS_LOAD, it=         3 : Reading new data, i0,i1=   12    1 (prev=   12    0 )
 cg2d: Sum(rhs),rhsMax =  -1.90958360235527E-14  6.81726841666917E+00
 cg2d: Sum(rhs),rhsMax =   1.59872115546023E-14  6.91967974525863E+00
 cg2d: Sum(rhs),rhsMax =   4.52970994047064E-14  6.87878101803785E+00
 EXTERNAL_FIELDS_LOAD, it=         6 : Reading new data, i0,i1=   12    1 (prev=   12    0 )
 cg2d: Sum(rhs),rhsMax =   3.55271367880050E-14  7.25010420566021E+00
 cg2d: Sum(rhs),rhsMax =  -9.41469124882133E-14  7.86920938791581E+00
 cg2d: Sum(rhs),rhsMax =  -1.24344978758018E-14  8.21195954531567E+00
 EXTERNAL_FIELDS_LOAD, it=         9 : Reading new data, i0,i1=   12    1 (prev=   12    0 )
 cg2d: Sum(rhs),rhsMax =  -3.90798504668055E-14  8.30815352750043E+00
(PID.TID 0000.0001) Did not write pickup because writePickupAtEnd = FALSE
 --> objf_test(bi,bj)   =  0.000000000000000D+00
 --> objf_tracer(bi,bj) =  0.000000000000000D+00
 --> objf_atl(bi,bj)    =  0.000000000000000D+00
 --> objf_test(bi,bj)   =  0.000000000000000D+00
 --> objf_tracer(bi,bj) =  0.000000000000000D+00
 --> objf_atl(bi,bj)    =  0.000000000000000D+00
 --> objf_test(bi,bj)   =  0.000000000000000D+00
 --> objf_tracer(bi,bj) =  0.000000000000000D+00
 --> objf_atl(bi,bj)    =  0.000000000000000D+00
 --> objf_test(bi,bj)   =  0.000000000000000D+00
 --> objf_tracer(bi,bj) =  0.000000000000000D+00
 --> objf_atl(bi,bj)    = -0.456779674235721D-01
  local fc = -0.456779674235721D-01
 global fc = -0.456779674235721D-01
grad-res -------------------------------
 grad-res     0    4   34    7    1    2    2    1  -4.56780861168E-02 -4.56784037652E-02 -4.56779674236E-02
 grad-res     0    4    4  261    0    2    2    1  -2.85656164646E-05 -2.18170802410E-05  2.36246826039E-01
(PID.TID 0000.0001)  ADM  ref_cost_function      = -4.56780861167716E-02
(PID.TID 0000.0001)  ADM  adjoint_gradient       = -2.85656164646265E-05
(PID.TID 0000.0001)  ADM  finite-diff_grad       = -2.18170802410156E-05
 ph-grd  ierr ---------------------------
 ph-grd  ierr =            0 , icomp =          261 , ichknum =            4
(PID.TID 0000.0001) 
(PID.TID 0000.0001) // =======================================================
(PID.TID 0000.0001) // Gradient check results  >>> START <<<
(PID.TID 0000.0001) // =======================================================
(PID.TID 0000.0001) 
(PID.TID 0000.0001)  EPS =   1.000000E-02
(PID.TID 0000.0001) 
(PID.TID 0000.0001) grdchk output h.p:  Id Itile Jtile LAYER   bi   bj   X(Id)           X(Id)+/-EPS
(PID.TID 0000.0001) grdchk output h.c:  Id  FC                   FC1                  FC2
(PID.TID 0000.0001) grdchk output h.g:  Id     FC1-FC2/(2*EPS)      ADJ GRAD(FC)         1-FDGRD/ADGRD
(PID.TID 0000.0001) 
(PID.TID 0000.0001) grdchk output (p):   1    31     7     1    2    2   0.000000000E+00 -1.000000000E-02
(PID.TID 0000.0001) grdchk output (c):   1 -4.5678086116772E-02 -4.5678231255993E-02 -4.5677940969384E-02
(PID.TID 0000.0001) grdchk output (g):   1    -1.4514330481594E-05 -1.4514364368662E-05  2.3347262999573E-06
(PID.TID 0000.0001) 
(PID.TID 0000.0001) grdchk output (p):   2    32     7     1    2    2   0.000000000E+00 -1.000000000E-02
(PID.TID 0000.0001) grdchk output (c):   2 -4.5678086116772E-02 -4.5678221294736E-02 -4.5677950890152E-02
(PID.TID 0000.0001) grdchk output (g):   2    -1.3520229165398E-05 -1.3520230315295E-05  8.5050142373255E-08
(PID.TID 0000.0001) 
(PID.TID 0000.0001) grdchk output (p):   3    33     7     1    2    2   0.000000000E+00 -1.000000000E-02
(PID.TID 0000.0001) grdchk output (c):   3 -4.5678086116772E-02 -4.5678178661078E-02 -4.5677993955538E-02
(PID.TID 0000.0001) grdchk output (g):   3    -9.2352770098003E-06 -9.2357255662586E-06  4.8567538634803E-05
(PID.TID 0000.0001) 
(PID.TID 0000.0001) grdchk output (p):   4    34     7     1    2    2   0.000000000E+00 -1.000000000E-02
(PID.TID 0000.0001) grdchk output (c):   4 -4.5678086116772E-02 -4.5678403765177E-02 -4.5677967423572E-02
(PID.TID 0000.0001) grdchk output (g):   4    -2.1817080241016E-05 -2.8565616464627E-05  2.3624682603884E-01
(PID.TID 0000.0001) 
(PID.TID 0000.0001) // =======================================================
(PID.TID 0000.0001) // Gradient check results  >>> END <<<
(PID.TID 0000.0001) // =======================================================
(PID.TID 0000.0001) 
(PID.TID 0000.0001)   Seconds in section "ALL                    [THE_MODEL_MAIN]":
(PID.TID 0000.0001)           User time:   193.75999999999999
(PID.TID 0000.0001)         System time:  0.53000000000000003
(PID.TID 0000.0001)     Wall clock time:   213.69288396835327
(PID.TID 0000.0001)          No. starts:           1
(PID.TID 0000.0001)           No. stops:           1
(PID.TID 0000.0001)   Seconds in section "INITIALISE_FIXED       [THE_MODEL_MAIN]":
(PID.TID 0000.0001)           User time:  0.53000000000000003
(PID.TID 0000.0001)         System time:  7.00000000000000067E-002
(PID.TID 0000.0001)     Wall clock time:   11.345594882965088
(PID.TID 0000.0001)          No. starts:           1
(PID.TID 0000.0001)           No. stops:           1
(PID.TID 0000.0001)   Seconds in section "ADTHE_MAIN_LOOP          [ADJOINT RUN]":
(PID.TID 0000.0001)           User time:   97.420000000000002
(PID.TID 0000.0001)         System time:  0.40000000000000002
(PID.TID 0000.0001)     Wall clock time:   106.26095986366272
(PID.TID 0000.0001)          No. starts:           1
(PID.TID 0000.0001)           No. stops:           1
(PID.TID 0000.0001)   Seconds in section "UPDATE_SURF_DR      [FORWARD_STEP]":
(PID.TID 0000.0001)           User time:  0.11000000000004206
(PID.TID 0000.0001)         System time:   0.0000000000000000
(PID.TID 0000.0001)     Wall clock time:  0.11341381072998047
(PID.TID 0000.0001)          No. starts:         200
(PID.TID 0000.0001)           No. stops:         200
(PID.TID 0000.0001)   Seconds in section "LOAD_FIELDS_DRIVER  [FORWARD_STEP]":
(PID.TID 0000.0001)           User time:  0.25999999999996248
(PID.TID 0000.0001)         System time:  1.00000000000000089E-002
(PID.TID 0000.0001)     Wall clock time:  0.26628303527832031
(PID.TID 0000.0001)          No. starts:         100
(PID.TID 0000.0001)           No. stops:         100
(PID.TID 0000.0001)   Seconds in section "EXTERNAL_FLDS_LOAD [LOAD_FLDS_DRIVER]":
(PID.TID 0000.0001)           User time:  0.30999999999997385
(PID.TID 0000.0001)         System time:  1.00000000000000089E-002
(PID.TID 0000.0001)     Wall clock time:  0.31027030944824219
(PID.TID 0000.0001)          No. starts:         120
(PID.TID 0000.0001)           No. stops:         120
(PID.TID 0000.0001)   Seconds in section "I/O (WRITE)        [ADJOINT LOOP]":
(PID.TID 0000.0001)           User time:  0.15000000000000568
(PID.TID 0000.0001)         System time:  3.00000000000000266E-002
(PID.TID 0000.0001)     Wall clock time:   3.5206410884857178
(PID.TID 0000.0001)          No. starts:         160
(PID.TID 0000.0001)           No. stops:         160
(PID.TID 0000.0001)   Seconds in section "DO_ATMOSPHERIC_PHYS [FORWARD_STEP]":
(PID.TID 0000.0001)           User time:   0.0000000000000000
(PID.TID 0000.0001)         System time:   0.0000000000000000
(PID.TID 0000.0001)     Wall clock time:  9.26494598388671875E-004
(PID.TID 0000.0001)          No. starts:         100
(PID.TID 0000.0001)           No. stops:         100
(PID.TID 0000.0001)   Seconds in section "DO_OCEANIC_PHYS     [FORWARD_STEP]":
(PID.TID 0000.0001)           User time:   18.099999999999994
(PID.TID 0000.0001)         System time:  3.00000000000000266E-002
(PID.TID 0000.0001)     Wall clock time:   18.179080486297607
(PID.TID 0000.0001)          No. starts:         100
(PID.TID 0000.0001)           No. stops:         100
(PID.TID 0000.0001)   Seconds in section "DYNAMICS            [FORWARD_STEP]":
(PID.TID 0000.0001)           User time:   39.350000000000193
(PID.TID 0000.0001)         System time:  2.00000000000000178E-002
(PID.TID 0000.0001)     Wall clock time:   39.476076364517212
(PID.TID 0000.0001)          No. starts:         100
(PID.TID 0000.0001)           No. stops:         100
(PID.TID 0000.0001)   Seconds in section "SOLVE_FOR_PRESSURE  [FORWARD_STEP]":
(PID.TID 0000.0001)           User time:   4.8999999999998920
(PID.TID 0000.0001)         System time:   0.0000000000000000
(PID.TID 0000.0001)     Wall clock time:   4.8733937740325928
(PID.TID 0000.0001)          No. starts:         100
(PID.TID 0000.0001)           No. stops:         100
(PID.TID 0000.0001)   Seconds in section "MOM_CORRECTION_STEP [FORWARD_STEP]":
(PID.TID 0000.0001)           User time:  0.62000000000000455
(PID.TID 0000.0001)         System time:   0.0000000000000000
(PID.TID 0000.0001)     Wall clock time:  0.68925166130065918
(PID.TID 0000.0001)          No. starts:         100
(PID.TID 0000.0001)           No. stops:         100
(PID.TID 0000.0001)   Seconds in section "INTEGR_CONTINUITY   [FORWARD_STEP]":
(PID.TID 0000.0001)           User time:   1.8299999999999557
(PID.TID 0000.0001)         System time:   0.0000000000000000
(PID.TID 0000.0001)     Wall clock time:   1.8656189441680908
(PID.TID 0000.0001)          No. starts:         100
(PID.TID 0000.0001)           No. stops:         100
(PID.TID 0000.0001)   Seconds in section "CALC_SURF_DR      [FORWARD_STEP]":
(PID.TID 0000.0001)           User time:  0.14999999999997726
(PID.TID 0000.0001)         System time:   0.0000000000000000
(PID.TID 0000.0001)     Wall clock time:  0.13103127479553223
(PID.TID 0000.0001)          No. starts:         100
(PID.TID 0000.0001)           No. stops:         100
(PID.TID 0000.0001)   Seconds in section "BLOCKING_EXCHANGES  [FORWARD_STEP]":
(PID.TID 0000.0001)           User time:  0.84999999999999432
(PID.TID 0000.0001)         System time:   0.0000000000000000
(PID.TID 0000.0001)     Wall clock time:  0.79190492630004883
(PID.TID 0000.0001)          No. starts:         200
(PID.TID 0000.0001)           No. stops:         200
(PID.TID 0000.0001)   Seconds in section "THERMODYNAMICS      [FORWARD_STEP]":
(PID.TID 0000.0001)           User time:   46.800000000000153
(PID.TID 0000.0001)         System time:   0.0000000000000000
(PID.TID 0000.0001)     Wall clock time:   46.974896669387817
(PID.TID 0000.0001)          No. starts:         100
(PID.TID 0000.0001)           No. stops:         100
(PID.TID 0000.0001)   Seconds in section "TRC_CORRECTION_STEP [FORWARD_STEP]":
(PID.TID 0000.0001)           User time:  0.38999999999998636
(PID.TID 0000.0001)         System time:   0.0000000000000000
(PID.TID 0000.0001)     Wall clock time:  0.35784697532653809
(PID.TID 0000.0001)          No. starts:         100
(PID.TID 0000.0001)           No. stops:         100
(PID.TID 0000.0001)   Seconds in section "MONITOR             [FORWARD_STEP]":
(PID.TID 0000.0001)           User time:  0.86000000000001364
(PID.TID 0000.0001)         System time:  1.00000000000000089E-002
(PID.TID 0000.0001)     Wall clock time:  0.85281896591186523
(PID.TID 0000.0001)          No. starts:         100
(PID.TID 0000.0001)           No. stops:         100
(PID.TID 0000.0001)   Seconds in section "COST_TILE           [FORWARD_STEP]":
(PID.TID 0000.0001)           User time:   1.5600000000000307
(PID.TID 0000.0001)         System time:   0.0000000000000000
(PID.TID 0000.0001)     Wall clock time:   1.5850088596343994
(PID.TID 0000.0001)          No. starts:         100
(PID.TID 0000.0001)           No. stops:         100
(PID.TID 0000.0001)   Seconds in section "DO_THE_MODEL_IO     [FORWARD_STEP]":
(PID.TID 0000.0001)           User time:  6.99999999999931788E-002
(PID.TID 0000.0001)         System time:   0.0000000000000000
(PID.TID 0000.0001)     Wall clock time:   2.6131236553192139
(PID.TID 0000.0001)          No. starts:         100
(PID.TID 0000.0001)           No. stops:         100
(PID.TID 0000.0001)   Seconds in section "DO_WRITE_PICKUP     [FORWARD_STEP]":
(PID.TID 0000.0001)           User time:  4.99999999999829470E-002
(PID.TID 0000.0001)         System time:  1.00000000000000089E-002
(PID.TID 0000.0001)     Wall clock time:  4.82423305511474609E-002
(PID.TID 0000.0001)          No. starts:         100
(PID.TID 0000.0001)           No. stops:         100
(PID.TID 0000.0001)   Seconds in section "CTRL_PACK           [THE_MODEL_MAIN]":
(PID.TID 0000.0001)           User time:  9.00000000000034106E-002
(PID.TID 0000.0001)         System time:   0.0000000000000000
(PID.TID 0000.0001)     Wall clock time:  9.22329425811767578E-002
(PID.TID 0000.0001)          No. starts:           1
(PID.TID 0000.0001)           No. stops:           1
(PID.TID 0000.0001)   Seconds in section "CTRL_PACK     [THE_MODEL_MAIN]":
(PID.TID 0000.0001)           User time:  8.99999999999891998E-002
(PID.TID 0000.0001)         System time:   0.0000000000000000
(PID.TID 0000.0001)     Wall clock time:  8.92369747161865234E-002
(PID.TID 0000.0001)          No. starts:           1
(PID.TID 0000.0001)           No. stops:           1
(PID.TID 0000.0001)   Seconds in section "GRDCHK_MAIN         [THE_MODEL_MAIN]":
(PID.TID 0000.0001)           User time:   95.620000000000005
(PID.TID 0000.0001)         System time:  5.99999999999999978E-002
(PID.TID 0000.0001)     Wall clock time:   95.901993989944458
(PID.TID 0000.0001)          No. starts:           1
(PID.TID 0000.0001)           No. stops:           1
(PID.TID 0000.0001)   Seconds in section "INITIALISE_VARIA    [THE_MAIN_LOOP]":
(PID.TID 0000.0001)           User time:   1.0099999999999909
(PID.TID 0000.0001)         System time:  1.00000000000000089E-002
(PID.TID 0000.0001)     Wall clock time:   1.0130822658538818
(PID.TID 0000.0001)          No. starts:           8
(PID.TID 0000.0001)           No. stops:           8
(PID.TID 0000.0001)   Seconds in section "MAIN LOOP           [THE_MAIN_LOOP]":
(PID.TID 0000.0001)           User time:   94.469999999999942
(PID.TID 0000.0001)         System time:  3.00000000000000266E-002
(PID.TID 0000.0001)     Wall clock time:   94.741256237030029
(PID.TID 0000.0001)          No. starts:           8
(PID.TID 0000.0001)           No. stops:           8
(PID.TID 0000.0001)   Seconds in section "FORWARD_STEP        [THE_MAIN_LOOP]":
(PID.TID 0000.0001)           User time:   91.999999999999972
(PID.TID 0000.0001)         System time:  3.00000000000000266E-002
(PID.TID 0000.0001)     Wall clock time:   92.250909566879272
(PID.TID 0000.0001)          No. starts:          80
(PID.TID 0000.0001)           No. stops:          80
(PID.TID 0000.0001)   Seconds in section "COST_FINAL         [ADJOINT SPIN-DOWN]":
(PID.TID 0000.0001)           User time:   0.0000000000000000
(PID.TID 0000.0001)         System time:   0.0000000000000000
(PID.TID 0000.0001)     Wall clock time:  8.79287719726562500E-004
(PID.TID 0000.0001)          No. starts:           8
(PID.TID 0000.0001)           No. stops:           8
(PID.TID 0000.0001) // ======================================================
(PID.TID 0000.0001) // Tile <-> Tile communication statistics
(PID.TID 0000.0001) // ======================================================
(PID.TID 0000.0001) // o Tile number: 000001
(PID.TID 0000.0001) //         No. X exchanges =              0
(PID.TID 0000.0001) //            Max. X spins =              0
(PID.TID 0000.0001) //            Min. X spins =     1000000000
(PID.TID 0000.0001) //          Total. X spins =              0
(PID.TID 0000.0001) //            Avg. X spins =       0.00E+00
(PID.TID 0000.0001) //         No. Y exchanges =              0
(PID.TID 0000.0001) //            Max. Y spins =              0
(PID.TID 0000.0001) //            Min. Y spins =     1000000000
(PID.TID 0000.0001) //          Total. Y spins =              0
(PID.TID 0000.0001) //            Avg. Y spins =       0.00E+00
(PID.TID 0000.0001) // o Tile number: 000002
(PID.TID 0000.0001) //         No. X exchanges =              0
(PID.TID 0000.0001) //            Max. X spins =              0
(PID.TID 0000.0001) //            Min. X spins =     1000000000
(PID.TID 0000.0001) //          Total. X spins =              0
(PID.TID 0000.0001) //            Avg. X spins =       0.00E+00
(PID.TID 0000.0001) //         No. Y exchanges =              0
(PID.TID 0000.0001) //            Max. Y spins =              0
(PID.TID 0000.0001) //            Min. Y spins =     1000000000
(PID.TID 0000.0001) //          Total. Y spins =              0
(PID.TID 0000.0001) //            Avg. Y spins =       0.00E+00
(PID.TID 0000.0001) // o Tile number: 000003
(PID.TID 0000.0001) //         No. X exchanges =              0
(PID.TID 0000.0001) //            Max. X spins =              0
(PID.TID 0000.0001) //            Min. X spins =     1000000000
(PID.TID 0000.0001) //          Total. X spins =              0
(PID.TID 0000.0001) //            Avg. X spins =       0.00E+00
(PID.TID 0000.0001) //         No. Y exchanges =              0
(PID.TID 0000.0001) //            Max. Y spins =              0
(PID.TID 0000.0001) //            Min. Y spins =     1000000000
(PID.TID 0000.0001) //          Total. Y spins =              0
(PID.TID 0000.0001) //            Avg. Y spins =       0.00E+00
(PID.TID 0000.0001) // o Tile number: 000004
(PID.TID 0000.0001) //         No. X exchanges =              0
(PID.TID 0000.0001) //            Max. X spins =              0
(PID.TID 0000.0001) //            Min. X spins =     1000000000
(PID.TID 0000.0001) //          Total. X spins =              0
(PID.TID 0000.0001) //            Avg. X spins =       0.00E+00
(PID.TID 0000.0001) //         No. Y exchanges =              0
(PID.TID 0000.0001) //            Max. Y spins =              0
(PID.TID 0000.0001) //            Min. Y spins =     1000000000
(PID.TID 0000.0001) //          Total. Y spins =              0
(PID.TID 0000.0001) //            Avg. Y spins =       0.00E+00
(PID.TID 0000.0001) // o Thread number: 000001
(PID.TID 0000.0001) //            No. barriers =          26246
(PID.TID 0000.0001) //      Max. barrier spins =              1
(PID.TID 0000.0001) //      Min. barrier spins =              1
(PID.TID 0000.0001) //     Total barrier spins =          26246
(PID.TID 0000.0001) //      Avg. barrier spins =       1.00E+00
PROGRAM MAIN: Execution ended Normally
