(PID.TID 0000.0001) 
(PID.TID 0000.0001) // ======================================================
(PID.TID 0000.0001) //                      MITgcm UV
(PID.TID 0000.0001) //                      =========
(PID.TID 0000.0001) // ======================================================
(PID.TID 0000.0001) // execution environment starting up...
(PID.TID 0000.0001) 
(PID.TID 0000.0001) // MITgcmUV version:  checkpoint59p
(PID.TID 0000.0001) // Build user:        heimbach
(PID.TID 0000.0001) // Build host:        faulks
(PID.TID 0000.0001) // Build date:        Mon Apr 21 11:24:09 EDT 2008
(PID.TID 0000.0001) 
(PID.TID 0000.0001) // =======================================================
(PID.TID 0000.0001) // Execution Environment parameter file "eedata"
(PID.TID 0000.0001) // =======================================================
(PID.TID 0000.0001) ># Example "eedata" file
(PID.TID 0000.0001) ># Lines beginning "#" are comments
(PID.TID 0000.0001) ># nTx - No. threads per process in X
(PID.TID 0000.0001) ># nTy - No. threads per process in Y
(PID.TID 0000.0001) > &EEPARMS
(PID.TID 0000.0001) > nTx=1,
(PID.TID 0000.0001) > nTy=1,
(PID.TID 0000.0001) > /
(PID.TID 0000.0001) ># Note: Some systems use & as the
(PID.TID 0000.0001) ># namelist terminator. Other systems
(PID.TID 0000.0001) ># use a / character (as shown here).
(PID.TID 0000.0001) 
(PID.TID 0000.0001) // =======================================================
(PID.TID 0000.0001) // Computational Grid Specification ( see files "SIZE.h" )
(PID.TID 0000.0001) //                                  ( and "eedata"       )
(PID.TID 0000.0001) // =======================================================
(PID.TID 0000.0001)      nPx =    1 ; /* No. processes in X */
(PID.TID 0000.0001)      nPy =    1 ; /* No. processes in Y */
(PID.TID 0000.0001)      nSx =    1 ; /* No. tiles in X per process */
(PID.TID 0000.0001)      nSy =    1 ; /* No. tiles in Y per process */
(PID.TID 0000.0001)      sNx =   90 ; /* Tile size in X */
(PID.TID 0000.0001)      sNy =   40 ; /* Tile size in Y */
(PID.TID 0000.0001)      OLx =    3 ; /* Tile overlap distance in X */
(PID.TID 0000.0001)      OLy =    3 ; /* Tile overlap distance in Y */
(PID.TID 0000.0001)      nTx =    1 ; /* No. threads in X per process */
(PID.TID 0000.0001)      nTy =    1 ; /* No. threads in Y per process */
(PID.TID 0000.0001)       Nr =   15 ; /* No. levels in the vertical   */
(PID.TID 0000.0001)       nX =   90 ; /* Total domain size in X ( = nPx*nSx*sNx ) */
(PID.TID 0000.0001)       nY =   40 ; /* Total domain size in Y ( = nPy*nSy*sNy ) */
(PID.TID 0000.0001)   nTiles =    1 ; /* Total no. tiles per process ( = nSx*nSy ) */
(PID.TID 0000.0001)   nProcs =    1 ; /* Total no. processes ( = nPx*nPy ) */
(PID.TID 0000.0001) nThreads =    1 ; /* Total no. threads per process ( = nTx*nTy ) */
(PID.TID 0000.0001) usingMPI =    F ; /* Flag used to control whether MPI is in use */
(PID.TID 0000.0001)                   /*  note: To execute a program with MPI calls */
(PID.TID 0000.0001)                   /*  it must be launched appropriately e.g     */
(PID.TID 0000.0001)                   /*  "mpirun -np 64 ......"                    */
(PID.TID 0000.0001) useCoupler=   F ; /* Flag used to control communications with */
(PID.TID 0000.0001)                   /*  other model components, through a coupler */
(PID.TID 0000.0001) 
(PID.TID 0000.0001) // ======================================================
(PID.TID 0000.0001) // Mapping of tiles to threads
(PID.TID 0000.0001) // ======================================================
(PID.TID 0000.0001) // -o- Thread   1, tiles (   1:   1,   1:   1)
(PID.TID 0000.0001) 
(PID.TID 0000.0001) // ======================================================
(PID.TID 0000.0001) // Tile <-> Tile connectvity table
(PID.TID 0000.0001) // ======================================================
(PID.TID 0000.0001) // Tile number: 000001 (process no. = 000001)
(PID.TID 0000.0001) //        WEST: Tile = 000001, Process = 000001, Comm = put
(PID.TID 0000.0001) //                bi = 000001, bj = 000001
(PID.TID 0000.0001) //        EAST: Tile = 000001, Process = 000001, Comm = put
(PID.TID 0000.0001) //                bi = 000001, bj = 000001
(PID.TID 0000.0001) //       SOUTH: Tile = 000001, Process = 000001, Comm = put
(PID.TID 0000.0001) //                bi = 000001, bj = 000001
(PID.TID 0000.0001) //       NORTH: Tile = 000001, Process = 000001, Comm = put
(PID.TID 0000.0001) //                bi = 000001, bj = 000001
(PID.TID 0000.0001) 
(PID.TID 0000.0001) // =======================================================
(PID.TID 0000.0001) // Model parameter file "data"
(PID.TID 0000.0001) // =======================================================
(PID.TID 0000.0001) ># ====================
(PID.TID 0000.0001) ># | Model parameters |
(PID.TID 0000.0001) ># ====================
(PID.TID 0000.0001) >#
(PID.TID 0000.0001) ># Continuous equation parameters
(PID.TID 0000.0001) > &PARM01
(PID.TID 0000.0001) > tRef = 15*20.,
(PID.TID 0000.0001) > sRef = 15*35.,
(PID.TID 0000.0001) > viscAr=1.E-3,
(PID.TID 0000.0001) > diffKhT=0.0,
(PID.TID 0000.0001) > diffKrT=3.E-5,
(PID.TID 0000.0001) > diffKhS=0.0,
(PID.TID 0000.0001) > diffKrS=3.E-5,
(PID.TID 0000.0001) >#ph(
(PID.TID 0000.0001) > viscC4Leith=1.5,
(PID.TID 0000.0001) > viscC4Leithd=1.5,
(PID.TID 0000.0001) > viscA4GridMax=0.5,
(PID.TID 0000.0001) > useAreaViscLength=.TRUE.,
(PID.TID 0000.0001) > bottomDragQuadratic = 0.0021,
(PID.TID 0000.0001) > multiDimAdvection=.TRUE,
(PID.TID 0000.0001) > tempAdvScheme=33,
(PID.TID 0000.0001) > saltAdvScheme=33,
(PID.TID 0000.0001) > tempImplVertAdv=.FALSE.,
(PID.TID 0000.0001) > saltImplVertAdv=.FALSE.,
(PID.TID 0000.0001) > hFacInf=0.2,
(PID.TID 0000.0001) > hFacSup=2.0,
(PID.TID 0000.0001) > nonlinFreeSurf=2,
(PID.TID 0000.0001) > staggerTimeStep=.TRUE.,
(PID.TID 0000.0001) > inAdExact=.TRUE.,
(PID.TID 0000.0001) >#ph)
(PID.TID 0000.0001) > rhonil=1035.,
(PID.TID 0000.0001) > rotationPeriod=86400.,
(PID.TID 0000.0001) > gravity=9.81,
(PID.TID 0000.0001) > eosType = 'JMD95Z',
(PID.TID 0000.0001) > ivdc_kappa=100.,
(PID.TID 0000.0001) > implicitDiffusion=.TRUE.,
(PID.TID 0000.0001) > allowFreezing=.TRUE.,
(PID.TID 0000.0001) > useRealFreshWaterFlux=.TRUE.,
(PID.TID 0000.0001) > useCDscheme=.TRUE.,
(PID.TID 0000.0001) > exactConserv=.TRUE.
(PID.TID 0000.0001) ># turn on looped cells
(PID.TID 0000.0001) > hFacMin=.05,
(PID.TID 0000.0001) > hFacMindr=50.,
(PID.TID 0000.0001) ># set precision of data files
(PID.TID 0000.0001) > readBinaryPrec=32,
(PID.TID 0000.0001) > debugLevel=1,
(PID.TID 0000.0001) > &
(PID.TID 0000.0001) >
(PID.TID 0000.0001) ># Elliptic solver parameters
(PID.TID 0000.0001) > &PARM02
(PID.TID 0000.0001) > cg2dMaxIters=500,
(PID.TID 0000.0001) > cg2dTargetResidual=1.E-13,
(PID.TID 0000.0001) > &
(PID.TID 0000.0001) >
(PID.TID 0000.0001) ># Time stepping parameters
(PID.TID 0000.0001) > &PARM03
(PID.TID 0000.0001) > nIter0 =      0,
(PID.TID 0000.0001) > nTimeSteps = 10,
(PID.TID 0000.0001) ># 100 years of integration will yield a reasonable flow field
(PID.TID 0000.0001) ># startTime  =          0.,
(PID.TID 0000.0001) ># endTime    = 3110400000.,
(PID.TID 0000.0001) > deltaTmom = 1200.0,
(PID.TID 0000.0001) > tauCD =     321428.,
(PID.TID 0000.0001) > deltaTtracer= 43200.0,
(PID.TID 0000.0001) > deltaTClock = 43200.0,
(PID.TID 0000.0001) ># if you are using a version later than checkpoint45d on the main branch
(PID.TID 0000.0001) ># you can uncomment the following line and increase the time step
(PID.TID 0000.0001) ># deltaTtracer and deltaTClock to 172800.0 as well to speed up the
(PID.TID 0000.0001) ># asynchronous time stepping
(PID.TID 0000.0001) ># deltaTfreesurf = 172800.0,
(PID.TID 0000.0001) > abEps = 0.1,
(PID.TID 0000.0001) > pChkptFreq= 311040000.,
(PID.TID 0000.0001) > dumpFreq=   311040000.,
(PID.TID 0000.0001) > dumpFreq=   864000.,
(PID.TID 0000.0001) > adjDumpFreq= 432000.,
(PID.TID 0000.0001) > adjMonitorFreq=1.,
(PID.TID 0000.0001) ># taveFreq=   311040000.,
(PID.TID 0000.0001) ># taveFreq=   864000.,
(PID.TID 0000.0001) >#monitorFreq=31104000.,
(PID.TID 0000.0001) > monitorFreq=1.,
(PID.TID 0000.0001) ># 2 months restoring timescale for temperature
(PID.TID 0000.0001) > tauThetaClimRelax =  5184000.0,
(PID.TID 0000.0001) ># 6 months restoring timescale for salinity
(PID.TID 0000.0001) > tauSaltClimRelax = 15552000.0,
(PID.TID 0000.0001) > periodicExternalForcing=.TRUE.,
(PID.TID 0000.0001) > externForcingPeriod=2592000.,
(PID.TID 0000.0001) > externForcingCycle=31104000.,
(PID.TID 0000.0001) > &
(PID.TID 0000.0001) >
(PID.TID 0000.0001) ># Gridding parameters
(PID.TID 0000.0001) > &PARM04
(PID.TID 0000.0001) > usingCartesianGrid=.FALSE.,
(PID.TID 0000.0001) > usingSphericalPolarGrid=.TRUE.,
(PID.TID 0000.0001) > delR= 50., 70., 100., 140., 190.,
(PID.TID 0000.0001) >       240., 290., 340., 390., 440.,
(PID.TID 0000.0001) >       490., 540., 590., 640., 690.,
(PID.TID 0000.0001) > phiMin=-80.,
(PID.TID 0000.0001) > dySpacing=4.,
(PID.TID 0000.0001) > dxSpacing=4.,
(PID.TID 0000.0001) > &
(PID.TID 0000.0001) >
(PID.TID 0000.0001) ># Input datasets
(PID.TID 0000.0001) > &PARM05
(PID.TID 0000.0001) > bathyFile=      'bathymetry.bin',
(PID.TID 0000.0001) > hydrogThetaFile='lev_t.bin',
(PID.TID 0000.0001) > hydrogSaltFile= 'lev_s.bin',
(PID.TID 0000.0001) > zonalWindFile=  'trenberth_taux.bin',
(PID.TID 0000.0001) > meridWindFile=  'trenberth_tauy.bin',
(PID.TID 0000.0001) > thetaClimFile=  'lev_sst.bin',
(PID.TID 0000.0001) > saltClimFile=   'lev_sss.bin',
(PID.TID 0000.0001) > surfQFile=      'ncep_qnet.bin',
(PID.TID 0000.0001) ># fresh water flux is turned off, uncomment next line to turn on
(PID.TID 0000.0001) ># (not recommened together with surface salinity restoring)
(PID.TID 0000.0001) ># EmPmRFile=      'ncep_emp.bin',
(PID.TID 0000.0001) > &
(PID.TID 0000.0001) 
(PID.TID 0000.0001) S/R INI_PARMS ; starts to read PARM01
(PID.TID 0000.0001) S/R INI_PARMS ; read PARM01 : OK
(PID.TID 0000.0001) S/R INI_PARMS: No request for barotropic solver
(PID.TID 0000.0001) S/R INI_PARMS: => Use implicitFreeSurface as default
(PID.TID 0000.0001) S/R INI_PARMS ; starts to read PARM02
(PID.TID 0000.0001) S/R INI_PARMS ; read PARM02 : OK
(PID.TID 0000.0001) S/R INI_PARMS ; starts to read PARM03
(PID.TID 0000.0001) S/R INI_PARMS ; read PARM03 : OK
(PID.TID 0000.0001) S/R INI_PARMS ; starts to read PARM04
(PID.TID 0000.0001) S/R INI_PARMS ; read PARM04 : OK
(PID.TID 0000.0001) S/R INI_PARMS ; starts to read PARM05
(PID.TID 0000.0001) S/R INI_PARMS ; read PARM05 : OK
(PID.TID 0000.0001)  PACKAGES_BOOT: opening data.pkg
(PID.TID 0000.0001)  OPEN_COPY_DATA_FILE: opening file data.pkg
(PID.TID 0000.0001) // =======================================================
(PID.TID 0000.0001) // Parameter file "data.pkg"
(PID.TID 0000.0001) // =======================================================
(PID.TID 0000.0001) >#
(PID.TID 0000.0001) ># ********
(PID.TID 0000.0001) ># Packages
(PID.TID 0000.0001) ># ********
(PID.TID 0000.0001) > &PACKAGES
(PID.TID 0000.0001) > useGMRedi    = .TRUE.,
(PID.TID 0000.0001) > useKPP       = .FALSE.,
(PID.TID 0000.0001) > useGrdchk    = .TRUE.,
(PID.TID 0000.0001) > useMNC       = .TRUE.,
(PID.TID 0000.0001) > &
(PID.TID 0000.0001) 
(PID.TID 0000.0001)  PACKAGES_BOOT: finished reading data.pkg
(PID.TID 0000.0001)  MNC_READPARMS: opening file 'data.mnc'
(PID.TID 0000.0001)  OPEN_COPY_DATA_FILE: opening file data.mnc
(PID.TID 0000.0001) // =======================================================
(PID.TID 0000.0001) // Parameter file "data.mnc"
(PID.TID 0000.0001) // =======================================================
(PID.TID 0000.0001) ># Example "data.mnc" file
(PID.TID 0000.0001) ># Lines beginning "#" are comments
(PID.TID 0000.0001) > &MNC_01
(PID.TID 0000.0001) ># mnc_echo_gvtypes=.FALSE.,
(PID.TID 0000.0001) ># mnc_use_indir=.FALSE.,
(PID.TID 0000.0001) > mnc_use_outdir=.TRUE.,
(PID.TID 0000.0001) > mnc_outdir_str='mnc_test_',
(PID.TID 0000.0001) > mnc_outdir_date=.TRUE.,
(PID.TID 0000.0001) > monitor_mnc=.FALSE.,
(PID.TID 0000.0001) >#timeave_mnc=.FALSE.,
(PID.TID 0000.0001) >#snapshot_mnc=.FALSE.,
(PID.TID 0000.0001) >#autodiff_mnc=.FALSE.,
(PID.TID 0000.0001) > pickup_write_mnc=.FALSE.,
(PID.TID 0000.0001) > pickup_read_mnc=.FALSE.,
(PID.TID 0000.0001) > &
(PID.TID 0000.0001) ># Note: Some systems use & as the
(PID.TID 0000.0001) ># namelist terminator. Other systems
(PID.TID 0000.0001) ># use a / character (as shown here).
(PID.TID 0000.0001) 
(PID.TID 0000.0001)  MNC_READPARMS: finished reading data.mnc
(PID.TID 0000.0001)  GM_READPARMS: opening data.gmredi
(PID.TID 0000.0001)  OPEN_COPY_DATA_FILE: opening file data.gmredi
(PID.TID 0000.0001) // =======================================================
(PID.TID 0000.0001) // Parameter file "data.gmredi"
(PID.TID 0000.0001) // =======================================================
(PID.TID 0000.0001) ># GM+Redi package parameters:
(PID.TID 0000.0001) >#     GM_Small_Number  :: epsilon used in computing the slope
(PID.TID 0000.0001) >#     GM_slopeSqCutoff :: slope^2 cut-off value
(PID.TID 0000.0001) >
(PID.TID 0000.0001) >#-from MOM :
(PID.TID 0000.0001) ># GM_background_K: 	G & Mc.W  diffusion coefficient
(PID.TID 0000.0001) ># GM_maxSlope    :	max slope of isopycnals
(PID.TID 0000.0001) ># GM_Scrit       :	transition for scaling diffusion coefficient
(PID.TID 0000.0001) ># GM_Sd          :	half width scaling for diffusion coefficient
(PID.TID 0000.0001) ># GM_taper_scheme:	slope clipping or one of the tapering schemes
(PID.TID 0000.0001) ># GM_Kmin_horiz  :	horizontal diffusion minimum value
(PID.TID 0000.0001) >
(PID.TID 0000.0001) >#-Option parameters (needs to "define" options in GMREDI_OPTIONS.h")
(PID.TID 0000.0001) ># GM_isopycK     :	isopycnal diffusion coefficient (default=GM_background_K)
(PID.TID 0000.0001) ># GM_AdvForm     :	turn on GM Advective form       (default=Skew flux form)
(PID.TID 0000.0001) >
(PID.TID 0000.0001) > &GM_PARM01
(PID.TID 0000.0001) >  GM_Small_Number  = 1.D-20,
(PID.TID 0000.0001) >  GM_slopeSqCutoff = 1.D+08,
(PID.TID 0000.0001) >  GM_AdvForm         = .TRUE.,
(PID.TID 0000.0001) >  GM_isopycK         = 1.1D+3,
(PID.TID 0000.0001) >  GM_background_K    = 0.9D+3,
(PID.TID 0000.0001) >  GM_taper_scheme    = 'dm95',
(PID.TID 0000.0001) >  GM_maxSlope        = 1.D-2,
(PID.TID 0000.0001) >  GM_Kmin_horiz      = 50.,
(PID.TID 0000.0001) >  GM_Scrit           = 4.D-3,
(PID.TID 0000.0001) >  GM_Sd              = 1.D-3,
(PID.TID 0000.0001) >#  GM_Visbeck_alpha   = 1.5D-2,
(PID.TID 0000.0001) >  GM_Visbeck_alpha   = 0.D0,
(PID.TID 0000.0001) >  GM_Visbeck_length  = 2.D+5,
(PID.TID 0000.0001) >  GM_Visbeck_depth   = 1.D+3,
(PID.TID 0000.0001) >  GM_Visbeck_maxval_K= 2.5D+3,
(PID.TID 0000.0001) > &
(PID.TID 0000.0001) >
(PID.TID 0000.0001) >
(PID.TID 0000.0001) 
(PID.TID 0000.0001)  GM_READPARMS: finished reading data.gmredi
(PID.TID 0000.0001) OPTIM_READPARMS: opening data.optim
(PID.TID 0000.0001)  OPEN_COPY_DATA_FILE: opening file data.optim
(PID.TID 0000.0001) // =======================================================
(PID.TID 0000.0001) // Parameter file "data.optim"
(PID.TID 0000.0001) // =======================================================
(PID.TID 0000.0001) >#
(PID.TID 0000.0001) ># ********************************
(PID.TID 0000.0001) ># Off-line optimization parameters
(PID.TID 0000.0001) ># ********************************
(PID.TID 0000.0001) > &OPTIM
(PID.TID 0000.0001) > optimcycle=0,
(PID.TID 0000.0001) > &
(PID.TID 0000.0001) 
(PID.TID 0000.0001) OPTIM_READPARMS: finished reading data.optim
(PID.TID 0000.0001) CTRL_READPARMS: opening data.ctrl
(PID.TID 0000.0001)  OPEN_COPY_DATA_FILE: opening file data.ctrl
(PID.TID 0000.0001) // =======================================================
(PID.TID 0000.0001) // Parameter file "data.ctrl"
(PID.TID 0000.0001) // =======================================================
(PID.TID 0000.0001) >#
(PID.TID 0000.0001) >#
(PID.TID 0000.0001) ># *********************
(PID.TID 0000.0001) ># ECCO controlvariables
(PID.TID 0000.0001) ># *********************
(PID.TID 0000.0001) > &CTRL_NML
(PID.TID 0000.0001) > xx_theta_file      = 'xx_theta',
(PID.TID 0000.0001) > xx_salt_file       = 'xx_salt',
(PID.TID 0000.0001) > xx_tr1_file        = 'xx_tr1',
(PID.TID 0000.0001) > xx_hflux_file      = 'xx_hflux',
(PID.TID 0000.0001) > xx_sflux_file      = 'xx_sflux',
(PID.TID 0000.0001) > xx_tauu_file       = 'xx_tauu',
(PID.TID 0000.0001) > xx_tauv_file       = 'xx_tauv',
(PID.TID 0000.0001) > xx_diffkr_file     = 'xx_diffkr',
(PID.TID 0000.0001) > xx_kapgm_file      = 'xx_kapgm',
(PID.TID 0000.0001) > &
(PID.TID 0000.0001) >#
(PID.TID 0000.0001) ># *********************
(PID.TID 0000.0001) ># names for ctrl_pack/unpack
(PID.TID 0000.0001) ># *********************
(PID.TID 0000.0001) > &CTRL_PACKNAMES
(PID.TID 0000.0001) > ctrlname = 'ecco_ctrl',
(PID.TID 0000.0001) > costname = 'ecco_cost',
(PID.TID 0000.0001) > scalname = 'ecco_scal',
(PID.TID 0000.0001) > maskname = 'ecco_mask',
(PID.TID 0000.0001) > metaname = 'ecco_meta',
(PID.TID 0000.0001) > &
(PID.TID 0000.0001) >
(PID.TID 0000.0001) 
(PID.TID 0000.0001) CTRL_READPARMS: finished reading data.ctrl
(PID.TID 0000.0001) COST_READPARMS: opening data.cost
(PID.TID 0000.0001)  OPEN_COPY_DATA_FILE: opening file data.cost
(PID.TID 0000.0001) // =======================================================
(PID.TID 0000.0001) // Parameter file "data.cost"
(PID.TID 0000.0001) // =======================================================
(PID.TID 0000.0001) >#
(PID.TID 0000.0001) >#
(PID.TID 0000.0001) ># ******************
(PID.TID 0000.0001) ># ECCO cost function
(PID.TID 0000.0001) ># ******************
(PID.TID 0000.0001) > &COST_NML
(PID.TID 0000.0001) >#
(PID.TID 0000.0001) > mult_tracer  = 1.,
(PID.TID 0000.0001) > mult_test    = 1.,
(PID.TID 0000.0001) > mult_atl     = 1.,
(PID.TID 0000.0001) > &
(PID.TID 0000.0001) 
(PID.TID 0000.0001) COST_READPARMS: finished reading data.cost
(PID.TID 0000.0001) GRDCHK_READPARMS: opening data.grdchk
(PID.TID 0000.0001)  OPEN_COPY_DATA_FILE: opening file data.grdchk
(PID.TID 0000.0001) // =======================================================
(PID.TID 0000.0001) // Parameter file "data.grdchk"
(PID.TID 0000.0001) // =======================================================
(PID.TID 0000.0001) >
(PID.TID 0000.0001) ># *******************
(PID.TID 0000.0001) ># ECCO gradient check
(PID.TID 0000.0001) ># *******************
(PID.TID 0000.0001) > &GRDCHK_NML
(PID.TID 0000.0001) > grdchk_eps       = 1.d-2,
(PID.TID 0000.0001) > iGloPos          = 76,
(PID.TID 0000.0001) > jGloPos          = 27,
(PID.TID 0000.0001) > kGloPos          = 1,
(PID.TID 0000.0001) >### nbeg             = 1,
(PID.TID 0000.0001) > nstep            = 1,
(PID.TID 0000.0001) > nend             = 3,
(PID.TID 0000.0001) > grdchkvarindex   = 1,
(PID.TID 0000.0001) > &
(PID.TID 0000.0001) 
(PID.TID 0000.0001) GRDCHK_READPARMS: finished reading data.grdchk
(PID.TID 0000.0001) 
(PID.TID 0000.0001) // =======================================================
(PID.TID 0000.0001) // Gradient check configuration  >>> START <<<
(PID.TID 0000.0001) // =======================================================
(PID.TID 0000.0001) 
(PID.TID 0000.0001)   eps:                              0.100E-01
(PID.TID 0000.0001)   First location:                           0
(PID.TID 0000.0001)   Last location:                            3
(PID.TID 0000.0001)   Increment:                                1
(PID.TID 0000.0001) 
(PID.TID 0000.0001) // =======================================================
(PID.TID 0000.0001) // Gradient check configuration  >>> END <<<
(PID.TID 0000.0001) // =======================================================
(PID.TID 0000.0001) 
(PID.TID 0000.0001) SET_PARMS: done
(PID.TID 0000.0001) Enter INI_VERTICAL_GRID: setInterFDr=    T ; setCenterDr=    F
(PID.TID 0000.0001) %MON XC_max                       =   3.5800000000000E+02
(PID.TID 0000.0001) %MON XC_min                       =   2.0000000000000E+00
(PID.TID 0000.0001) %MON XC_mean                      =   1.8000000000000E+02
(PID.TID 0000.0001) %MON XC_sd                        =   1.0391663325314E+02
(PID.TID 0000.0001) %MON XG_max                       =   3.5600000000000E+02
(PID.TID 0000.0001) %MON XG_min                       =   0.0000000000000E+00
(PID.TID 0000.0001) %MON XG_mean                      =   1.7800000000000E+02
(PID.TID 0000.0001) %MON XG_sd                        =   1.0391663325314E+02
(PID.TID 0000.0001) %MON DXC_max                      =   4.4443898815675E+05
(PID.TID 0000.0001) %MON DXC_min                      =   9.2460385861875E+04
(PID.TID 0000.0001) %MON DXC_mean                     =   3.1372497618153E+05
(PID.TID 0000.0001) %MON DXC_sd                       =   1.1216447457560E+05
(PID.TID 0000.0001) %MON DXF_max                      =   4.4443898815675E+05
(PID.TID 0000.0001) %MON DXF_min                      =   9.2460385861875E+04
(PID.TID 0000.0001) %MON DXF_mean                     =   3.1372497618153E+05
(PID.TID 0000.0001) %MON DXF_sd                       =   1.1216447457560E+05
(PID.TID 0000.0001) %MON DXG_max                      =   4.4470989340816E+05
(PID.TID 0000.0001) %MON DXG_min                      =   7.7223062580781E+04
(PID.TID 0000.0001) %MON DXG_mean                     =   3.1353386340260E+05
(PID.TID 0000.0001) %MON DXG_sd                       =   1.1256651772502E+05
(PID.TID 0000.0001) %MON DXV_max                      =   4.4470989340816E+05
(PID.TID 0000.0001) %MON DXV_min                      =   7.7223062580781E+04
(PID.TID 0000.0001) %MON DXV_mean                     =   3.1353386340260E+05
(PID.TID 0000.0001) %MON DXV_sd                       =   1.1256651772502E+05
(PID.TID 0000.0001) %MON YC_max                       =   7.8000000000000E+01
(PID.TID 0000.0001) %MON YC_min                       =  -7.8000000000000E+01
(PID.TID 0000.0001) %MON YC_mean                      =   0.0000000000000E+00
(PID.TID 0000.0001) %MON YC_sd                        =   4.6173585522461E+01
(PID.TID 0000.0001) %MON YG_max                       =   7.6000000000000E+01
(PID.TID 0000.0001) %MON YG_min                       =  -8.0000000000000E+01
(PID.TID 0000.0001) %MON YG_mean                      =  -2.0000000000000E+00
(PID.TID 0000.0001) %MON YG_sd                        =   4.6173585522461E+01
(PID.TID 0000.0001) %MON DYC_max                      =   4.4470989340816E+05
(PID.TID 0000.0001) %MON DYC_min                      =   4.4470989340816E+05
(PID.TID 0000.0001) %MON DYC_mean                     =   4.4470989340814E+05
(PID.TID 0000.0001) %MON DYC_sd                       =   1.9848812371492E-08
(PID.TID 0000.0001) %MON DYF_max                      =   4.4470989340816E+05
(PID.TID 0000.0001) %MON DYF_min                      =   4.4470989340816E+05
(PID.TID 0000.0001) %MON DYF_mean                     =   4.4470989340814E+05
(PID.TID 0000.0001) %MON DYF_sd                       =   1.9848812371492E-08
(PID.TID 0000.0001) %MON DYG_max                      =   4.4470989340816E+05
(PID.TID 0000.0001) %MON DYG_min                      =   4.4470989340816E+05
(PID.TID 0000.0001) %MON DYG_mean                     =   4.4470989340814E+05
(PID.TID 0000.0001) %MON DYG_sd                       =   1.9848812371492E-08
(PID.TID 0000.0001) %MON DYU_max                      =   4.4470989340816E+05
(PID.TID 0000.0001) %MON DYU_min                      =   4.4470989340816E+05
(PID.TID 0000.0001) %MON DYU_mean                     =   4.4470989340814E+05
(PID.TID 0000.0001) %MON DYU_sd                       =   1.9848812371492E-08
(PID.TID 0000.0001) %MON RA_max                       =   1.9760627980089E+11
(PID.TID 0000.0001) %MON RA_min                       =   4.1109698667290E+10
(PID.TID 0000.0001) %MON RA_mean                      =   1.3948826965197E+11
(PID.TID 0000.0001) %MON RA_sd                        =   4.9870522472902E+10
(PID.TID 0000.0001) %MON RAW_max                      =   1.9760627980089E+11
(PID.TID 0000.0001) %MON RAW_min                      =   4.1109698667290E+10
(PID.TID 0000.0001) %MON RAW_mean                     =   1.3948826965197E+11
(PID.TID 0000.0001) %MON RAW_sd                       =   4.9870522472902E+10
(PID.TID 0000.0001) %MON RAS_max                      =   1.9772672958215E+11
(PID.TID 0000.0001) %MON RAS_min                      =   3.4334886267983E+10
(PID.TID 0000.0001) %MON RAS_mean                     =   1.3940329716694E+11
(PID.TID 0000.0001) %MON RAS_sd                       =   5.0049278732354E+10
(PID.TID 0000.0001) %MON RAZ_max                      =   1.9772672958215E+11
(PID.TID 0000.0001) %MON RAZ_min                      =   3.4334886267983E+10
(PID.TID 0000.0001) %MON RAZ_mean                     =   1.3940329716694E+11
(PID.TID 0000.0001) %MON RAZ_sd                       =   5.0049278732354E+10
(PID.TID 0000.0001) %MON AngleCS_max                  =   1.0000000000000E+00
(PID.TID 0000.0001) %MON AngleCS_min                  =   1.0000000000000E+00
(PID.TID 0000.0001) %MON AngleCS_mean                 =   1.0000000000000E+00
(PID.TID 0000.0001) %MON AngleCS_sd                   =   0.0000000000000E+00
(PID.TID 0000.0001) %MON AngleSN_max                  =   0.0000000000000E+00
(PID.TID 0000.0001) %MON AngleSN_min                  =   0.0000000000000E+00
(PID.TID 0000.0001) %MON AngleSN_mean                 =   0.0000000000000E+00
(PID.TID 0000.0001) %MON AngleSN_sd                   =   0.0000000000000E+00
(PID.TID 0000.0001)  MDS_READ_FIELD: opening global file: bathymetry.bin
(PID.TID 0000.0001) // =======================================================
(PID.TID 0000.0001) // Field Model R_low (ini_masks_etc) at iteration          1
(PID.TID 0000.0001) // CMIN =         -5.200000000000000E+03
(PID.TID 0000.0001) // CMAX =         -1.200000000000000E+02
(PID.TID 0000.0001) // CINT =          1.881481481481482E+02
(PID.TID 0000.0001) // SYMBOLS (CMIN->CMAX): -abcdefghijklmnopqrstuvwxyz+
(PID.TID 0000.0001) //                  0.0: .
(PID.TID 0000.0001) // RANGE I (Lo:Hi:Step):(  -2:  93:   1)
(PID.TID 0000.0001) // RANGE J (Lo:Hi:Step):(  43:  -2:  -1)
(PID.TID 0000.0001) // RANGE K (Lo:Hi:Step):(   1:   1:   1)
(PID.TID 0000.0001) // =======================================================
(PID.TID 0000.0001) K =   1
(PID.TID 0000.0001) //                I=7       I=17      I=27      I=37      I=47      I=57      I=67      I=77      I=87
(PID.TID 0000.0001) // |--J--|210123456|890123456|890123456|890123456|890123456|890123456|890123456|890123456|890123456|890123
(PID.TID 0000.0001) //     43 ................................................................................................
(PID.TID 0000.0001) //     42 .............................................zyxxmgfeeefefgimnpwwwy..+zyy.....yyyyoiiihhz+......
(PID.TID 0000.0001) //     41 ................................................................................................
(PID.TID 0000.0001) //     40 +qlloqz+.++++zzz++++++..................................................................+++qlloq
(PID.TID 0000.0001) //     39 uslloorzzzzzzzzz+...++.....................................................yxxz........+zvuslloo
(PID.TID 0000.0001) //     38 smqpporzzzzzz+++...........................................................zxxy+......zyyvsmqppo
(PID.TID 0000.0001) //     37 smmmuz..................................................................++...zy+...yttyy.+smmmuz
(PID.TID 0000.0001) //     36 yutt+.........................................mm++....................+++++++znmm.yoowssvuyutt+.
(PID.TID 0000.0001) //     35 w++++.................................+zzz..rrmmkk+...+gghn...........+++....+nmiijlsoopuww++++.
(PID.TID 0000.0001) //     34 +.....................................+vvy.ggqyxv+y.ccdffhim..................+nihhikkihhm+.....
(PID.TID 0000.0001) //     33 w+.....................................uuz---h------aaabdefin+.................zqvddflifffw+....
(PID.TID 0000.0001) //     32 m+.....................................+t----h---------acdfgnn................+++gdffkofffm+....
(PID.TID 0000.0001) //     31 m......................................-----ad--------abddegil..............qbaafccdhqqgddm.....
(PID.TID 0000.0001) //     30 i.....................................f----b--b------------abd............zfbb--fbcdosjfddi.....
(PID.TID 0000.0001) //     29 i...................................tu----e---fjg----------abdf...........eaac--abfmijaadgi.....
(PID.TID 0000.0001) //     28 z.................................+xfl-------------------bdedefi.........qbaa---aemfbbaaejz.....
(PID.TID 0000.0001) //     27 .................xx..............+wfgfpf--------eallc---bbbccefgi...+++x.qb-----akfa---ah.......
(PID.TID 0000.0001) //     26 .................xnn...........+vd---dna------a--aicfna---aabdfghku.++xssuy-----bgca---ci.......
(PID.TID 0000.0001) //     25 .................iiik...oo+...+ivd---doaa-bc--ilglf--aa---aabcghhkll...ssum+xaaacjbaabdjk.......
(PID.TID 0000.0001) //     24 ...............xnheeft.kkk+...uii.aagdm----aa-----a-------bbbcdefjljjju.zummwwbbchba--abi.......
(PID.TID 0000.0001) //     23 ...............xgheefp.iikw...uuw..fihi----fed-----eaaa--bbbbcdfflkjiiiq....zykccefa--abd.......
(PID.TID 0000.0001) //     22 quss...........bbelffslffkk...zz.wqkeeqoheccdfa-----egabaabcdddegghliiiqq......xeeehheehccquss..
(PID.TID 0000.0001) //     21 cbbeir........nbbcdjhqdddiiz.....wqfeelgghmedea-----bibbcddddddefghklnqoo........ieeflhgcccbbeir
(PID.TID 0000.0001) //     20 cbbder.......ldcccdgkccccidd......z.vkkktqqhegg----aaacddddddddefghkiiijl.........nhfa--gfcbbder
(PID.TID 0000.0001) //     19 hcdaaf.......kddosggpaaaibbccx...+z+.....r+nlec---agaaabcddccddefikfgffff...........d---cjhcdaaf
(PID.TID 0000.0001) //     18 hd---d.......kglggvliaaaibbcaaeaiv++...qqzolhecccfdgkaabcdfccdeeikgfgffdd+..........d---djhd---d
(PID.TID 0000.0001) //     17 hc---c.......l.feewlfaaaoaa----aiv.....qqnllslmlofcdbaacceffffhhligfigeddj.........hd---ckhc---c
(PID.TID 0000.0001) //     16 gba--c......tn.ddgnlfdaaqa-----lv.......vnllvllnwv--accivomfffhilhgfffeddjf........re--aeigba--c
(PID.TID 0000.0001) //     15 fb--dpz....+ll.ccdfhmdddlc----av.........otsxoomv---abccddfihgijkhgfffeejfff......+fd---ckfb--dp
(PID.TID 0000.0001) //     14 fc--mcl....weeqbaafilkfend--eagy.........hhstofft----aacdheefijkmjhhjijiffff.....zlfdaaadlfc--mc
(PID.TID 0000.0001) //     13 hcclbbg....nccobaaiddgkffqrqeaal.........eeutqfft------aaceeffhijlkjhhigfffq....+jgfodccflhcclbb
(PID.TID 0000.0001) //     12 hhgaaacw+iiicclemhdddfliigfdcaabfaaaz....ccsurqpc--------abcifffikiiihhggff.....kbbbdfffglhhgaaa
(PID.TID 0000.0001) //     11 kgcaaacbbifccennhbbdefnihgfdccaaaa----..dcccnt.ncab-------aabcdfilhggjiggff....l---abcefjlkgcaaa
(PID.TID 0000.0001) //     10 kfcaaccbdaacfrllfbbdegkmmljhfdddba----d.dcccfx.nyrebaba----abcdgilhfeegijgi..+w--aa-abcfilkfcaac
(PID.TID 0000.0001) //      9 lffcdcccaaaoqsolfdeehikihhlllgfedcccccdmdcccf.vyfaaaaaaaa--abdehmjhfeeefglv.++w-----abcdfklffcdc
(PID.TID 0000.0001) //      8 liffjklcaafddffeeccvznkfffhhhlkjifgjkkfeeddfsyvcaaaaaaccdcccdfgjligedbbceg+.++xffn--cfddefliffjk
(PID.TID 0000.0001) //      7 hmqnnbbkkf--bmbaabbgtykfddeffeeddccdfhlffeelfbaaaaaacddeghgjgjlligeddaaabedfiiiiiisvkfkecchmqnnb
(PID.TID 0000.0001) //      6 cca-------------aabcelttdddedddddccccdfkkiiffbaaaabcdgimmkmefecaaabbbaaabbdfiiiiispmmregifcca---
(PID.TID 0000.0001) //      5 --------a-------aaccehhhiddeddddddcccdfiikomodddefffmlmigedccaaaaaaaababbbdfiijsqgeccccbaa------
(PID.TID 0000.0001) //      4 --ahebaabbbbbeihffgijiiiijpywnnpokkomkiiijmmmolkommmgffeeedccaaaaaabbcccefhmz..yjgeccccbaa--aheb
(PID.TID 0000.0001) //      3 gffhhrpjiiwyy............................yxotmjjjjgfeeeeeeddeffffheddeghjkyy..yqjgeddccdbbgffhhr
(PID.TID 0000.0001) //      2 .............................................zyxxmgfeeefefgimnpwwwy..+zyy.....yyyyoiiihhz+......
(PID.TID 0000.0001) //      1 ................................................................................................
(PID.TID 0000.0001) //      0 +qlloqz+.++++zzz++++++..................................................................+++qlloq
(PID.TID 0000.0001) //     -1 uslloorzzzzzzzzz+...++.....................................................yxxz........+zvuslloo
(PID.TID 0000.0001) //     -2 ................................................................................................
(PID.TID 0000.0001) // =======================================================
(PID.TID 0000.0001) // END OF FIELD                                          =
(PID.TID 0000.0001) // =======================================================
(PID.TID 0000.0001) 
(PID.TID 0000.0001) // =======================================================
(PID.TID 0000.0001) // Field Model Ro_surf (ini_masks_etc) at iteration          1
(PID.TID 0000.0001) // CMIN =          1.000000000000000E+32
(PID.TID 0000.0001) // CMAX =         -1.000000000000000E+32
(PID.TID 0000.0001) // CINT =          0.000000000000000E+00
(PID.TID 0000.0001) // SYMBOLS (CMIN->CMAX): -abcdefghijklmnopqrstuvwxyz+
(PID.TID 0000.0001) //                  0.0: .
(PID.TID 0000.0001) // RANGE I (Lo:Hi:Step):(  -2:  93:   1)
(PID.TID 0000.0001) // RANGE J (Lo:Hi:Step):(  43:  -2:  -1)
(PID.TID 0000.0001) // RANGE K (Lo:Hi:Step):(   1:   1:   1)
(PID.TID 0000.0001) // =======================================================
(PID.TID 0000.0001) // =======================================================
(PID.TID 0000.0001) // END OF FIELD                                          =
(PID.TID 0000.0001) // =======================================================
(PID.TID 0000.0001) 
(PID.TID 0000.0001) // =======================================================
(PID.TID 0000.0001) // Field hFacC at iteration          1
(PID.TID 0000.0001) // CMIN =          1.000000000000000E+00
(PID.TID 0000.0001) // CMAX =          1.000000000000000E+00
(PID.TID 0000.0001) // CINT =          0.000000000000000E+00
(PID.TID 0000.0001) // SYMBOLS (CMIN->CMAX): -abcdefghijklmnopqrstuvwxyz+
(PID.TID 0000.0001) //                  0.0: .
(PID.TID 0000.0001) // RANGE I (Lo:Hi:Step):(  -2:  93:   1)
(PID.TID 0000.0001) // RANGE J (Lo:Hi:Step):(  43:  -2:  -1)
(PID.TID 0000.0001) // RANGE K (Lo:Hi:Step):(   1:   1:   1)
(PID.TID 0000.0001) // =======================================================
(PID.TID 0000.0001) // =======================================================
(PID.TID 0000.0001) // END OF FIELD                                          =
(PID.TID 0000.0001) // =======================================================
(PID.TID 0000.0001) 
(PID.TID 0000.0001) // =======================================================
(PID.TID 0000.0001) // Field hFacW at iteration          1
(PID.TID 0000.0001) // CMIN =          1.000000000000000E+00
(PID.TID 0000.0001) // CMAX =          1.000000000000000E+00
(PID.TID 0000.0001) // CINT =          0.000000000000000E+00
(PID.TID 0000.0001) // SYMBOLS (CMIN->CMAX): -abcdefghijklmnopqrstuvwxyz+
(PID.TID 0000.0001) //                  0.0: .
(PID.TID 0000.0001) // RANGE I (Lo:Hi:Step):(  -2:  93:   1)
(PID.TID 0000.0001) // RANGE J (Lo:Hi:Step):(  43:  -2:  -1)
(PID.TID 0000.0001) // RANGE K (Lo:Hi:Step):(   1:   1:   1)
(PID.TID 0000.0001) // =======================================================
(PID.TID 0000.0001) // =======================================================
(PID.TID 0000.0001) // END OF FIELD                                          =
(PID.TID 0000.0001) // =======================================================
(PID.TID 0000.0001) 
(PID.TID 0000.0001) // =======================================================
(PID.TID 0000.0001) // Field hFacS at iteration          1
(PID.TID 0000.0001) // CMIN =          1.000000000000000E+00
(PID.TID 0000.0001) // CMAX =          1.000000000000000E+00
(PID.TID 0000.0001) // CINT =          0.000000000000000E+00
(PID.TID 0000.0001) // SYMBOLS (CMIN->CMAX): -abcdefghijklmnopqrstuvwxyz+
(PID.TID 0000.0001) //                  0.0: .
(PID.TID 0000.0001) // RANGE I (Lo:Hi:Step):(  -2:  93:   1)
(PID.TID 0000.0001) // RANGE J (Lo:Hi:Step):(  43:  -2:  -1)
(PID.TID 0000.0001) // RANGE K (Lo:Hi:Step):(   1:   1:   1)
(PID.TID 0000.0001) // =======================================================
(PID.TID 0000.0001) // =======================================================
(PID.TID 0000.0001) // END OF FIELD                                          =
(PID.TID 0000.0001) // =======================================================
(PID.TID 0000.0001) 
(PID.TID 0000.0001) 
(PID.TID 0000.0001) // ===================================
(PID.TID 0000.0001) // GAD parameters :
(PID.TID 0000.0001) // ===================================
(PID.TID 0000.0001) tempAdvScheme =   /* Temp. Horiz.Advection scheme selector */
(PID.TID 0000.0001)                      33
(PID.TID 0000.0001)     ;
(PID.TID 0000.0001) tempVertAdvScheme =   /* Temp. Vert. Advection scheme selector */
(PID.TID 0000.0001)                      33
(PID.TID 0000.0001)     ;
(PID.TID 0000.0001) tempMultiDimAdvec =   /* use Muti-Dim Advec method for Temp */
(PID.TID 0000.0001)                   T
(PID.TID 0000.0001)     ;
(PID.TID 0000.0001) tempSOM_Advection = /* use 2nd Order Moment Advection for Temp */
(PID.TID 0000.0001)                   F
(PID.TID 0000.0001)     ;
(PID.TID 0000.0001) AdamsBashforthGt = /* apply Adams-Bashforth extrapolation on Gt */
(PID.TID 0000.0001)                   F
(PID.TID 0000.0001)     ;
(PID.TID 0000.0001) AdamsBashforth_T = /* apply Adams-Bashforth extrapolation on Temp */
(PID.TID 0000.0001)                   F
(PID.TID 0000.0001)     ;
(PID.TID 0000.0001) saltAdvScheme =   /* Salt. Horiz.advection scheme selector */
(PID.TID 0000.0001)                      33
(PID.TID 0000.0001)     ;
(PID.TID 0000.0001) saltVertAdvScheme =   /* Salt. Vert. Advection scheme selector */
(PID.TID 0000.0001)                      33
(PID.TID 0000.0001)     ;
(PID.TID 0000.0001) saltMultiDimAdvec =   /* use Muti-Dim Advec method for Salt */
(PID.TID 0000.0001)                   T
(PID.TID 0000.0001)     ;
(PID.TID 0000.0001) saltSOM_Advection = /* use 2nd Order Moment Advection for Salt */
(PID.TID 0000.0001)                   F
(PID.TID 0000.0001)     ;
(PID.TID 0000.0001) AdamsBashforthGs = /* apply Adams-Bashforth extrapolation on Gs */
(PID.TID 0000.0001)                   F
(PID.TID 0000.0001)     ;
(PID.TID 0000.0001) AdamsBashforth_S = /* apply Adams-Bashforth extrapolation on Salt */
(PID.TID 0000.0001)                   F
(PID.TID 0000.0001)     ;
(PID.TID 0000.0001) // ===================================
(PID.TID 0000.0001) ctrl-wet 1:    nvarlength =       126221
(PID.TID 0000.0001) ctrl-wet 2: surface wet C =         2315
(PID.TID 0000.0001) ctrl-wet 3: surface wet W =         2206
(PID.TID 0000.0001) ctrl-wet 4: surface wet S =         2149
(PID.TID 0000.0001) ctrl-wet 4a:surface wet V =            0
(PID.TID 0000.0001) ctrl-wet 5: 3D wet points =        29309
(PID.TID 0000.0001) ctrl-wet 6: no recs for i =     1           1
(PID.TID 0000.0001) ctrl-wet 6: no recs for i =     2           1
(PID.TID 0000.0001) ctrl-wet 6: no recs for i =     3           1
(PID.TID 0000.0001) ctrl-wet 6: no recs for i =     4           1
(PID.TID 0000.0001) ctrl-wet 6: no recs for i =     5           1
(PID.TID 0000.0001) ctrl-wet 6: no recs for i =     6           1
(PID.TID 0000.0001) ctrl-wet 6: no recs for i =     7           0
(PID.TID 0000.0001) ctrl-wet 6: no recs for i =     8           0
(PID.TID 0000.0001) ctrl-wet 6: no recs for i =     9           0
(PID.TID 0000.0001) ctrl-wet 6: no recs for i =    10           0
(PID.TID 0000.0001) ctrl-wet 6: no recs for i =    11           0
(PID.TID 0000.0001) ctrl-wet 6: no recs for i =    12           0
(PID.TID 0000.0001) ctrl-wet 6: no recs for i =    13           0
(PID.TID 0000.0001) ctrl-wet 6: no recs for i =    14           0
(PID.TID 0000.0001) ctrl-wet 6: no recs for i =    15           1
(PID.TID 0000.0001) ctrl-wet 6: no recs for i =    16           1
(PID.TID 0000.0001) ctrl-wet 6: no recs for i =    17           0
(PID.TID 0000.0001) ctrl-wet 6: no recs for i =    18           0
(PID.TID 0000.0001) ctrl-wet 6: no recs for i =    19           0
(PID.TID 0000.0001) ctrl-wet 6: no recs for i =    20           0
(PID.TID 0000.0001) ctrl-wet 6: no recs for i =    21           0
(PID.TID 0000.0001) ctrl-wet 6: no recs for i =    22           0
(PID.TID 0000.0001) ctrl-wet 6: no recs for i =    23           0
(PID.TID 0000.0001) ctrl-wet 6: no recs for i =    24           0
(PID.TID 0000.0001) ctrl-wet 6: no recs for i =    25           0
(PID.TID 0000.0001) ctrl-wet 6: no recs for i =    26           0
(PID.TID 0000.0001) ctrl-wet 6: no recs for i =    27           0
(PID.TID 0000.0001) ctrl-wet 6: no recs for i =    28           0
(PID.TID 0000.0001) ctrl-wet 6: no recs for i =    29           0
(PID.TID 0000.0001) ctrl-wet 6: no recs for i =    30           0
(PID.TID 0000.0001) ctrl-wet 6: no recs for i =    31           0
(PID.TID 0000.0001) ctrl-wet 6: no recs for i =    32           0
(PID.TID 0000.0001) ctrl-wet 6: no recs for i =    33           0
(PID.TID 0000.0001) ctrl-wet 6: no recs for i =    34           0
(PID.TID 0000.0001) ctrl-wet 6: no recs for i =    35           0
(PID.TID 0000.0001) ctrl-wet 6: no recs for i =    36           0
(PID.TID 0000.0001) ctrl-wet 6: no recs for i =    37           0
(PID.TID 0000.0001) ctrl-wet 6: no recs for i =    38           0
(PID.TID 0000.0001) ctrl-wet 6: no recs for i =    39           0
(PID.TID 0000.0001) ctrl-wet 6: no recs for i =    40           0
(PID.TID 0000.0001) ctrl-wet 6: no recs for i =    41           0
(PID.TID 0000.0001) ctrl-wet 6: no recs for i =    42           0
(PID.TID 0000.0001) ctrl-wet 6: no recs for i =    43           0
(PID.TID 0000.0001) ctrl-wet 6: no recs for i =    44           0
(PID.TID 0000.0001) ctrl-wet 6: no recs for i =    45           0
(PID.TID 0000.0001) ctrl-wet 6: no recs for i =    46           0
(PID.TID 0000.0001) ctrl-wet 6: no recs for i =    47           0
(PID.TID 0000.0001) ctrl-wet 6: no recs for i =    48           0
(PID.TID 0000.0001) ctrl-wet 6: no recs for i =    49           0
(PID.TID 0000.0001) ctrl-wet 6: no recs for i =    50           0
(PID.TID 0000.0001) ctrl-wet 6: no recs for i =    51           0
(PID.TID 0000.0001) ctrl-wet 6: no recs for i =    52           0
(PID.TID 0000.0001) ctrl-wet 6: no recs for i =    53           0
(PID.TID 0000.0001) ctrl-wet 6: no recs for i =    54           0
(PID.TID 0000.0001) ctrl-wet 6: no recs for i =    55           0
(PID.TID 0000.0001) ctrl-wet 6: no recs for i =    56           0
(PID.TID 0000.0001) ctrl-wet 6: no recs for i =    57           0
(PID.TID 0000.0001) ctrl-wet 6: no recs for i =    58           0
(PID.TID 0000.0001) ctrl-wet 6: no recs for i =    59           0
(PID.TID 0000.0001) ctrl-wet 6: no recs for i =    60           0
(PID.TID 0000.0001) ctrl-wet 7: flux         67603
(PID.TID 0000.0001) ctrl-wet 8: atmos        58618
(PID.TID 0000.0001) ctrl-wet -------------------------------------------------
(PID.TID 0000.0001) ctrl-wet 13: global nvarlength for Nr =   15      126221
(PID.TID 0000.0001) ctrl-wet -------------------------------------------------
(PID.TID 0000.0001) ctrl-wet 14: global nWet C/S/W/V k=    1        2315        2149        2206           0
(PID.TID 0000.0001) ctrl-wet 14: global nWet C/S/W/V k=    2        2315        2149        2206           0
(PID.TID 0000.0001) ctrl-wet 14: global nWet C/S/W/V k=    3        2254        2102        2146           0
(PID.TID 0000.0001) ctrl-wet 14: global nWet C/S/W/V k=    4        2215        2058        2104           0
(PID.TID 0000.0001) ctrl-wet 14: global nWet C/S/W/V k=    5        2178        2027        2070           0
(PID.TID 0000.0001) ctrl-wet 14: global nWet C/S/W/V k=    6        2142        1987        2029           0
(PID.TID 0000.0001) ctrl-wet 14: global nWet C/S/W/V k=    7        2114        1959        2004           0
(PID.TID 0000.0001) ctrl-wet 14: global nWet C/S/W/V k=    8        2076        1918        1959           0
(PID.TID 0000.0001) ctrl-wet 14: global nWet C/S/W/V k=    9        2048        1887        1925           0
(PID.TID 0000.0001) ctrl-wet 14: global nWet C/S/W/V k=   10        1999        1831        1869           0
(PID.TID 0000.0001) ctrl-wet 14: global nWet C/S/W/V k=   11        1948        1771        1808           0
(PID.TID 0000.0001) ctrl-wet 14: global nWet C/S/W/V k=   12        1850        1653        1705           0
(PID.TID 0000.0001) ctrl-wet 14: global nWet C/S/W/V k=   13        1655        1404        1458           0
(PID.TID 0000.0001) ctrl-wet 14: global nWet C/S/W/V k=   14        1372        1118        1164           0
(PID.TID 0000.0001) ctrl-wet 14: global nWet C/S/W/V k=   15         828         623         671           0
(PID.TID 0000.0001) ctrl-wet -------------------------------------------------
(PID.TID 0000.0001) ctrl-wet -------------------------------------------------
(PID.TID 0000.0001) ctrl-wet -------------------------------------------------
(PID.TID 0000.0001) ctrl_init: no. of control variables:            8
(PID.TID 0000.0001) ctrl_init: control vector length:          126221
(PID.TID 0000.0001) %MON fCori_max                    =   1.4226580169407E-04
(PID.TID 0000.0001) %MON fCori_min                    =  -1.4226580169407E-04
(PID.TID 0000.0001) %MON fCori_mean                   =   7.5291817533716E-23
(PID.TID 0000.0001) %MON fCori_sd                     =   9.6335367303778E-05
(PID.TID 0000.0001) %MON fCoriG_max                   =   1.4112379284621E-04
(PID.TID 0000.0001) %MON fCoriG_min                   =  -1.4323448157692E-04
(PID.TID 0000.0001) %MON fCoriG_mean                  =  -3.5808620394229E-06
(PID.TID 0000.0001) %MON fCoriG_sd                    =   9.6285194120965E-05
(PID.TID 0000.0001) %MON fCoriCos_max                 =   1.4535550371427E-04
(PID.TID 0000.0001) %MON fCoriCos_min                 =   3.0239529651320E-05
(PID.TID 0000.0001) %MON fCoriCos_mean                =   1.0260497651149E-04
(PID.TID 0000.0001) %MON fCoriCos_sd                  =   3.6683828681187E-05
(PID.TID 0000.0001) INI_CG2D: CG2D normalisation factor =  6.5682677425711703E-05
(PID.TID 0000.0001) 
(PID.TID 0000.0001) // =======================================================
(PID.TID 0000.0001) // Model configuration
(PID.TID 0000.0001) // =======================================================
(PID.TID 0000.0001) //
(PID.TID 0000.0001) // "Physical" paramters ( PARM01 in namelist )
(PID.TID 0000.0001) //
(PID.TID 0000.0001) buoyancyRelation = /* Type of relation to get Buoyancy */
(PID.TID 0000.0001)               'OCEANIC'
(PID.TID 0000.0001)     ;
(PID.TID 0000.0001) fluidIsAir  =  /* fluid major constituent is Air */
(PID.TID 0000.0001)                   F
(PID.TID 0000.0001)     ;
(PID.TID 0000.0001) fluidIsWater=  /* fluid major constituent is Water */
(PID.TID 0000.0001)                   T
(PID.TID 0000.0001)     ;
(PID.TID 0000.0001) usingPCoords =  /* use p (or p*) vertical coordinate */
(PID.TID 0000.0001)                   F
(PID.TID 0000.0001)     ;
(PID.TID 0000.0001) usingZCoords =  /* use z (or z*) vertical coordinate */
(PID.TID 0000.0001)                   T
(PID.TID 0000.0001)     ;
(PID.TID 0000.0001) tRef =   /* Reference temperature profile ( oC or K ) */
(PID.TID 0000.0001)    15 @  2.000000000000000E+01              /* K =  1: 15 */
(PID.TID 0000.0001)     ;
(PID.TID 0000.0001) sRef =   /* Reference salinity profile ( psu ) */
(PID.TID 0000.0001)    15 @  3.500000000000000E+01              /* K =  1: 15 */
(PID.TID 0000.0001)     ;
(PID.TID 0000.0001) viscAh =   /* Lateral eddy viscosity ( m^2/s ) */
(PID.TID 0000.0001)                 0.000000000000000E+00
(PID.TID 0000.0001)     ;
(PID.TID 0000.0001) viscAhMax =   /* Maximum lateral eddy viscosity ( m^2/s ) */
(PID.TID 0000.0001)                 1.000000000000000E+21
(PID.TID 0000.0001)     ;
(PID.TID 0000.0001) viscAhGrid =   /* Grid dependent lateral eddy viscosity ( non-dim. ) */
(PID.TID 0000.0001)                 0.000000000000000E+00
(PID.TID 0000.0001)     ;
(PID.TID 0000.0001) useFullLeith =   /* Use Full Form of Leith Viscosity on/off flag*/
(PID.TID 0000.0001)                   F
(PID.TID 0000.0001)     ;
(PID.TID 0000.0001) useStrainTensionVisc =   /* Use StrainTension Form of Viscous Operator on/off flag*/
(PID.TID 0000.0001)                   F
(PID.TID 0000.0001)     ;
(PID.TID 0000.0001) useAreaViscLength =   /* Use area for visc length instead of geom. mean*/
(PID.TID 0000.0001)                   T
(PID.TID 0000.0001)     ;
(PID.TID 0000.0001) viscC2leith = /* Leith harmonic visc. factor (on grad(vort),non-dim.) */
(PID.TID 0000.0001)                 0.000000000000000E+00
(PID.TID 0000.0001)     ;
(PID.TID 0000.0001) viscC2leithD = /* Leith harmonic viscosity factor (on grad(div),non-dim.) */
(PID.TID 0000.0001)                 0.000000000000000E+00
(PID.TID 0000.0001)     ;
(PID.TID 0000.0001) viscC2smag =   /* Smagorinsky harmonic viscosity factor (non-dim.) */
(PID.TID 0000.0001)                 0.000000000000000E+00
(PID.TID 0000.0001)     ;
(PID.TID 0000.0001) viscA4 =   /* Lateral biharmonic viscosity ( m^4/s ) */
(PID.TID 0000.0001)                 0.000000000000000E+00
(PID.TID 0000.0001)     ;
(PID.TID 0000.0001) viscA4Max =   /* Maximum biharmonic viscosity ( m^2/s ) */
(PID.TID 0000.0001)                 1.000000000000000E+21
(PID.TID 0000.0001)     ;
(PID.TID 0000.0001) viscA4Grid =   /* Grid dependent biharmonic viscosity ( non-dim. ) */
(PID.TID 0000.0001)                 0.000000000000000E+00
(PID.TID 0000.0001)     ;
(PID.TID 0000.0001) viscC4leith = /* Leith biharm viscosity factor (on grad(vort), non-dim.) */
(PID.TID 0000.0001)                 1.500000000000000E+00
(PID.TID 0000.0001)     ;
(PID.TID 0000.0001) viscC4leithD = /* Leith biharm viscosity factor (on grad(div), non-dim.) */
(PID.TID 0000.0001)                 1.500000000000000E+00
(PID.TID 0000.0001)     ;
(PID.TID 0000.0001) viscC4Smag = /* Smagorinsky biharm viscosity factor (non-dim) */
(PID.TID 0000.0001)                 0.000000000000000E+00
(PID.TID 0000.0001)     ;
(PID.TID 0000.0001) no_slip_sides =  /* Viscous BCs: No-slip sides */
(PID.TID 0000.0001)                   T
(PID.TID 0000.0001)     ;
(PID.TID 0000.0001) sideDragFactor = /* side-drag scaling factor (non-dim) */
(PID.TID 0000.0001)                 2.000000000000000E+00
(PID.TID 0000.0001)     ;
(PID.TID 0000.0001) viscAr =   /* Vertical eddy viscosity ( m^2/s ) */
(PID.TID 0000.0001)                 1.000000000000000E-03
(PID.TID 0000.0001)     ;
(PID.TID 0000.0001) no_slip_bottom =  /* Viscous BCs: No-slip bottom */
(PID.TID 0000.0001)                   T
(PID.TID 0000.0001)     ;
(PID.TID 0000.0001) bottomDragLinear = /* linear bottom-drag coefficient ( m/s ) */
(PID.TID 0000.0001)                 0.000000000000000E+00
(PID.TID 0000.0001)     ;
(PID.TID 0000.0001) bottomDragQuadratic = /* quadratic bottom-drag coeff. ( m/m ) */
(PID.TID 0000.0001)                 2.100000000000000E-03
(PID.TID 0000.0001)     ;
(PID.TID 0000.0001) diffKhT =   /* Laplacian diffusion of heat laterally ( m^2/s ) */
(PID.TID 0000.0001)                 0.000000000000000E+00
(PID.TID 0000.0001)     ;
(PID.TID 0000.0001) diffK4T =   /* Biharmonic diffusion of heat laterally ( m^4/s ) */
(PID.TID 0000.0001)                 0.000000000000000E+00
(PID.TID 0000.0001)     ;
(PID.TID 0000.0001) diffKhS =   /* Laplacian diffusion of salt laterally ( m^2/s ) */
(PID.TID 0000.0001)                 0.000000000000000E+00
(PID.TID 0000.0001)     ;
(PID.TID 0000.0001) diffK4S =   /* Biharmonic diffusion of salt laterally ( m^4/s ) */
(PID.TID 0000.0001)                 0.000000000000000E+00
(PID.TID 0000.0001)     ;
(PID.TID 0000.0001) diffKrNrT = /* vertical profile of vertical diffusion of Temp ( m^2/s )*/
(PID.TID 0000.0001)    15 @  3.000000000000000E-05              /* K =  1: 15 */
(PID.TID 0000.0001)     ;
(PID.TID 0000.0001) diffKrNrS = /* vertical profile of vertical diffusion of Salt ( m^2/s )*/
(PID.TID 0000.0001)    15 @  3.000000000000000E-05              /* K =  1: 15 */
(PID.TID 0000.0001)     ;
(PID.TID 0000.0001) diffKrBL79surf = /* Surface diffusion for Bryan and Lewis 79 ( m^2/s ) */
(PID.TID 0000.0001)                 0.000000000000000E+00
(PID.TID 0000.0001)     ;
(PID.TID 0000.0001) diffKrBL79deep = /* Deep diffusion for Bryan and Lewis 1979 ( m^2/s ) */
(PID.TID 0000.0001)                 0.000000000000000E+00
(PID.TID 0000.0001)     ;
(PID.TID 0000.0001) diffKrBL79scl = /* Depth scale for Bryan and Lewis 1979 ( m ) */
(PID.TID 0000.0001)                 2.000000000000000E+02
(PID.TID 0000.0001)     ;
(PID.TID 0000.0001) diffKrBL79Ho = /* Turning depth for Bryan and Lewis 1979 ( m ) */
(PID.TID 0000.0001)                -2.000000000000000E+03
(PID.TID 0000.0001)     ;
(PID.TID 0000.0001) ivdc_kappa = /* Implicit Vertical Diffusivity for Convection ( m^2/s ) */
(PID.TID 0000.0001)                 1.000000000000000E+02
(PID.TID 0000.0001)     ;
(PID.TID 0000.0001) hMixCriteria=  /* Criteria for mixed-layer diagnostic */
(PID.TID 0000.0001)                -8.000000000000000E-01
(PID.TID 0000.0001)     ;
(PID.TID 0000.0001) eosType =  /* Type of Equation of State */
(PID.TID 0000.0001)               'JMD95Z'
(PID.TID 0000.0001)     ;
(PID.TID 0000.0001) tAlpha =   /* Linear EOS thermal expansion coefficient ( 1/oC ) */
(PID.TID 0000.0001)                 1.234567000000000E+05
(PID.TID 0000.0001)     ;
(PID.TID 0000.0001) sBeta =   /* Linear EOS haline contraction coefficient ( 1/psu ) */
(PID.TID 0000.0001)                 1.234567000000000E+05
(PID.TID 0000.0001)     ;
(PID.TID 0000.0001) rhonil =   /* Reference density ( kg/m^3 ) */
(PID.TID 0000.0001)                 1.035000000000000E+03
(PID.TID 0000.0001)     ;
(PID.TID 0000.0001) rhoConst =   /* Reference density ( kg/m^3 ) */
(PID.TID 0000.0001)                 1.035000000000000E+03
(PID.TID 0000.0001)     ;
(PID.TID 0000.0001) rhoFacC = /* normalized Reference density @ cell-Center (-) */
(PID.TID 0000.0001)    15 @  1.000000000000000E+00              /* K =  1: 15 */
(PID.TID 0000.0001)     ;
(PID.TID 0000.0001) rhoFacF = /* normalized Reference density @ W-Interface (-) */
(PID.TID 0000.0001)    16 @  1.000000000000000E+00              /* K =  1: 16 */
(PID.TID 0000.0001)     ;
(PID.TID 0000.0001) rhoConstFresh =   /* Reference density ( kg/m^3 ) */
(PID.TID 0000.0001)                 1.035000000000000E+03
(PID.TID 0000.0001)     ;
(PID.TID 0000.0001) gravity =   /* Gravitational acceleration ( m/s^2 ) */
(PID.TID 0000.0001)                 9.810000000000000E+00
(PID.TID 0000.0001)     ;
(PID.TID 0000.0001) gBaro =   /* Barotropic gravity ( m/s^2 ) */
(PID.TID 0000.0001)                 9.810000000000000E+00
(PID.TID 0000.0001)     ;
(PID.TID 0000.0001) rotationPeriod =   /* Rotation Period ( s ) */
(PID.TID 0000.0001)                 8.640000000000000E+04
(PID.TID 0000.0001)     ;
(PID.TID 0000.0001) omega =   /* Angular velocity ( rad/s ) */
(PID.TID 0000.0001)                 7.272205216643040E-05
(PID.TID 0000.0001)     ;
(PID.TID 0000.0001) f0 =   /* Reference coriolis parameter ( 1/s ) */
(PID.TID 0000.0001)                 1.000000000000000E-04
(PID.TID 0000.0001)     ;
(PID.TID 0000.0001) beta =   /* Beta ( 1/(m.s) ) */
(PID.TID 0000.0001)                 9.999999999999999E-12
(PID.TID 0000.0001)     ;
(PID.TID 0000.0001) freeSurfFac =   /* Implicit free surface factor */
(PID.TID 0000.0001)                 1.000000000000000E+00
(PID.TID 0000.0001)     ;
(PID.TID 0000.0001) implicitFreeSurface =   /* Implicit free surface on/off flag */
(PID.TID 0000.0001)                   T
(PID.TID 0000.0001)     ;
(PID.TID 0000.0001) rigidLid =   /* Rigid lid on/off flag */
(PID.TID 0000.0001)                   F
(PID.TID 0000.0001)     ;
(PID.TID 0000.0001) implicSurfPress =   /* Surface Pressure implicit factor (0-1)*/
(PID.TID 0000.0001)                 1.000000000000000E+00
(PID.TID 0000.0001)     ;
(PID.TID 0000.0001) implicDiv2Dflow =   /* Barot. Flow Div. implicit factor (0-1)*/
(PID.TID 0000.0001)                 1.000000000000000E+00
(PID.TID 0000.0001)     ;
(PID.TID 0000.0001) exactConserv =   /* Exact Volume Conservation on/off flag*/
(PID.TID 0000.0001)                   T
(PID.TID 0000.0001)     ;
(PID.TID 0000.0001) linFSConserveTr =   /* Tracer correction for Lin Free Surface on/off flag*/
(PID.TID 0000.0001)                   F
(PID.TID 0000.0001)     ;
(PID.TID 0000.0001) uniformLin_PhiSurf =   /* use uniform Bo_surf on/off flag*/
(PID.TID 0000.0001)                   T
(PID.TID 0000.0001)     ;
(PID.TID 0000.0001) nonlinFreeSurf =   /* Non-linear Free Surf. options (-1,0,1,2,3)*/
(PID.TID 0000.0001)                       2
(PID.TID 0000.0001)     ;
(PID.TID 0000.0001)      -1,0= Off ; 1,2,3= On, 2=+rescale gU,gV, 3=+update cg2d solv.
(PID.TID 0000.0001) hFacInf =   /* lower threshold for hFac (nonlinFreeSurf only)*/
(PID.TID 0000.0001)                 2.000000000000000E-01
(PID.TID 0000.0001)     ;
(PID.TID 0000.0001) hFacSup =   /* upper threshold for hFac (nonlinFreeSurf only)*/
(PID.TID 0000.0001)                 2.000000000000000E+00
(PID.TID 0000.0001)     ;
(PID.TID 0000.0001) select_rStar =   /* r* Coordinate options (not yet implemented)*/
(PID.TID 0000.0001)                       0
(PID.TID 0000.0001)     ;
(PID.TID 0000.0001) useRealFreshWaterFlux =   /* Real Fresh Water Flux on/off flag*/
(PID.TID 0000.0001)                   T
(PID.TID 0000.0001)     ;
(PID.TID 0000.0001) temp_EvPrRn = /* Temp. of Evap/Prec/R (UNSET=use local T)(oC)*/
(PID.TID 0000.0001)                 1.234567000000000E+05
(PID.TID 0000.0001)     ;
(PID.TID 0000.0001) salt_EvPrRn = /* Salin. of Evap/Prec/R (UNSET=use local S)(ppt)*/
(PID.TID 0000.0001)                 0.000000000000000E+00
(PID.TID 0000.0001)     ;
(PID.TID 0000.0001) use3Dsolver = /* use 3-D pressure solver on/off flag */
(PID.TID 0000.0001)                   F
(PID.TID 0000.0001)     ;
(PID.TID 0000.0001) nonHydrostatic =  /* Non-Hydrostatic on/off flag */
(PID.TID 0000.0001)                   F
(PID.TID 0000.0001)     ;
(PID.TID 0000.0001) nh_Am2 = /* Non-Hydrostatic terms scaling factor */
(PID.TID 0000.0001)                 1.000000000000000E+00
(PID.TID 0000.0001)     ;
(PID.TID 0000.0001) quasiHydrostatic = /* Quasi-Hydrostatic on/off flag */
(PID.TID 0000.0001)                   F
(PID.TID 0000.0001)     ;
(PID.TID 0000.0001) momStepping =  /* Momentum equation on/off flag */
(PID.TID 0000.0001)                   T
(PID.TID 0000.0001)     ;
(PID.TID 0000.0001) vectorInvariantMomentum= /* Vector-Invariant Momentum on/off */
(PID.TID 0000.0001)                   F
(PID.TID 0000.0001)     ;
(PID.TID 0000.0001) momAdvection =  /* Momentum advection on/off flag */
(PID.TID 0000.0001)                   T
(PID.TID 0000.0001)     ;
(PID.TID 0000.0001) momViscosity =  /* Momentum viscosity on/off flag */
(PID.TID 0000.0001)                   T
(PID.TID 0000.0001)     ;
(PID.TID 0000.0001) momImplVertAdv =/* Momentum implicit vert. advection on/off*/
(PID.TID 0000.0001)                   F
(PID.TID 0000.0001)     ;
(PID.TID 0000.0001) implicitViscosity = /* Implicit viscosity on/off flag */
(PID.TID 0000.0001)                   F
(PID.TID 0000.0001)     ;
(PID.TID 0000.0001) metricTerms =  /* metric-Terms on/off flag */
(PID.TID 0000.0001)                   T
(PID.TID 0000.0001)     ;
(PID.TID 0000.0001) useNHMTerms = /* Non-Hydrostatic Metric-Terms on/off */
(PID.TID 0000.0001)                   F
(PID.TID 0000.0001)     ;
(PID.TID 0000.0001) useConstantF =  /* use Constant f0 Coriolis flag */
(PID.TID 0000.0001)                   F
(PID.TID 0000.0001)     ;
(PID.TID 0000.0001) useBetaPlaneF = /* use Beta-Plane Coriolis flag */
(PID.TID 0000.0001)                   F
(PID.TID 0000.0001)     ;
(PID.TID 0000.0001) useSphereF  =   /* use Spherical Coriolis flag */
(PID.TID 0000.0001)                   T
(PID.TID 0000.0001)     ;
(PID.TID 0000.0001) use3dCoriolis = /* 3-D Coriolis on/off flag */
(PID.TID 0000.0001)                   F
(PID.TID 0000.0001)     ;
(PID.TID 0000.0001) useCoriolis =  /* Coriolis on/off flag */
(PID.TID 0000.0001)                   T
(PID.TID 0000.0001)     ;
(PID.TID 0000.0001) useCDscheme =  /* CD scheme on/off flag */
(PID.TID 0000.0001)                   T
(PID.TID 0000.0001)     ;
(PID.TID 0000.0001) useJamartWetPoints= /* Coriolis WetPoints method flag */
(PID.TID 0000.0001)                   F
(PID.TID 0000.0001)     ;
(PID.TID 0000.0001) useJamartMomAdv= /* V.I. Non-linear terms Jamart flag */
(PID.TID 0000.0001)                   F
(PID.TID 0000.0001)     ;
(PID.TID 0000.0001) useAbsVorticity= /* Work with f+zeta in Coriolis */
(PID.TID 0000.0001)                   F
(PID.TID 0000.0001)     ;
(PID.TID 0000.0001) selectVortScheme= /* Scheme selector for Vorticity-Term */
(PID.TID 0000.0001)               123456789
(PID.TID 0000.0001)    = 0 : enstrophy (Shallow-Water Eq.) conserving scheme by Sadourny, JAS 75
(PID.TID 0000.0001)    = 1 : same as 0 with modified hFac
(PID.TID 0000.0001)    = 2 : energy conserving scheme (used by Sadourny in JAS 75 paper)
(PID.TID 0000.0001)     ;
(PID.TID 0000.0001) upwindVorticity= /* Upwind bias vorticity flag */
(PID.TID 0000.0001)                   F
(PID.TID 0000.0001)     ;
(PID.TID 0000.0001) highOrderVorticity= /* High order interp. of vort. flag */
(PID.TID 0000.0001)                   F
(PID.TID 0000.0001)     ;
(PID.TID 0000.0001) upwindShear= /* Upwind vertical Shear advection flag */
(PID.TID 0000.0001)                   F
(PID.TID 0000.0001)     ;
(PID.TID 0000.0001) selectKEscheme= /* Kinetic Energy scheme selector */
(PID.TID 0000.0001)                       0
(PID.TID 0000.0001)     ;
(PID.TID 0000.0001) momForcing =  /* Momentum forcing on/off flag */
(PID.TID 0000.0001)                   T
(PID.TID 0000.0001)     ;
(PID.TID 0000.0001) momPressureForcing =  /* Momentum pressure term on/off flag */
(PID.TID 0000.0001)                   T
(PID.TID 0000.0001)     ;
(PID.TID 0000.0001) implicitIntGravWave= /* Implicit Internal Gravity Wave flag */
(PID.TID 0000.0001)                   F
(PID.TID 0000.0001)     ;
(PID.TID 0000.0001) staggerTimeStep =   /* Stagger time stepping on/off flag */
(PID.TID 0000.0001)                   T
(PID.TID 0000.0001)     ;
(PID.TID 0000.0001) multiDimAdvection =   /* enable/disable Multi-Dim Advection */
(PID.TID 0000.0001)                   T
(PID.TID 0000.0001)     ;
(PID.TID 0000.0001) useMultiDimAdvec =   /* Multi-Dim Advection is/is-not used */
(PID.TID 0000.0001)                   T
(PID.TID 0000.0001)     ;
(PID.TID 0000.0001) implicitDiffusion =/* Implicit Diffusion on/off flag */
(PID.TID 0000.0001)                   T
(PID.TID 0000.0001)     ;
(PID.TID 0000.0001) tempStepping =  /* Temperature equation on/off flag */
(PID.TID 0000.0001)                   T
(PID.TID 0000.0001)     ;
(PID.TID 0000.0001) tempAdvection=  /* Temperature advection on/off flag */
(PID.TID 0000.0001)                   T
(PID.TID 0000.0001)     ;
(PID.TID 0000.0001) tempImplVertAdv =/* Temp. implicit vert. advection on/off */
(PID.TID 0000.0001)                   F
(PID.TID 0000.0001)     ;
(PID.TID 0000.0001) tempForcing  =  /* Temperature forcing on/off flag */
(PID.TID 0000.0001)                   T
(PID.TID 0000.0001)     ;
(PID.TID 0000.0001) tempIsActiveTr = /* Temp. is a dynamically Active Tracer */
(PID.TID 0000.0001)                   T
(PID.TID 0000.0001)     ;
(PID.TID 0000.0001) saltStepping =  /* Salinity equation on/off flag */
(PID.TID 0000.0001)                   T
(PID.TID 0000.0001)     ;
(PID.TID 0000.0001) saltAdvection=  /* Salinity advection on/off flag */
(PID.TID 0000.0001)                   T
(PID.TID 0000.0001)     ;
(PID.TID 0000.0001) saltImplVertAdv =/* Sali. implicit vert. advection on/off */
(PID.TID 0000.0001)                   F
(PID.TID 0000.0001)     ;
(PID.TID 0000.0001) saltForcing  =  /* Salinity forcing on/off flag */
(PID.TID 0000.0001)                   T
(PID.TID 0000.0001)     ;
(PID.TID 0000.0001) saltIsActiveTr = /* Salt  is a dynamically Active Tracer */
(PID.TID 0000.0001)                   T
(PID.TID 0000.0001)     ;
(PID.TID 0000.0001)  readBinaryPrec = /* Precision used for reading binary files */
(PID.TID 0000.0001)                      32
(PID.TID 0000.0001)     ;
(PID.TID 0000.0001) writeBinaryPrec = /* Precision used for writing binary files */
(PID.TID 0000.0001)                      32
(PID.TID 0000.0001)     ;
(PID.TID 0000.0001)  globalFiles = /* write "global" (=not per tile) files */
(PID.TID 0000.0001)                   F
(PID.TID 0000.0001)     ;
(PID.TID 0000.0001)  useSingleCpuIO = /* only master MPI process does I/O */
(PID.TID 0000.0001)                   F
(PID.TID 0000.0001)     ;
(PID.TID 0000.0001)  debugMode  =  /* Debug Mode on/off flag */
(PID.TID 0000.0001)                   F
(PID.TID 0000.0001)     ;
(PID.TID 0000.0001)    debLevA  =  /* 1rst level of debugging */
(PID.TID 0000.0001)                       1
(PID.TID 0000.0001)     ;
(PID.TID 0000.0001)    debLevB  =  /* 2nd  level of debugging */
(PID.TID 0000.0001)                       2
(PID.TID 0000.0001)     ;
(PID.TID 0000.0001)  debugLevel =  /* select debugging level */
(PID.TID 0000.0001)                       1
(PID.TID 0000.0001)     ;
(PID.TID 0000.0001) //
(PID.TID 0000.0001) // Elliptic solver(s) paramters ( PARM02 in namelist )
(PID.TID 0000.0001) //
(PID.TID 0000.0001) cg2dMaxIters =   /* Upper limit on 2d con. grad iterations  */
(PID.TID 0000.0001)                     500
(PID.TID 0000.0001)     ;
(PID.TID 0000.0001) cg2dChkResFreq =   /* 2d con. grad convergence test frequency */
(PID.TID 0000.0001)                       1
(PID.TID 0000.0001)     ;
(PID.TID 0000.0001) cg2dTargetResidual =   /* 2d con. grad target residual  */
(PID.TID 0000.0001)                 1.000000000000000E-13
(PID.TID 0000.0001)     ;
(PID.TID 0000.0001) cg2dTargetResWunit =   /* CG2d target residual [W units] */
(PID.TID 0000.0001)                -1.000000000000000E+00
(PID.TID 0000.0001)     ;
(PID.TID 0000.0001) cg2dPreCondFreq =   /* Freq. for updating cg2d preconditioner */
(PID.TID 0000.0001)                       1
(PID.TID 0000.0001)     ;
(PID.TID 0000.0001) //
(PID.TID 0000.0001) // Time stepping paramters ( PARM03 in namelist )
(PID.TID 0000.0001) //
(PID.TID 0000.0001) deltaTmom =   /* Momentum equation timestep ( s ) */
(PID.TID 0000.0001)                 1.200000000000000E+03
(PID.TID 0000.0001)     ;
(PID.TID 0000.0001) deltaTfreesurf =   /* FreeSurface equation timestep ( s ) */
(PID.TID 0000.0001)                 1.200000000000000E+03
(PID.TID 0000.0001)     ;
(PID.TID 0000.0001) dTtracerLev =   /* Tracer equation timestep ( s ) */
(PID.TID 0000.0001)    15 @  4.320000000000000E+04              /* K =  1: 15 */
(PID.TID 0000.0001)     ;
(PID.TID 0000.0001) deltaTClock  =   /* Model clock timestep ( s ) */
(PID.TID 0000.0001)                 4.320000000000000E+04
(PID.TID 0000.0001)     ;
(PID.TID 0000.0001) cAdjFreq =   /* Convective adjustment interval ( s ) */
(PID.TID 0000.0001)                 0.000000000000000E+00
(PID.TID 0000.0001)     ;
(PID.TID 0000.0001) momForcingOutAB = /* =1: take Momentum Forcing out of Adams-Bash. stepping */
(PID.TID 0000.0001)                       0
(PID.TID 0000.0001)     ;
(PID.TID 0000.0001) tracForcingOutAB = /* =1: take T,S,pTr Forcing out of Adams-Bash. stepping */
(PID.TID 0000.0001)                       0
(PID.TID 0000.0001)     ;
(PID.TID 0000.0001) momDissip_In_AB = /* put Dissipation Tendency in Adams-Bash. stepping */
(PID.TID 0000.0001)                   T
(PID.TID 0000.0001)     ;
(PID.TID 0000.0001) doAB_onGtGs = /* apply AB on Tendencies (rather than on T,S)*/
(PID.TID 0000.0001)                   T
(PID.TID 0000.0001)     ;
(PID.TID 0000.0001) abEps =   /* Adams-Bashforth-2 stabilizing weight */
(PID.TID 0000.0001)                 1.000000000000000E-01
(PID.TID 0000.0001)     ;
(PID.TID 0000.0001) tauCD =   /* CD coupling time-scale ( s ) */
(PID.TID 0000.0001)                 3.214280000000000E+05
(PID.TID 0000.0001)     ;
(PID.TID 0000.0001) rCD =   /* Normalised CD coupling parameter */
(PID.TID 0000.0001)                 9.962666600296178E-01
(PID.TID 0000.0001)     ;
(PID.TID 0000.0001) pickupStrictlyMatch= /* stop if pickup do not strictly match */
(PID.TID 0000.0001)                   T
(PID.TID 0000.0001)     ;
(PID.TID 0000.0001) nIter0 =   /* Run starting timestep number  */
(PID.TID 0000.0001)                       0
(PID.TID 0000.0001)     ;
(PID.TID 0000.0001) nTimeSteps =   /* Number of timesteps */
(PID.TID 0000.0001)                      10
(PID.TID 0000.0001)     ;
(PID.TID 0000.0001) baseTime =   /* Model base time ( s ). */
(PID.TID 0000.0001)                 0.000000000000000E+00
(PID.TID 0000.0001)     ;
(PID.TID 0000.0001) startTime =   /* Run start time ( s ). */
(PID.TID 0000.0001)                 0.000000000000000E+00
(PID.TID 0000.0001)     ;
(PID.TID 0000.0001) endTime =   /* Integration ending time ( s ). */
(PID.TID 0000.0001)                 4.320000000000000E+05
(PID.TID 0000.0001)     ;
(PID.TID 0000.0001) pChkPtFreq =   /* Permanent restart/checkpoint file interval ( s ). */
(PID.TID 0000.0001)                 3.110400000000000E+08
(PID.TID 0000.0001)     ;
(PID.TID 0000.0001) chkPtFreq =   /* Rolling restart/checkpoint file interval ( s ). */
(PID.TID 0000.0001)                 0.000000000000000E+00
(PID.TID 0000.0001)     ;
(PID.TID 0000.0001) pickup_write_mdsio =   /* Model IO flag. */
(PID.TID 0000.0001)                   T
(PID.TID 0000.0001)     ;
(PID.TID 0000.0001) pickup_read_mdsio =   /* Model IO flag. */
(PID.TID 0000.0001)                   T
(PID.TID 0000.0001)     ;
(PID.TID 0000.0001) pickup_write_mnc =   /* Model IO flag. */
(PID.TID 0000.0001)                   F
(PID.TID 0000.0001)     ;
(PID.TID 0000.0001) pickup_read_mnc =   /* Model IO flag. */
(PID.TID 0000.0001)                   F
(PID.TID 0000.0001)     ;
(PID.TID 0000.0001) pickup_write_immed =   /* Model IO flag. */
(PID.TID 0000.0001)                   F
(PID.TID 0000.0001)     ;
(PID.TID 0000.0001) writePickupAtEnd =   /* Model IO flag. */
(PID.TID 0000.0001)                   T
(PID.TID 0000.0001)     ;
(PID.TID 0000.0001) dumpFreq =   /* Model state write out interval ( s ). */
(PID.TID 0000.0001)                 8.640000000000000E+05
(PID.TID 0000.0001)     ;
(PID.TID 0000.0001) dumpInitAndLast= /* write out Initial & Last iter. model state */
(PID.TID 0000.0001)                   T
(PID.TID 0000.0001)     ;
(PID.TID 0000.0001) snapshot_mdsio =   /* Model IO flag. */
(PID.TID 0000.0001)                   F
(PID.TID 0000.0001)     ;
(PID.TID 0000.0001) snapshot_mnc =   /* Model IO flag. */
(PID.TID 0000.0001)                   T
(PID.TID 0000.0001)     ;
(PID.TID 0000.0001) monitorFreq =   /* Monitor output interval ( s ). */
(PID.TID 0000.0001)                 1.000000000000000E+00
(PID.TID 0000.0001)     ;
(PID.TID 0000.0001) monitorSelect = /* select group of variables to monitor */
(PID.TID 0000.0001)                       3
(PID.TID 0000.0001)     ;
(PID.TID 0000.0001) monitor_stdio =   /* Model IO flag. */
(PID.TID 0000.0001)                   T
(PID.TID 0000.0001)     ;
(PID.TID 0000.0001) monitor_mnc =   /* Model IO flag. */
(PID.TID 0000.0001)                   F
(PID.TID 0000.0001)     ;
(PID.TID 0000.0001) externForcingPeriod =   /* forcing period (s) */
(PID.TID 0000.0001)                 2.592000000000000E+06
(PID.TID 0000.0001)     ;
(PID.TID 0000.0001) externForcingCycle =   /* period of the cyle (s). */
(PID.TID 0000.0001)                 3.110400000000000E+07
(PID.TID 0000.0001)     ;
(PID.TID 0000.0001) tauThetaClimRelax =   /* relaxation time scale (s) */
(PID.TID 0000.0001)                 5.184000000000000E+06
(PID.TID 0000.0001)     ;
(PID.TID 0000.0001) tauSaltClimRelax =   /* relaxation time scale (s) */
(PID.TID 0000.0001)                 1.555200000000000E+07
(PID.TID 0000.0001)     ;
(PID.TID 0000.0001) latBandClimRelax =   /* max. Lat. where relaxation */
(PID.TID 0000.0001)                 1.800000000000000E+02
(PID.TID 0000.0001)     ;
(PID.TID 0000.0001) //
(PID.TID 0000.0001) // Gridding paramters ( PARM04 in namelist )
(PID.TID 0000.0001) //
(PID.TID 0000.0001) usingCartesianGrid = /* Cartesian coordinates flag ( True/False ) */
(PID.TID 0000.0001)                   F
(PID.TID 0000.0001)     ;
(PID.TID 0000.0001) usingCylindricalGrid = /* Cylindrical coordinates flag ( True/False ) */
(PID.TID 0000.0001)                   F
(PID.TID 0000.0001)     ;
(PID.TID 0000.0001) usingSphericalPolarGrid = /* Spherical coordinates flag ( True/False ) */
(PID.TID 0000.0001)                   T
(PID.TID 0000.0001)     ;
(PID.TID 0000.0001) usingCurvilinearGrid = /* Curvilinear coordinates flag ( True/False ) */
(PID.TID 0000.0001)                   F
(PID.TID 0000.0001)     ;
(PID.TID 0000.0001) Ro_SeaLevel = /* r(1) ( units of r ==  m ) */
(PID.TID 0000.0001)                 0.000000000000000E+00
(PID.TID 0000.0001)     ;
(PID.TID 0000.0001) rkSign =   /* index orientation relative to vertical coordinate */
(PID.TID 0000.0001)                -1.000000000000000E+00
(PID.TID 0000.0001)     ;
(PID.TID 0000.0001) gravitySign = /* gravity orientation relative to vertical coordinate */
(PID.TID 0000.0001)                -1.000000000000000E+00
(PID.TID 0000.0001)     ;
(PID.TID 0000.0001) mass2rUnit = /* convert mass per unit area [kg/m2] to r-units [m] */
(PID.TID 0000.0001)                 9.661835748792270E-04
(PID.TID 0000.0001)     ;
(PID.TID 0000.0001) rUnit2mass = /* convert r-units [m] to mass per unit area [kg/m2] */
(PID.TID 0000.0001)                 1.035000000000000E+03
(PID.TID 0000.0001)     ;
(PID.TID 0000.0001) drC =   /* C spacing ( units of r ) */
(PID.TID 0000.0001)                 2.500000000000000E+01,      /* K =  1 */
(PID.TID 0000.0001)                 6.000000000000000E+01,      /* K =  2 */
(PID.TID 0000.0001)                 8.500000000000000E+01,      /* K =  3 */
(PID.TID 0000.0001)                 1.200000000000000E+02,      /* K =  4 */
(PID.TID 0000.0001)                 1.650000000000000E+02,      /* K =  5 */
(PID.TID 0000.0001)                 2.150000000000000E+02,      /* K =  6 */
(PID.TID 0000.0001)                 2.650000000000000E+02,      /* K =  7 */
(PID.TID 0000.0001)                 3.150000000000000E+02,      /* K =  8 */
(PID.TID 0000.0001)                 3.650000000000000E+02,      /* K =  9 */
(PID.TID 0000.0001)                 4.150000000000000E+02,      /* K = 10 */
(PID.TID 0000.0001)                 4.650000000000000E+02,      /* K = 11 */
(PID.TID 0000.0001)                 5.150000000000000E+02,      /* K = 12 */
(PID.TID 0000.0001)                 5.650000000000000E+02,      /* K = 13 */
(PID.TID 0000.0001)                 6.150000000000000E+02,      /* K = 14 */
(PID.TID 0000.0001)                 6.650000000000000E+02       /* K = 15 */
(PID.TID 0000.0001)     ;
(PID.TID 0000.0001) drF =   /* W spacing ( units of r ) */
(PID.TID 0000.0001)                 5.000000000000000E+01,      /* K =  1 */
(PID.TID 0000.0001)                 7.000000000000000E+01,      /* K =  2 */
(PID.TID 0000.0001)                 1.000000000000000E+02,      /* K =  3 */
(PID.TID 0000.0001)                 1.400000000000000E+02,      /* K =  4 */
(PID.TID 0000.0001)                 1.900000000000000E+02,      /* K =  5 */
(PID.TID 0000.0001)                 2.400000000000000E+02,      /* K =  6 */
(PID.TID 0000.0001)                 2.900000000000000E+02,      /* K =  7 */
(PID.TID 0000.0001)                 3.400000000000000E+02,      /* K =  8 */
(PID.TID 0000.0001)                 3.900000000000000E+02,      /* K =  9 */
(PID.TID 0000.0001)                 4.400000000000000E+02,      /* K = 10 */
(PID.TID 0000.0001)                 4.900000000000000E+02,      /* K = 11 */
(PID.TID 0000.0001)                 5.400000000000000E+02,      /* K = 12 */
(PID.TID 0000.0001)                 5.900000000000000E+02,      /* K = 13 */
(PID.TID 0000.0001)                 6.400000000000000E+02,      /* K = 14 */
(PID.TID 0000.0001)                 6.900000000000000E+02       /* K = 15 */
(PID.TID 0000.0001)     ;
(PID.TID 0000.0001) delX =   /* U spacing ( m - cartesian, degrees - spherical ) */
(PID.TID 0000.0001)    90 @  4.000000000000000E+00              /* I =  1: 90 */
(PID.TID 0000.0001)     ;
(PID.TID 0000.0001) delY =   /* V spacing ( m - cartesian, degrees - spherical ) */
(PID.TID 0000.0001)    40 @  4.000000000000000E+00              /* J =  1: 40 */
(PID.TID 0000.0001)     ;
(PID.TID 0000.0001) phiMin =    /* South edge (ignored - cartesian, degrees - spherical ) */
(PID.TID 0000.0001)                -8.000000000000000E+01
(PID.TID 0000.0001)     ;
(PID.TID 0000.0001) thetaMin =    /* West edge ( ignored - cartesian, degrees - spherical ) */
(PID.TID 0000.0001)                 0.000000000000000E+00
(PID.TID 0000.0001)     ;
(PID.TID 0000.0001) rSphere =  /* Radius ( ignored - cartesian, m - spherical ) */
(PID.TID 0000.0001)                 6.370000000000000E+06
(PID.TID 0000.0001)     ;
(PID.TID 0000.0001) deepAtmosphere = /* Deep/Shallow Atmosphere flag (True/False) */
(PID.TID 0000.0001)                   F
(PID.TID 0000.0001)     ;
(PID.TID 0000.0001) xcoord =   /* P-point X coord ( m - cartesian, degrees - spherical ) */
(PID.TID 0000.0001)                 2.000000000000000E+00,      /* I =  1 */
(PID.TID 0000.0001)                 6.000000000000000E+00,      /* I =  2 */
(PID.TID 0000.0001)                 1.000000000000000E+01,      /* I =  3 */
(PID.TID 0000.0001)                 1.400000000000000E+01,      /* I =  4 */
(PID.TID 0000.0001)                 1.800000000000000E+01,      /* I =  5 */
(PID.TID 0000.0001)                 2.200000000000000E+01,      /* I =  6 */
(PID.TID 0000.0001)                 2.600000000000000E+01,      /* I =  7 */
(PID.TID 0000.0001)                 3.000000000000000E+01,      /* I =  8 */
(PID.TID 0000.0001)                 3.400000000000000E+01,      /* I =  9 */
(PID.TID 0000.0001)                 3.800000000000000E+01,      /* I = 10 */
(PID.TID 0000.0001)                 4.200000000000000E+01,      /* I = 11 */
(PID.TID 0000.0001)                 4.600000000000000E+01,      /* I = 12 */
(PID.TID 0000.0001)                 5.000000000000000E+01,      /* I = 13 */
(PID.TID 0000.0001)                 5.400000000000000E+01,      /* I = 14 */
(PID.TID 0000.0001)                 5.800000000000000E+01,      /* I = 15 */
(PID.TID 0000.0001)                 6.200000000000000E+01,      /* I = 16 */
(PID.TID 0000.0001)                 6.600000000000000E+01,      /* I = 17 */
(PID.TID 0000.0001)                 7.000000000000000E+01,      /* I = 18 */
(PID.TID 0000.0001)                 7.400000000000000E+01,      /* I = 19 */
(PID.TID 0000.0001)                 7.800000000000000E+01,      /* I = 20 */
(PID.TID 0000.0001)                 8.200000000000000E+01,      /* I = 21 */
(PID.TID 0000.0001)                 8.600000000000000E+01,      /* I = 22 */
(PID.TID 0000.0001)                 9.000000000000000E+01,      /* I = 23 */
(PID.TID 0000.0001)                 9.400000000000000E+01,      /* I = 24 */
(PID.TID 0000.0001)                 9.800000000000000E+01,      /* I = 25 */
(PID.TID 0000.0001)                 1.020000000000000E+02,      /* I = 26 */
(PID.TID 0000.0001)                 1.060000000000000E+02,      /* I = 27 */
(PID.TID 0000.0001)                 1.100000000000000E+02,      /* I = 28 */
(PID.TID 0000.0001)                 1.140000000000000E+02,      /* I = 29 */
(PID.TID 0000.0001)                 1.180000000000000E+02,      /* I = 30 */
(PID.TID 0000.0001)                 1.220000000000000E+02,      /* I = 31 */
(PID.TID 0000.0001)                 1.260000000000000E+02,      /* I = 32 */
(PID.TID 0000.0001)                 1.300000000000000E+02,      /* I = 33 */
(PID.TID 0000.0001)                 1.340000000000000E+02,      /* I = 34 */
(PID.TID 0000.0001)                 1.380000000000000E+02,      /* I = 35 */
(PID.TID 0000.0001)                 1.420000000000000E+02,      /* I = 36 */
(PID.TID 0000.0001)                 1.460000000000000E+02,      /* I = 37 */
(PID.TID 0000.0001)                 1.500000000000000E+02,      /* I = 38 */
(PID.TID 0000.0001)                 1.540000000000000E+02,      /* I = 39 */
(PID.TID 0000.0001)                 1.580000000000000E+02,      /* I = 40 */
(PID.TID 0000.0001)                 1.620000000000000E+02,      /* I = 41 */
(PID.TID 0000.0001)                 1.660000000000000E+02,      /* I = 42 */
(PID.TID 0000.0001)                 1.700000000000000E+02,      /* I = 43 */
(PID.TID 0000.0001)                 1.740000000000000E+02,      /* I = 44 */
(PID.TID 0000.0001)                 1.780000000000000E+02,      /* I = 45 */
(PID.TID 0000.0001)                 1.820000000000000E+02,      /* I = 46 */
(PID.TID 0000.0001)                 1.860000000000000E+02,      /* I = 47 */
(PID.TID 0000.0001)                 1.900000000000000E+02,      /* I = 48 */
(PID.TID 0000.0001)                 1.940000000000000E+02,      /* I = 49 */
(PID.TID 0000.0001)                 1.980000000000000E+02,      /* I = 50 */
(PID.TID 0000.0001)                 2.020000000000000E+02,      /* I = 51 */
(PID.TID 0000.0001)                 2.060000000000000E+02,      /* I = 52 */
(PID.TID 0000.0001)                 2.100000000000000E+02,      /* I = 53 */
(PID.TID 0000.0001)                 2.140000000000000E+02,      /* I = 54 */
(PID.TID 0000.0001)                 2.180000000000000E+02,      /* I = 55 */
(PID.TID 0000.0001)                 2.220000000000000E+02,      /* I = 56 */
(PID.TID 0000.0001)                 2.260000000000000E+02,      /* I = 57 */
(PID.TID 0000.0001)                 2.300000000000000E+02,      /* I = 58 */
(PID.TID 0000.0001)                 2.340000000000000E+02,      /* I = 59 */
(PID.TID 0000.0001)                 2.380000000000000E+02,      /* I = 60 */
(PID.TID 0000.0001)                 2.420000000000000E+02,      /* I = 61 */
(PID.TID 0000.0001)                 2.460000000000000E+02,      /* I = 62 */
(PID.TID 0000.0001)                 2.500000000000000E+02,      /* I = 63 */
(PID.TID 0000.0001)                 2.540000000000000E+02,      /* I = 64 */
(PID.TID 0000.0001)                 2.580000000000000E+02,      /* I = 65 */
(PID.TID 0000.0001)                 2.620000000000000E+02,      /* I = 66 */
(PID.TID 0000.0001)                 2.660000000000000E+02,      /* I = 67 */
(PID.TID 0000.0001)                 2.700000000000000E+02,      /* I = 68 */
(PID.TID 0000.0001)                 2.740000000000000E+02,      /* I = 69 */
(PID.TID 0000.0001)                 2.780000000000000E+02,      /* I = 70 */
(PID.TID 0000.0001)                 2.820000000000000E+02,      /* I = 71 */
(PID.TID 0000.0001)                 2.860000000000000E+02,      /* I = 72 */
(PID.TID 0000.0001)                 2.900000000000000E+02,      /* I = 73 */
(PID.TID 0000.0001)                 2.940000000000000E+02,      /* I = 74 */
(PID.TID 0000.0001)                 2.980000000000000E+02,      /* I = 75 */
(PID.TID 0000.0001)                 3.020000000000000E+02,      /* I = 76 */
(PID.TID 0000.0001)                 3.060000000000000E+02,      /* I = 77 */
(PID.TID 0000.0001)                 3.100000000000000E+02,      /* I = 78 */
(PID.TID 0000.0001)                 3.140000000000000E+02,      /* I = 79 */
(PID.TID 0000.0001)                 3.180000000000000E+02,      /* I = 80 */
(PID.TID 0000.0001)                 3.220000000000000E+02,      /* I = 81 */
(PID.TID 0000.0001)                 3.260000000000000E+02,      /* I = 82 */
(PID.TID 0000.0001)                 3.300000000000000E+02,      /* I = 83 */
(PID.TID 0000.0001)                 3.340000000000000E+02,      /* I = 84 */
(PID.TID 0000.0001)                 3.380000000000000E+02,      /* I = 85 */
(PID.TID 0000.0001)                 3.420000000000000E+02,      /* I = 86 */
(PID.TID 0000.0001)                 3.460000000000000E+02,      /* I = 87 */
(PID.TID 0000.0001)                 3.500000000000000E+02,      /* I = 88 */
(PID.TID 0000.0001)                 3.540000000000000E+02,      /* I = 89 */
(PID.TID 0000.0001)                 3.580000000000000E+02       /* I = 90 */
(PID.TID 0000.0001)     ;
(PID.TID 0000.0001) ycoord =   /* P-point Y coord ( m - cartesian, degrees - spherical ) */
(PID.TID 0000.0001)                -7.800000000000000E+01,      /* J =  1 */
(PID.TID 0000.0001)                -7.400000000000000E+01,      /* J =  2 */
(PID.TID 0000.0001)                -7.000000000000000E+01,      /* J =  3 */
(PID.TID 0000.0001)                -6.600000000000000E+01,      /* J =  4 */
(PID.TID 0000.0001)                -6.200000000000000E+01,      /* J =  5 */
(PID.TID 0000.0001)                -5.800000000000000E+01,      /* J =  6 */
(PID.TID 0000.0001)                -5.400000000000000E+01,      /* J =  7 */
(PID.TID 0000.0001)                -5.000000000000000E+01,      /* J =  8 */
(PID.TID 0000.0001)                -4.600000000000000E+01,      /* J =  9 */
(PID.TID 0000.0001)                -4.200000000000000E+01,      /* J = 10 */
(PID.TID 0000.0001)                -3.800000000000000E+01,      /* J = 11 */
(PID.TID 0000.0001)                -3.400000000000000E+01,      /* J = 12 */
(PID.TID 0000.0001)                -3.000000000000000E+01,      /* J = 13 */
(PID.TID 0000.0001)                -2.600000000000000E+01,      /* J = 14 */
(PID.TID 0000.0001)                -2.200000000000000E+01,      /* J = 15 */
(PID.TID 0000.0001)                -1.800000000000000E+01,      /* J = 16 */
(PID.TID 0000.0001)                -1.400000000000000E+01,      /* J = 17 */
(PID.TID 0000.0001)                -1.000000000000000E+01,      /* J = 18 */
(PID.TID 0000.0001)                -6.000000000000000E+00,      /* J = 19 */
(PID.TID 0000.0001)                -2.000000000000000E+00,      /* J = 20 */
(PID.TID 0000.0001)                 2.000000000000000E+00,      /* J = 21 */
(PID.TID 0000.0001)                 6.000000000000000E+00,      /* J = 22 */
(PID.TID 0000.0001)                 1.000000000000000E+01,      /* J = 23 */
(PID.TID 0000.0001)                 1.400000000000000E+01,      /* J = 24 */
(PID.TID 0000.0001)                 1.800000000000000E+01,      /* J = 25 */
(PID.TID 0000.0001)                 2.200000000000000E+01,      /* J = 26 */
(PID.TID 0000.0001)                 2.600000000000000E+01,      /* J = 27 */
(PID.TID 0000.0001)                 3.000000000000000E+01,      /* J = 28 */
(PID.TID 0000.0001)                 3.400000000000000E+01,      /* J = 29 */
(PID.TID 0000.0001)                 3.800000000000000E+01,      /* J = 30 */
(PID.TID 0000.0001)                 4.200000000000000E+01,      /* J = 31 */
(PID.TID 0000.0001)                 4.600000000000000E+01,      /* J = 32 */
(PID.TID 0000.0001)                 5.000000000000000E+01,      /* J = 33 */
(PID.TID 0000.0001)                 5.400000000000000E+01,      /* J = 34 */
(PID.TID 0000.0001)                 5.800000000000000E+01,      /* J = 35 */
(PID.TID 0000.0001)                 6.200000000000000E+01,      /* J = 36 */
(PID.TID 0000.0001)                 6.600000000000000E+01,      /* J = 37 */
(PID.TID 0000.0001)                 7.000000000000000E+01,      /* J = 38 */
(PID.TID 0000.0001)                 7.400000000000000E+01,      /* J = 39 */
(PID.TID 0000.0001)                 7.800000000000000E+01       /* J = 40 */
(PID.TID 0000.0001)     ;
(PID.TID 0000.0001) rcoord =   /* P-point R coordinate (  units of r ) */
(PID.TID 0000.0001)                -2.500000000000000E+01,      /* K =  1 */
(PID.TID 0000.0001)                -8.500000000000000E+01,      /* K =  2 */
(PID.TID 0000.0001)                -1.700000000000000E+02,      /* K =  3 */
(PID.TID 0000.0001)                -2.900000000000000E+02,      /* K =  4 */
(PID.TID 0000.0001)                -4.550000000000000E+02,      /* K =  5 */
(PID.TID 0000.0001)                -6.700000000000000E+02,      /* K =  6 */
(PID.TID 0000.0001)                -9.350000000000000E+02,      /* K =  7 */
(PID.TID 0000.0001)                -1.250000000000000E+03,      /* K =  8 */
(PID.TID 0000.0001)                -1.615000000000000E+03,      /* K =  9 */
(PID.TID 0000.0001)                -2.030000000000000E+03,      /* K = 10 */
(PID.TID 0000.0001)                -2.495000000000000E+03,      /* K = 11 */
(PID.TID 0000.0001)                -3.010000000000000E+03,      /* K = 12 */
(PID.TID 0000.0001)                -3.575000000000000E+03,      /* K = 13 */
(PID.TID 0000.0001)                -4.190000000000000E+03,      /* K = 14 */
(PID.TID 0000.0001)                -4.855000000000000E+03       /* K = 15 */
(PID.TID 0000.0001)     ;
(PID.TID 0000.0001) rF =   /* W-Interf. R coordinate (  units of r ) */
(PID.TID 0000.0001)                 0.000000000000000E+00,      /* K =  1 */
(PID.TID 0000.0001)                -5.000000000000000E+01,      /* K =  2 */
(PID.TID 0000.0001)                -1.200000000000000E+02,      /* K =  3 */
(PID.TID 0000.0001)                -2.200000000000000E+02,      /* K =  4 */
(PID.TID 0000.0001)                -3.600000000000000E+02,      /* K =  5 */
(PID.TID 0000.0001)                -5.500000000000000E+02,      /* K =  6 */
(PID.TID 0000.0001)                -7.900000000000000E+02,      /* K =  7 */
(PID.TID 0000.0001)                -1.080000000000000E+03,      /* K =  8 */
(PID.TID 0000.0001)                -1.420000000000000E+03,      /* K =  9 */
(PID.TID 0000.0001)                -1.810000000000000E+03,      /* K = 10 */
(PID.TID 0000.0001)                -2.250000000000000E+03,      /* K = 11 */
(PID.TID 0000.0001)                -2.740000000000000E+03,      /* K = 12 */
(PID.TID 0000.0001)                -3.280000000000000E+03,      /* K = 13 */
(PID.TID 0000.0001)                -3.870000000000000E+03,      /* K = 14 */
(PID.TID 0000.0001)                -4.510000000000000E+03,      /* K = 15 */
(PID.TID 0000.0001)                -5.200000000000000E+03       /* K = 16 */
(PID.TID 0000.0001)     ;
(PID.TID 0000.0001) deepFacC = /* deep-model grid factor @ cell-Center (-) */
(PID.TID 0000.0001)    15 @  1.000000000000000E+00              /* K =  1: 15 */
(PID.TID 0000.0001)     ;
(PID.TID 0000.0001) deepFacF = /* deep-model grid factor @ W-Interface (-) */
(PID.TID 0000.0001)    16 @  1.000000000000000E+00              /* K =  1: 16 */
(PID.TID 0000.0001)     ;
(PID.TID 0000.0001) rVel2wUnit = /* convert units: rVel -> wSpeed (=1 if z-coord)*/
(PID.TID 0000.0001)    16 @  1.000000000000000E+00              /* K =  1: 16 */
(PID.TID 0000.0001)     ;
(PID.TID 0000.0001) wUnit2rVel = /* convert units: wSpeed -> rVel (=1 if z-coord)*/
(PID.TID 0000.0001)    16 @  1.000000000000000E+00              /* K =  1: 16 */
(PID.TID 0000.0001)     ;
(PID.TID 0000.0001) dBdrRef = /* Vertical gradient of reference boyancy [(m/s/r)^2)] */
(PID.TID 0000.0001)    15 @  0.000000000000000E+00              /* K =  1: 15 */
(PID.TID 0000.0001)     ;
(PID.TID 0000.0001) rotateGrid = /* use rotated grid ( True/False ) */
(PID.TID 0000.0001)                   F
(PID.TID 0000.0001)     ;
(PID.TID 0000.0001) phiEuler = /* Euler angle, rotation about original z-coordinate [rad] */
(PID.TID 0000.0001)                 0.000000000000000E+00
(PID.TID 0000.0001)     ;
(PID.TID 0000.0001) thetaEuler = /* Euler angle, rotation about new x-coordinate [rad] */
(PID.TID 0000.0001)                 0.000000000000000E+00
(PID.TID 0000.0001)     ;
(PID.TID 0000.0001) psiEuler = /* Euler angle, rotation about new z-coordinate [rad] */
(PID.TID 0000.0001)                 0.000000000000000E+00
(PID.TID 0000.0001)     ;
(PID.TID 0000.0001) dxF =  /* dxF(:,1,:,1) ( units: m ) */
(PID.TID 0000.0001)    90 @  9.246038586187513E+04              /* I =  1: 90 */
(PID.TID 0000.0001)     ;
(PID.TID 0000.0001) dxF =  /* dxF(1,:,1,:) ( units: m ) */
(PID.TID 0000.0001)                 9.246038586187513E+04,      /* J =  1 */
(PID.TID 0000.0001)                 1.225786591246834E+05,      /* J =  2 */
(PID.TID 0000.0001)                 1.520997414818001E+05,      /* J =  3 */
(PID.TID 0000.0001)                 1.808798091874300E+05,      /* J =  4 */
(PID.TID 0000.0001)                 2.087786486446736E+05,      /* J =  5 */
(PID.TID 0000.0001)                 2.356603395120765E+05,      /* J =  6 */
(PID.TID 0000.0001)                 2.613939168938713E+05,      /* J =  7 */
(PID.TID 0000.0001)                 2.858540093877838E+05,      /* J =  8 */
(PID.TID 0000.0001)                 3.089214498819034E+05,      /* J =  9 */
(PID.TID 0000.0001)                 3.304838561248741E+05,      /* J = 10 */
(PID.TID 0000.0001)                 3.504361782409254E+05,      /* J = 11 */
(PID.TID 0000.0001)                 3.686812105223082E+05,      /* J = 12 */
(PID.TID 0000.0001)                 3.851300650057323E+05,      /* J = 13 */
(PID.TID 0000.0001)                 3.997026045255871E+05,      /* J = 14 */
(PID.TID 0000.0001)                 4.123278331341585E+05,      /* J = 15 */
(PID.TID 0000.0001)                 4.229442419867491E+05,      /* J = 16 */
(PID.TID 0000.0001)                 4.315001090065870E+05,      /* J = 17 */
(PID.TID 0000.0001)                 4.379537508695838E+05,      /* J = 18 */
(PID.TID 0000.0001)                 4.422737260813012E+05,      /* J = 19 */
(PID.TID 0000.0001)     2 @  4.444389881567502E+05,             /* J = 20: 21 */
(PID.TID 0000.0001)                 4.422737260813012E+05,      /* J = 22 */
(PID.TID 0000.0001)                 4.379537508695838E+05,      /* J = 23 */
(PID.TID 0000.0001)                 4.315001090065870E+05,      /* J = 24 */
(PID.TID 0000.0001)                 4.229442419867491E+05,      /* J = 25 */
(PID.TID 0000.0001)                 4.123278331341585E+05,      /* J = 26 */
(PID.TID 0000.0001)                 3.997026045255871E+05,      /* J = 27 */
(PID.TID 0000.0001)                 3.851300650057323E+05,      /* J = 28 */
(PID.TID 0000.0001)                 3.686812105223082E+05,      /* J = 29 */
(PID.TID 0000.0001)                 3.504361782409254E+05,      /* J = 30 */
(PID.TID 0000.0001)                 3.304838561248741E+05,      /* J = 31 */
(PID.TID 0000.0001)                 3.089214498819034E+05,      /* J = 32 */
(PID.TID 0000.0001)                 2.858540093877838E+05,      /* J = 33 */
(PID.TID 0000.0001)                 2.613939168938713E+05,      /* J = 34 */
(PID.TID 0000.0001)                 2.356603395120765E+05,      /* J = 35 */
(PID.TID 0000.0001)                 2.087786486446736E+05,      /* J = 36 */
(PID.TID 0000.0001)                 1.808798091874300E+05,      /* J = 37 */
(PID.TID 0000.0001)                 1.520997414818001E+05,      /* J = 38 */
(PID.TID 0000.0001)                 1.225786591246834E+05,      /* J = 39 */
(PID.TID 0000.0001)                 9.246038586187513E+04       /* J = 40 */
(PID.TID 0000.0001)     ;
(PID.TID 0000.0001) dyF =  /* dyF(:,1,:,1) ( units: m ) */
(PID.TID 0000.0001)    90 @  4.447098934081552E+05              /* I =  1: 90 */
(PID.TID 0000.0001)     ;
(PID.TID 0000.0001) dyF =  /* dyF(1,:,1,:) ( units: m ) */
(PID.TID 0000.0001)    40 @  4.447098934081552E+05              /* J =  1: 40 */
(PID.TID 0000.0001)     ;
(PID.TID 0000.0001) dxG =  /* dxG(:,1,:,1) ( units: m ) */
(PID.TID 0000.0001)    90 @  7.722306258078101E+04              /* I =  1: 90 */
(PID.TID 0000.0001)     ;
(PID.TID 0000.0001) dxG =  /* dxG(1,:,1,:) ( units: m ) */
(PID.TID 0000.0001)                 7.722306258078101E+04,      /* J =  1 */
(PID.TID 0000.0001)                 1.075850604052271E+05,      /* J =  2 */
(PID.TID 0000.0001)                 1.374229146297914E+05,      /* J =  3 */
(PID.TID 0000.0001)                 1.665912582279823E+05,      /* J =  4 */
(PID.TID 0000.0001)                 1.949479859617814E+05,      /* J =  5 */
(PID.TID 0000.0001)                 2.223549467040777E+05,      /* J =  6 */
(PID.TID 0000.0001)                 2.486786164970726E+05,      /* J =  7 */
(PID.TID 0000.0001)                 2.737907490675810E+05,      /* J =  8 */
(PID.TID 0000.0001)                 2.975690006299821E+05,      /* J =  9 */
(PID.TID 0000.0001)                 3.198975259328452E+05,      /* J = 10 */
(PID.TID 0000.0001)                 3.406675426453503E+05,      /* J = 11 */
(PID.TID 0000.0001)                 3.597778613338690E+05,      /* J = 12 */
(PID.TID 0000.0001)                 3.771353784467131E+05,      /* J = 13 */
(PID.TID 0000.0001)                 3.926555299052806E+05,      /* J = 14 */
(PID.TID 0000.0001)                 4.062627030917454E+05,      /* J = 15 */
(PID.TID 0000.0001)                 4.178906052261313E+05,      /* J = 16 */
(PID.TID 0000.0001)                 4.274825863380723E+05,      /* J = 17 */
(PID.TID 0000.0001)                 4.349919152597734E+05,      /* J = 18 */
(PID.TID 0000.0001)                 4.403820072955634E+05,      /* J = 19 */
(PID.TID 0000.0001)                 4.436266024588540E+05,      /* J = 20 */
(PID.TID 0000.0001)                 4.447098934081552E+05,      /* J = 21 */
(PID.TID 0000.0001)                 4.436266024588540E+05,      /* J = 22 */
(PID.TID 0000.0001)                 4.403820072955634E+05,      /* J = 23 */
(PID.TID 0000.0001)                 4.349919152597734E+05,      /* J = 24 */
(PID.TID 0000.0001)                 4.274825863380723E+05,      /* J = 25 */
(PID.TID 0000.0001)                 4.178906052261313E+05,      /* J = 26 */
(PID.TID 0000.0001)                 4.062627030917454E+05,      /* J = 27 */
(PID.TID 0000.0001)                 3.926555299052806E+05,      /* J = 28 */
(PID.TID 0000.0001)                 3.771353784467131E+05,      /* J = 29 */
(PID.TID 0000.0001)                 3.597778613338690E+05,      /* J = 30 */
(PID.TID 0000.0001)                 3.406675426453503E+05,      /* J = 31 */
(PID.TID 0000.0001)                 3.198975259328452E+05,      /* J = 32 */
(PID.TID 0000.0001)                 2.975690006299821E+05,      /* J = 33 */
(PID.TID 0000.0001)                 2.737907490675810E+05,      /* J = 34 */
(PID.TID 0000.0001)                 2.486786164970726E+05,      /* J = 35 */
(PID.TID 0000.0001)                 2.223549467040777E+05,      /* J = 36 */
(PID.TID 0000.0001)                 1.949479859617814E+05,      /* J = 37 */
(PID.TID 0000.0001)                 1.665912582279823E+05,      /* J = 38 */
(PID.TID 0000.0001)                 1.374229146297914E+05,      /* J = 39 */
(PID.TID 0000.0001)                 1.075850604052271E+05       /* J = 40 */
(PID.TID 0000.0001)     ;
(PID.TID 0000.0001) dyG =  /* dyG(:,1,:,1) ( units: m ) */
(PID.TID 0000.0001)    90 @  4.447098934081552E+05              /* I =  1: 90 */
(PID.TID 0000.0001)     ;
(PID.TID 0000.0001) dyG =  /* dyG(1,:,1,:) ( units: m ) */
(PID.TID 0000.0001)    40 @  4.447098934081552E+05              /* J =  1: 40 */
(PID.TID 0000.0001)     ;
(PID.TID 0000.0001) dxC =  /* dxC(:,1,:,1) ( units: m ) */
(PID.TID 0000.0001)    90 @  9.246038586187513E+04              /* I =  1: 90 */
(PID.TID 0000.0001)     ;
(PID.TID 0000.0001) dxC =  /* dxC(1,:,1,:) ( units: m ) */
(PID.TID 0000.0001)                 9.246038586187513E+04,      /* J =  1 */
(PID.TID 0000.0001)                 1.225786591246834E+05,      /* J =  2 */
(PID.TID 0000.0001)                 1.520997414818001E+05,      /* J =  3 */
(PID.TID 0000.0001)                 1.808798091874300E+05,      /* J =  4 */
(PID.TID 0000.0001)                 2.087786486446736E+05,      /* J =  5 */
(PID.TID 0000.0001)                 2.356603395120765E+05,      /* J =  6 */
(PID.TID 0000.0001)                 2.613939168938713E+05,      /* J =  7 */
(PID.TID 0000.0001)                 2.858540093877838E+05,      /* J =  8 */
(PID.TID 0000.0001)                 3.089214498819034E+05,      /* J =  9 */
(PID.TID 0000.0001)                 3.304838561248741E+05,      /* J = 10 */
(PID.TID 0000.0001)                 3.504361782409254E+05,      /* J = 11 */
(PID.TID 0000.0001)                 3.686812105223082E+05,      /* J = 12 */
(PID.TID 0000.0001)                 3.851300650057323E+05,      /* J = 13 */
(PID.TID 0000.0001)                 3.997026045255871E+05,      /* J = 14 */
(PID.TID 0000.0001)                 4.123278331341585E+05,      /* J = 15 */
(PID.TID 0000.0001)                 4.229442419867491E+05,      /* J = 16 */
(PID.TID 0000.0001)                 4.315001090065870E+05,      /* J = 17 */
(PID.TID 0000.0001)                 4.379537508695838E+05,      /* J = 18 */
(PID.TID 0000.0001)                 4.422737260813012E+05,      /* J = 19 */
(PID.TID 0000.0001)     2 @  4.444389881567502E+05,             /* J = 20: 21 */
(PID.TID 0000.0001)                 4.422737260813012E+05,      /* J = 22 */
(PID.TID 0000.0001)                 4.379537508695838E+05,      /* J = 23 */
(PID.TID 0000.0001)                 4.315001090065870E+05,      /* J = 24 */
(PID.TID 0000.0001)                 4.229442419867491E+05,      /* J = 25 */
(PID.TID 0000.0001)                 4.123278331341585E+05,      /* J = 26 */
(PID.TID 0000.0001)                 3.997026045255871E+05,      /* J = 27 */
(PID.TID 0000.0001)                 3.851300650057323E+05,      /* J = 28 */
(PID.TID 0000.0001)                 3.686812105223082E+05,      /* J = 29 */
(PID.TID 0000.0001)                 3.504361782409254E+05,      /* J = 30 */
(PID.TID 0000.0001)                 3.304838561248741E+05,      /* J = 31 */
(PID.TID 0000.0001)                 3.089214498819034E+05,      /* J = 32 */
(PID.TID 0000.0001)                 2.858540093877838E+05,      /* J = 33 */
(PID.TID 0000.0001)                 2.613939168938713E+05,      /* J = 34 */
(PID.TID 0000.0001)                 2.356603395120765E+05,      /* J = 35 */
(PID.TID 0000.0001)                 2.087786486446736E+05,      /* J = 36 */
(PID.TID 0000.0001)                 1.808798091874300E+05,      /* J = 37 */
(PID.TID 0000.0001)                 1.520997414818001E+05,      /* J = 38 */
(PID.TID 0000.0001)                 1.225786591246834E+05,      /* J = 39 */
(PID.TID 0000.0001)                 9.246038586187513E+04       /* J = 40 */
(PID.TID 0000.0001)     ;
(PID.TID 0000.0001) dyC =  /* dyC(:,1,:,1) ( units: m ) */
(PID.TID 0000.0001)    90 @  4.447098934081552E+05              /* I =  1: 90 */
(PID.TID 0000.0001)     ;
(PID.TID 0000.0001) dyC =  /* dyC(1,:,1,:) ( units: m ) */
(PID.TID 0000.0001)    40 @  4.447098934081552E+05              /* J =  1: 40 */
(PID.TID 0000.0001)     ;
(PID.TID 0000.0001) dxV =  /* dxV(:,1,:,1) ( units: m ) */
(PID.TID 0000.0001)    90 @  7.722306258078101E+04              /* I =  1: 90 */
(PID.TID 0000.0001)     ;
(PID.TID 0000.0001) dxV =  /* dxV(1,:,1,:) ( units: m ) */
(PID.TID 0000.0001)                 7.722306258078101E+04,      /* J =  1 */
(PID.TID 0000.0001)                 1.075850604052271E+05,      /* J =  2 */
(PID.TID 0000.0001)                 1.374229146297914E+05,      /* J =  3 */
(PID.TID 0000.0001)                 1.665912582279823E+05,      /* J =  4 */
(PID.TID 0000.0001)                 1.949479859617814E+05,      /* J =  5 */
(PID.TID 0000.0001)                 2.223549467040777E+05,      /* J =  6 */
(PID.TID 0000.0001)                 2.486786164970726E+05,      /* J =  7 */
(PID.TID 0000.0001)                 2.737907490675810E+05,      /* J =  8 */
(PID.TID 0000.0001)                 2.975690006299821E+05,      /* J =  9 */
(PID.TID 0000.0001)                 3.198975259328452E+05,      /* J = 10 */
(PID.TID 0000.0001)                 3.406675426453503E+05,      /* J = 11 */
(PID.TID 0000.0001)                 3.597778613338690E+05,      /* J = 12 */
(PID.TID 0000.0001)                 3.771353784467131E+05,      /* J = 13 */
(PID.TID 0000.0001)                 3.926555299052806E+05,      /* J = 14 */
(PID.TID 0000.0001)                 4.062627030917454E+05,      /* J = 15 */
(PID.TID 0000.0001)                 4.178906052261313E+05,      /* J = 16 */
(PID.TID 0000.0001)                 4.274825863380723E+05,      /* J = 17 */
(PID.TID 0000.0001)                 4.349919152597734E+05,      /* J = 18 */
(PID.TID 0000.0001)                 4.403820072955634E+05,      /* J = 19 */
(PID.TID 0000.0001)                 4.436266024588540E+05,      /* J = 20 */
(PID.TID 0000.0001)                 4.447098934081552E+05,      /* J = 21 */
(PID.TID 0000.0001)                 4.436266024588540E+05,      /* J = 22 */
(PID.TID 0000.0001)                 4.403820072955634E+05,      /* J = 23 */
(PID.TID 0000.0001)                 4.349919152597734E+05,      /* J = 24 */
(PID.TID 0000.0001)                 4.274825863380723E+05,      /* J = 25 */
(PID.TID 0000.0001)                 4.178906052261313E+05,      /* J = 26 */
(PID.TID 0000.0001)                 4.062627030917454E+05,      /* J = 27 */
(PID.TID 0000.0001)                 3.926555299052806E+05,      /* J = 28 */
(PID.TID 0000.0001)                 3.771353784467131E+05,      /* J = 29 */
(PID.TID 0000.0001)                 3.597778613338690E+05,      /* J = 30 */
(PID.TID 0000.0001)                 3.406675426453503E+05,      /* J = 31 */
(PID.TID 0000.0001)                 3.198975259328452E+05,      /* J = 32 */
(PID.TID 0000.0001)                 2.975690006299821E+05,      /* J = 33 */
(PID.TID 0000.0001)                 2.737907490675810E+05,      /* J = 34 */
(PID.TID 0000.0001)                 2.486786164970726E+05,      /* J = 35 */
(PID.TID 0000.0001)                 2.223549467040777E+05,      /* J = 36 */
(PID.TID 0000.0001)                 1.949479859617814E+05,      /* J = 37 */
(PID.TID 0000.0001)                 1.665912582279823E+05,      /* J = 38 */
(PID.TID 0000.0001)                 1.374229146297914E+05,      /* J = 39 */
(PID.TID 0000.0001)                 1.075850604052271E+05       /* J = 40 */
(PID.TID 0000.0001)     ;
(PID.TID 0000.0001) dyU =  /* dyU(:,1,:,1) ( units: m ) */
(PID.TID 0000.0001)    90 @  4.447098934081552E+05              /* I =  1: 90 */
(PID.TID 0000.0001)     ;
(PID.TID 0000.0001) dyU =  /* dyU(1,:,1,:) ( units: m ) */
(PID.TID 0000.0001)    40 @  4.447098934081552E+05              /* J =  1: 40 */
(PID.TID 0000.0001)     ;
(PID.TID 0000.0001) rA  =  /* rA (:,1,:,1) ( units: m^2 ) */
(PID.TID 0000.0001)    90 @  4.110969866729047E+10              /* I =  1: 90 */
(PID.TID 0000.0001)     ;
(PID.TID 0000.0001) rA  =  /* rA (1,:,1,:) ( units: m^2 ) */
(PID.TID 0000.0001)                 4.110969866729047E+10,      /* J =  1 */
(PID.TID 0000.0001)                 5.450087291636665E+10,      /* J =  2 */
(PID.TID 0000.0001)                 6.762652439100235E+10,      /* J =  3 */
(PID.TID 0000.0001)                 8.042270623659998E+10,      /* J =  4 */
(PID.TID 0000.0001)                 9.282707674147523E+10,      /* J =  5 */
(PID.TID 0000.0001)                 1.047792030594103E+11,      /* J =  6 */
(PID.TID 0000.0001)                 1.162208556324093E+11,      /* J =  7 */
(PID.TID 0000.0001)                 1.270962918792468E+11,      /* J =  8 */
(PID.TID 0000.0001)                 1.373525277677229E+11,      /* J =  9 */
(PID.TID 0000.0001)                 1.469395959475426E+11,      /* J = 10 */
(PID.TID 0000.0001)                 1.558107891862220E+11,      /* J = 11 */
(PID.TID 0000.0001)                 1.639228879220326E+11,      /* J = 12 */
(PID.TID 0000.0001)                 1.712363708253573E+11,      /* J = 13 */
(PID.TID 0000.0001)                 1.777156073426415E+11,      /* J = 14 */
(PID.TID 0000.0001)                 1.833290312848623E+11,      /* J = 15 */
(PID.TID 0000.0001)                 1.880492946148330E+11,      /* J = 16 */
(PID.TID 0000.0001)                 1.918534006840893E+11,      /* J = 17 */
(PID.TID 0000.0001)                 1.947228162702492E+11,      /* J = 18 */
(PID.TID 0000.0001)                 1.966435618690094E+11,      /* J = 19 */
(PID.TID 0000.0001)     2 @  1.976062798008856E+11,             /* J = 20: 21 */
(PID.TID 0000.0001)                 1.966435618690094E+11,      /* J = 22 */
(PID.TID 0000.0001)                 1.947228162702492E+11,      /* J = 23 */
(PID.TID 0000.0001)                 1.918534006840893E+11,      /* J = 24 */
(PID.TID 0000.0001)                 1.880492946148330E+11,      /* J = 25 */
(PID.TID 0000.0001)                 1.833290312848623E+11,      /* J = 26 */
(PID.TID 0000.0001)                 1.777156073426415E+11,      /* J = 27 */
(PID.TID 0000.0001)                 1.712363708253573E+11,      /* J = 28 */
(PID.TID 0000.0001)                 1.639228879220326E+11,      /* J = 29 */
(PID.TID 0000.0001)                 1.558107891862220E+11,      /* J = 30 */
(PID.TID 0000.0001)                 1.469395959475426E+11,      /* J = 31 */
(PID.TID 0000.0001)                 1.373525277677229E+11,      /* J = 32 */
(PID.TID 0000.0001)                 1.270962918792468E+11,      /* J = 33 */
(PID.TID 0000.0001)                 1.162208556324093E+11,      /* J = 34 */
(PID.TID 0000.0001)                 1.047792030594103E+11,      /* J = 35 */
(PID.TID 0000.0001)                 9.282707674147523E+10,      /* J = 36 */
(PID.TID 0000.0001)                 8.042270623659998E+10,      /* J = 37 */
(PID.TID 0000.0001)                 6.762652439100235E+10,      /* J = 38 */
(PID.TID 0000.0001)                 5.450087291636665E+10,      /* J = 39 */
(PID.TID 0000.0001)                 4.110969866729047E+10       /* J = 40 */
(PID.TID 0000.0001)     ;
(PID.TID 0000.0001) rAw =  /* rAw(:,1,:,1) ( units: m^2 ) */
(PID.TID 0000.0001)    90 @  4.110969866729047E+10              /* I =  1: 90 */
(PID.TID 0000.0001)     ;
(PID.TID 0000.0001) rAw =  /* rAw(1,:,1,:) ( units: m^2 ) */
(PID.TID 0000.0001)                 4.110969866729047E+10,      /* J =  1 */
(PID.TID 0000.0001)                 5.450087291636665E+10,      /* J =  2 */
(PID.TID 0000.0001)                 6.762652439100235E+10,      /* J =  3 */
(PID.TID 0000.0001)                 8.042270623659998E+10,      /* J =  4 */
(PID.TID 0000.0001)                 9.282707674147523E+10,      /* J =  5 */
(PID.TID 0000.0001)                 1.047792030594103E+11,      /* J =  6 */
(PID.TID 0000.0001)                 1.162208556324093E+11,      /* J =  7 */
(PID.TID 0000.0001)                 1.270962918792468E+11,      /* J =  8 */
(PID.TID 0000.0001)                 1.373525277677229E+11,      /* J =  9 */
(PID.TID 0000.0001)                 1.469395959475426E+11,      /* J = 10 */
(PID.TID 0000.0001)                 1.558107891862220E+11,      /* J = 11 */
(PID.TID 0000.0001)                 1.639228879220326E+11,      /* J = 12 */
(PID.TID 0000.0001)                 1.712363708253573E+11,      /* J = 13 */
(PID.TID 0000.0001)                 1.777156073426415E+11,      /* J = 14 */
(PID.TID 0000.0001)                 1.833290312848623E+11,      /* J = 15 */
(PID.TID 0000.0001)                 1.880492946148330E+11,      /* J = 16 */
(PID.TID 0000.0001)                 1.918534006840893E+11,      /* J = 17 */
(PID.TID 0000.0001)                 1.947228162702492E+11,      /* J = 18 */
(PID.TID 0000.0001)                 1.966435618690094E+11,      /* J = 19 */
(PID.TID 0000.0001)     2 @  1.976062798008856E+11,             /* J = 20: 21 */
(PID.TID 0000.0001)                 1.966435618690094E+11,      /* J = 22 */
(PID.TID 0000.0001)                 1.947228162702492E+11,      /* J = 23 */
(PID.TID 0000.0001)                 1.918534006840893E+11,      /* J = 24 */
(PID.TID 0000.0001)                 1.880492946148330E+11,      /* J = 25 */
(PID.TID 0000.0001)                 1.833290312848623E+11,      /* J = 26 */
(PID.TID 0000.0001)                 1.777156073426415E+11,      /* J = 27 */
(PID.TID 0000.0001)                 1.712363708253573E+11,      /* J = 28 */
(PID.TID 0000.0001)                 1.639228879220326E+11,      /* J = 29 */
(PID.TID 0000.0001)                 1.558107891862220E+11,      /* J = 30 */
(PID.TID 0000.0001)                 1.469395959475426E+11,      /* J = 31 */
(PID.TID 0000.0001)                 1.373525277677229E+11,      /* J = 32 */
(PID.TID 0000.0001)                 1.270962918792468E+11,      /* J = 33 */
(PID.TID 0000.0001)                 1.162208556324093E+11,      /* J = 34 */
(PID.TID 0000.0001)                 1.047792030594103E+11,      /* J = 35 */
(PID.TID 0000.0001)                 9.282707674147523E+10,      /* J = 36 */
(PID.TID 0000.0001)                 8.042270623659998E+10,      /* J = 37 */
(PID.TID 0000.0001)                 6.762652439100235E+10,      /* J = 38 */
(PID.TID 0000.0001)                 5.450087291636665E+10,      /* J = 39 */
(PID.TID 0000.0001)                 4.110969866729047E+10       /* J = 40 */
(PID.TID 0000.0001)     ;
(PID.TID 0000.0001) rAs =  /* rAs(:,1,:,1) ( units: m^2 ) */
(PID.TID 0000.0001)    90 @  3.433488626798250E+10              /* I =  1: 90 */
(PID.TID 0000.0001)     ;
(PID.TID 0000.0001) rAs =  /* rAs(1,:,1,:) ( units: m^2 ) */
(PID.TID 0000.0001)                 3.433488626798250E+10,      /* J =  1 */
(PID.TID 0000.0001)                 4.783442523123625E+10,      /* J =  2 */
(PID.TID 0000.0001)                 6.110091968306414E+10,      /* J =  3 */
(PID.TID 0000.0001)                 7.406973659603818E+10,      /* J =  4 */
(PID.TID 0000.0001)                 8.667769319778079E+10,      /* J =  5 */
(PID.TID 0000.0001)                 9.886336479107463E+10,      /* J =  6 */
(PID.TID 0000.0001)                 1.105673840088173E+11,      /* J =  7 */
(PID.TID 0000.0001)                 1.217327300458638E+11,      /* J =  8 */
(PID.TID 0000.0001)                 1.323050064586578E+11,      /* J =  9 */
(PID.TID 0000.0001)                 1.422327061792377E+11,      /* J = 10 */
(PID.TID 0000.0001)                 1.514674624524945E+11,      /* J = 11 */
(PID.TID 0000.0001)                 1.599642844741385E+11,      /* J = 12 */
(PID.TID 0000.0001)                 1.676817765813788E+11,      /* J = 13 */
(PID.TID 0000.0001)                 1.745823399284268E+11,      /* J = 14 */
(PID.TID 0000.0001)                 1.806323556642996E+11,      /* J = 15 */
(PID.TID 0000.0001)                 1.858023487204767E+11,      /* J = 16 */
(PID.TID 0000.0001)                 1.900671314104743E+11,      /* J = 17 */
(PID.TID 0000.0001)                 1.934059261417216E+11,      /* J = 18 */
(PID.TID 0000.0001)                 1.958024666419019E+11,      /* J = 19 */
(PID.TID 0000.0001)                 1.972450772065981E+11,      /* J = 20 */
(PID.TID 0000.0001)                 1.977267295821495E+11,      /* J = 21 */
(PID.TID 0000.0001)                 1.972450772065981E+11,      /* J = 22 */
(PID.TID 0000.0001)                 1.958024666419019E+11,      /* J = 23 */
(PID.TID 0000.0001)                 1.934059261417216E+11,      /* J = 24 */
(PID.TID 0000.0001)                 1.900671314104743E+11,      /* J = 25 */
(PID.TID 0000.0001)                 1.858023487204767E+11,      /* J = 26 */
(PID.TID 0000.0001)                 1.806323556642996E+11,      /* J = 27 */
(PID.TID 0000.0001)                 1.745823399284268E+11,      /* J = 28 */
(PID.TID 0000.0001)                 1.676817765813788E+11,      /* J = 29 */
(PID.TID 0000.0001)                 1.599642844741385E+11,      /* J = 30 */
(PID.TID 0000.0001)                 1.514674624524945E+11,      /* J = 31 */
(PID.TID 0000.0001)                 1.422327061792377E+11,      /* J = 32 */
(PID.TID 0000.0001)                 1.323050064586578E+11,      /* J = 33 */
(PID.TID 0000.0001)                 1.217327300458638E+11,      /* J = 34 */
(PID.TID 0000.0001)                 1.105673840088173E+11,      /* J = 35 */
(PID.TID 0000.0001)                 9.886336479107463E+10,      /* J = 36 */
(PID.TID 0000.0001)                 8.667769319778079E+10,      /* J = 37 */
(PID.TID 0000.0001)                 7.406973659603818E+10,      /* J = 38 */
(PID.TID 0000.0001)                 6.110091968306414E+10,      /* J = 39 */
(PID.TID 0000.0001)                 4.783442523123625E+10       /* J = 40 */
(PID.TID 0000.0001)     ;
(PID.TID 0000.0001) globalArea = /* Integrated horizontal Area (m^2) */
(PID.TID 0000.0001)                 3.450614146649838E+14
(PID.TID 0000.0001)     ;
(PID.TID 0000.0001) // =======================================================
(PID.TID 0000.0001) // End of Model config. summary
(PID.TID 0000.0001) // =======================================================
(PID.TID 0000.0001) 
(PID.TID 0000.0001) == Packages configuration : Check & print summary ==
(PID.TID 0000.0001) 
(PID.TID 0000.0001) GAD_CHECK: #define ALLOW_GENERIC_ADVDIFF
(PID.TID 0000.0001) GMREDI_CHECK: #define GMREDI
(PID.TID 0000.0001) GM_AdvForm =  /* if FALSE => use SkewFlux Form */
(PID.TID 0000.0001)                   T
(PID.TID 0000.0001)     ;
(PID.TID 0000.0001) GM_AdvSeparate = /* Calc Bolus & Euler Adv. separately */
(PID.TID 0000.0001)                   F
(PID.TID 0000.0001)     ;
(PID.TID 0000.0001) GM_ExtraDiag =  /* Tensor Extra Diag (line 1&2) non 0 */
(PID.TID 0000.0001)                   T
(PID.TID 0000.0001)     ;
(PID.TID 0000.0001) GM_isopycK =   /* Background Isopyc. Diffusivity ( m^2/s ) */
(PID.TID 0000.0001)                 1.100000000000000E+03
(PID.TID 0000.0001)     ;
(PID.TID 0000.0001)  GM_skewflx*K =   /* Background GM_SkewFlx Diffusivity ( m^2/s ) */
(PID.TID 0000.0001)                 0.000000000000000E+00
(PID.TID 0000.0001)     ;
(PID.TID 0000.0001)  GM_advec*K =   /* Backg. GM-Advec(=Bolus) Diffusivity ( m^2/s ) */
(PID.TID 0000.0001)                 9.000000000000000E+02
(PID.TID 0000.0001)     ;
(PID.TID 0000.0001)  GM_Visbeck_alpha =   /* Visbeck alpha coeff. ( ) */
(PID.TID 0000.0001)                 0.000000000000000E+00
(PID.TID 0000.0001)     ;
(PID.TID 0000.0001)  Tapering/Cliping : dm95
(PID.TID 0000.0001)  GM_Small_Number =  /* epsilon used in slope calc */
(PID.TID 0000.0001)                 9.999999999999999E-21
(PID.TID 0000.0001)     ;
(PID.TID 0000.0001)  GM_slopeSqCutoff =  /* Slope^2 cut-off value */
(PID.TID 0000.0001)                 1.000000000000000E+08
(PID.TID 0000.0001)     ;
(PID.TID 0000.0001) CTRL_CHECK: ctrl package
(PID.TID 0000.0001) COST_CHECK: cost package
(PID.TID 0000.0001) CTRL_CHECK: ctrl package
(PID.TID 0000.0001) // =======================================================
(PID.TID 0000.0001) // CONFIG_CHECK : Normal End
(PID.TID 0000.0001) // =======================================================
(PID.TID 0000.0001) 
(PID.TID 0000.0001)  MDS_READ_FIELD: opening global file: bathymetry.bin
(PID.TID 0000.0001) // =======================================================
(PID.TID 0000.0001) // Field Model R_low (ini_masks_etc) at iteration          1
(PID.TID 0000.0001) // CMIN =         -5.200000000000000E+03
(PID.TID 0000.0001) // CMAX =         -1.200000000000000E+02
(PID.TID 0000.0001) // CINT =          1.881481481481482E+02
(PID.TID 0000.0001) // SYMBOLS (CMIN->CMAX): -abcdefghijklmnopqrstuvwxyz+
(PID.TID 0000.0001) //                  0.0: .
(PID.TID 0000.0001) // RANGE I (Lo:Hi:Step):(  -2:  93:   1)
(PID.TID 0000.0001) // RANGE J (Lo:Hi:Step):(  43:  -2:  -1)
(PID.TID 0000.0001) // RANGE K (Lo:Hi:Step):(   1:   1:   1)
(PID.TID 0000.0001) // =======================================================
(PID.TID 0000.0001) K =   1
(PID.TID 0000.0001) //                I=7       I=17      I=27      I=37      I=47      I=57      I=67      I=77      I=87
(PID.TID 0000.0001) // |--J--|210123456|890123456|890123456|890123456|890123456|890123456|890123456|890123456|890123456|890123
(PID.TID 0000.0001) //     43 ................................................................................................
(PID.TID 0000.0001) //     42 .............................................zyxxmgfeeefefgimnpwwwy..+zyy.....yyyyoiiihhz+......
(PID.TID 0000.0001) //     41 ................................................................................................
(PID.TID 0000.0001) //     40 +qlloqz+.++++zzz++++++..................................................................+++qlloq
(PID.TID 0000.0001) //     39 uslloorzzzzzzzzz+...++.....................................................yxxz........+zvuslloo
(PID.TID 0000.0001) //     38 smqpporzzzzzz+++...........................................................zxxy+......zyyvsmqppo
(PID.TID 0000.0001) //     37 smmmuz..................................................................++...zy+...yttyy.+smmmuz
(PID.TID 0000.0001) //     36 yutt+.........................................mm++....................+++++++znmm.yoowssvuyutt+.
(PID.TID 0000.0001) //     35 w++++.................................+zzz..rrmmkk+...+gghn...........+++....+nmiijlsoopuww++++.
(PID.TID 0000.0001) //     34 +.....................................+vvy.ggqyxv+y.ccdffhim..................+nihhikkihhm+.....
(PID.TID 0000.0001) //     33 w+.....................................uuz---h------aaabdefin+.................zqvddflifffw+....
(PID.TID 0000.0001) //     32 m+.....................................+t----h---------acdfgnn................+++gdffkofffm+....
(PID.TID 0000.0001) //     31 m......................................-----ad--------abddegil..............qbaafccdhqqgddm.....
(PID.TID 0000.0001) //     30 i.....................................f----b--b------------abd............zfbb--fbcdosjfddi.....
(PID.TID 0000.0001) //     29 i...................................tu----e---fjg----------abdf...........eaac--abfmijaadgi.....
(PID.TID 0000.0001) //     28 z.................................+xfl-------------------bdedefi.........qbaa---aemfbbaaejz.....
(PID.TID 0000.0001) //     27 .................xx..............+wfgfpf--------eallc---bbbccefgi...+++x.qb-----akfa---ah.......
(PID.TID 0000.0001) //     26 .................xnn...........+vd---dna------a--aicfna---aabdfghku.++xssuy-----bgca---ci.......
(PID.TID 0000.0001) //     25 .................iiik...oo+...+ivd---doaa-bc--ilglf--aa---aabcghhkll...ssum+xaaacjbaabdjk.......
(PID.TID 0000.0001) //     24 ...............xnheeft.kkk+...uii.aagdm----aa-----a-------bbbcdefjljjju.zummwwbbchba--abi.......
(PID.TID 0000.0001) //     23 ...............xgheefp.iikw...uuw..fihi----fed-----eaaa--bbbbcdfflkjiiiq....zykccefa--abd.......
(PID.TID 0000.0001) //     22 quss...........bbelffslffkk...zz.wqkeeqoheccdfa-----egabaabcdddegghliiiqq......xeeehheehccquss..
(PID.TID 0000.0001) //     21 cbbeir........nbbcdjhqdddiiz.....wqfeelgghmedea-----bibbcddddddefghklnqoo........ieeflhgcccbbeir
(PID.TID 0000.0001) //     20 cbbder.......ldcccdgkccccidd......z.vkkktqqhegg----aaacddddddddefghkiiijl.........nhfa--gfcbbder
(PID.TID 0000.0001) //     19 hcdaaf.......kddosggpaaaibbccx...+z+.....r+nlec---agaaabcddccddefikfgffff...........d---cjhcdaaf
(PID.TID 0000.0001) //     18 hd---d.......kglggvliaaaibbcaaeaiv++...qqzolhecccfdgkaabcdfccdeeikgfgffdd+..........d---djhd---d
(PID.TID 0000.0001) //     17 hc---c.......l.feewlfaaaoaa----aiv.....qqnllslmlofcdbaacceffffhhligfigeddj.........hd---ckhc---c
(PID.TID 0000.0001) //     16 gba--c......tn.ddgnlfdaaqa-----lv.......vnllvllnwv--accivomfffhilhgfffeddjf........re--aeigba--c
(PID.TID 0000.0001) //     15 fb--dpz....+ll.ccdfhmdddlc----av.........otsxoomv---abccddfihgijkhgfffeejfff......+fd---ckfb--dp
(PID.TID 0000.0001) //     14 fc--mcl....weeqbaafilkfend--eagy.........hhstofft----aacdheefijkmjhhjijiffff.....zlfdaaadlfc--mc
(PID.TID 0000.0001) //     13 hcclbbg....nccobaaiddgkffqrqeaal.........eeutqfft------aaceeffhijlkjhhigfffq....+jgfodccflhcclbb
(PID.TID 0000.0001) //     12 hhgaaacw+iiicclemhdddfliigfdcaabfaaaz....ccsurqpc--------abcifffikiiihhggff.....kbbbdfffglhhgaaa
(PID.TID 0000.0001) //     11 kgcaaacbbifccennhbbdefnihgfdccaaaa----..dcccnt.ncab-------aabcdfilhggjiggff....l---abcefjlkgcaaa
(PID.TID 0000.0001) //     10 kfcaaccbdaacfrllfbbdegkmmljhfdddba----d.dcccfx.nyrebaba----abcdgilhfeegijgi..+w--aa-abcfilkfcaac
(PID.TID 0000.0001) //      9 lffcdcccaaaoqsolfdeehikihhlllgfedcccccdmdcccf.vyfaaaaaaaa--abdehmjhfeeefglv.++w-----abcdfklffcdc
(PID.TID 0000.0001) //      8 liffjklcaafddffeeccvznkfffhhhlkjifgjkkfeeddfsyvcaaaaaaccdcccdfgjligedbbceg+.++xffn--cfddefliffjk
(PID.TID 0000.0001) //      7 hmqnnbbkkf--bmbaabbgtykfddeffeeddccdfhlffeelfbaaaaaacddeghgjgjlligeddaaabedfiiiiiisvkfkecchmqnnb
(PID.TID 0000.0001) //      6 cca-------------aabcelttdddedddddccccdfkkiiffbaaaabcdgimmkmefecaaabbbaaabbdfiiiiispmmregifcca---
(PID.TID 0000.0001) //      5 --------a-------aaccehhhiddeddddddcccdfiikomodddefffmlmigedccaaaaaaaababbbdfiijsqgeccccbaa------
(PID.TID 0000.0001) //      4 --ahebaabbbbbeihffgijiiiijpywnnpokkomkiiijmmmolkommmgffeeedccaaaaaabbcccefhmz..yjgeccccbaa--aheb
(PID.TID 0000.0001) //      3 gffhhrpjiiwyy............................yxotmjjjjgfeeeeeeddeffffheddeghjkyy..yqjgeddccdbbgffhhr
(PID.TID 0000.0001) //      2 .............................................zyxxmgfeeefefgimnpwwwy..+zyy.....yyyyoiiihhz+......
(PID.TID 0000.0001) //      1 ................................................................................................
(PID.TID 0000.0001) //      0 +qlloqz+.++++zzz++++++..................................................................+++qlloq
(PID.TID 0000.0001) //     -1 uslloorzzzzzzzzz+...++.....................................................yxxz........+zvuslloo
(PID.TID 0000.0001) //     -2 ................................................................................................
(PID.TID 0000.0001) // =======================================================
(PID.TID 0000.0001) // END OF FIELD                                          =
(PID.TID 0000.0001) // =======================================================
(PID.TID 0000.0001) 
(PID.TID 0000.0001) // =======================================================
(PID.TID 0000.0001) // Field Model Ro_surf (ini_masks_etc) at iteration          1
(PID.TID 0000.0001) // CMIN =          1.000000000000000E+32
(PID.TID 0000.0001) // CMAX =         -1.000000000000000E+32
(PID.TID 0000.0001) // CINT =          0.000000000000000E+00
(PID.TID 0000.0001) // SYMBOLS (CMIN->CMAX): -abcdefghijklmnopqrstuvwxyz+
(PID.TID 0000.0001) //                  0.0: .
(PID.TID 0000.0001) // RANGE I (Lo:Hi:Step):(  -2:  93:   1)
(PID.TID 0000.0001) // RANGE J (Lo:Hi:Step):(  43:  -2:  -1)
(PID.TID 0000.0001) // RANGE K (Lo:Hi:Step):(   1:   1:   1)
(PID.TID 0000.0001) // =======================================================
(PID.TID 0000.0001) // =======================================================
(PID.TID 0000.0001) // END OF FIELD                                          =
(PID.TID 0000.0001) // =======================================================
(PID.TID 0000.0001) 
(PID.TID 0000.0001) // =======================================================
(PID.TID 0000.0001) // Field hFacC at iteration          1
(PID.TID 0000.0001) // CMIN =          1.000000000000000E+00
(PID.TID 0000.0001) // CMAX =          1.000000000000000E+00
(PID.TID 0000.0001) // CINT =          0.000000000000000E+00
(PID.TID 0000.0001) // SYMBOLS (CMIN->CMAX): -abcdefghijklmnopqrstuvwxyz+
(PID.TID 0000.0001) //                  0.0: .
(PID.TID 0000.0001) // RANGE I (Lo:Hi:Step):(  -2:  93:   1)
(PID.TID 0000.0001) // RANGE J (Lo:Hi:Step):(  43:  -2:  -1)
(PID.TID 0000.0001) // RANGE K (Lo:Hi:Step):(   1:   1:   1)
(PID.TID 0000.0001) // =======================================================
(PID.TID 0000.0001) // =======================================================
(PID.TID 0000.0001) // END OF FIELD                                          =
(PID.TID 0000.0001) // =======================================================
(PID.TID 0000.0001) 
(PID.TID 0000.0001) // =======================================================
(PID.TID 0000.0001) // Field hFacW at iteration          1
(PID.TID 0000.0001) // CMIN =          1.000000000000000E+00
(PID.TID 0000.0001) // CMAX =          1.000000000000000E+00
(PID.TID 0000.0001) // CINT =          0.000000000000000E+00
(PID.TID 0000.0001) // SYMBOLS (CMIN->CMAX): -abcdefghijklmnopqrstuvwxyz+
(PID.TID 0000.0001) //                  0.0: .
(PID.TID 0000.0001) // RANGE I (Lo:Hi:Step):(  -2:  93:   1)
(PID.TID 0000.0001) // RANGE J (Lo:Hi:Step):(  43:  -2:  -1)
(PID.TID 0000.0001) // RANGE K (Lo:Hi:Step):(   1:   1:   1)
(PID.TID 0000.0001) // =======================================================
(PID.TID 0000.0001) // =======================================================
(PID.TID 0000.0001) // END OF FIELD                                          =
(PID.TID 0000.0001) // =======================================================
(PID.TID 0000.0001) 
(PID.TID 0000.0001) // =======================================================
(PID.TID 0000.0001) // Field hFacS at iteration          1
(PID.TID 0000.0001) // CMIN =          1.000000000000000E+00
(PID.TID 0000.0001) // CMAX =          1.000000000000000E+00
(PID.TID 0000.0001) // CINT =          0.000000000000000E+00
(PID.TID 0000.0001) // SYMBOLS (CMIN->CMAX): -abcdefghijklmnopqrstuvwxyz+
(PID.TID 0000.0001) //                  0.0: .
(PID.TID 0000.0001) // RANGE I (Lo:Hi:Step):(  -2:  93:   1)
(PID.TID 0000.0001) // RANGE J (Lo:Hi:Step):(  43:  -2:  -1)
(PID.TID 0000.0001) // RANGE K (Lo:Hi:Step):(   1:   1:   1)
(PID.TID 0000.0001) // =======================================================
(PID.TID 0000.0001) // =======================================================
(PID.TID 0000.0001) // END OF FIELD                                          =
(PID.TID 0000.0001) // =======================================================
(PID.TID 0000.0001) 
(PID.TID 0000.0001) %MON fCori_max                    =   1.4226580169407E-04
(PID.TID 0000.0001) %MON fCori_min                    =  -1.4226580169407E-04
(PID.TID 0000.0001) %MON fCori_mean                   =   7.5291817533716E-23
(PID.TID 0000.0001) %MON fCori_sd                     =   9.6335367303778E-05
(PID.TID 0000.0001) %MON fCoriG_max                   =   1.4112379284621E-04
(PID.TID 0000.0001) %MON fCoriG_min                   =  -1.4323448157692E-04
(PID.TID 0000.0001) %MON fCoriG_mean                  =  -3.5808620394229E-06
(PID.TID 0000.0001) %MON fCoriG_sd                    =   9.6285194120965E-05
(PID.TID 0000.0001) %MON fCoriCos_max                 =   1.4535550371427E-04
(PID.TID 0000.0001) %MON fCoriCos_min                 =   3.0239529651320E-05
(PID.TID 0000.0001) %MON fCoriCos_mean                =   1.0260497651149E-04
(PID.TID 0000.0001) %MON fCoriCos_sd                  =   3.6683828681187E-05
(PID.TID 0000.0001) INI_CG2D: CG2D normalisation factor =  6.5682677425711703E-05
(PID.TID 0000.0001) 
(PID.TID 0000.0001)  MDS_READ_FIELD: opening global file: lev_t.bin
(PID.TID 0000.0001) // =======================================================
(PID.TID 0000.0001) // Field Initial Temperature at iteration          1
(PID.TID 0000.0001) // CMIN =         -1.900000000000000E+00
(PID.TID 0000.0001) // CMAX =          2.973338890075684E+01
(PID.TID 0000.0001) // CINT =          1.171606996324327E+00
(PID.TID 0000.0001) // SYMBOLS (CMIN->CMAX): -abcdefghijklmnopqrstuvwxyz+
(PID.TID 0000.0001) //                  0.0: .
(PID.TID 0000.0001) // RANGE I (Lo:Hi:Step):(   1:  90:   1)
(PID.TID 0000.0001) // RANGE J (Lo:Hi:Step):(  40:   1:  -1)
(PID.TID 0000.0001) // RANGE K (Lo:Hi:Step):(   1:   1:   1)
(PID.TID 0000.0001) // =======================================================
(PID.TID 0000.0001) K =   1
(PID.TID 0000.0001)                I=10      I=20      I=30      I=40      I=50      I=60      I=70      I=80      I=90
(PID.TID 0000.0001) |--J--|123456789|123456789|123456789|123456789|123456789|123456789|123456789|123456789|123456789|
(PID.TID 0000.0001)     40 bccdd.baa----abdedd..................................................................bbbbb
(PID.TID 0000.0001)     39 ccdddddccbbbaa...ed.....................................................----........bbbbbb
(PID.TID 0000.0001)     38 fffgfedeedddc...........................................................-----......cbbbcde
(PID.TID 0000.0001)     37 ghh..................................................................bc...bbc...edeed.defg
(PID.TID 0000.0001)     36 hh.........................................ddcb....................dcccbabccdd.eefghhihhih
(PID.TID 0000.0001)     35 hh.................................aaab..dddeddd...ffggg...........ccc....ddeeeffghijjjjih
(PID.TID 0000.0001)     34 ...................................babb.deeeeeee.ffffgghh..................ccdffghijkkkj..
(PID.TID 0000.0001)     33 ....................................accdddeeeeefffffgghhiii.................bcfijkkllllkk.
(PID.TID 0000.0001)     32 ....................................bdddeffgffgghhhhhiiijjj................dccglmnmmmmlll.
(PID.TID 0000.0001)     31 ....................................fghiiiijjjjjjkkkkklllkk..............ikkjjmooooonnmm..
(PID.TID 0000.0001)     30 ...................................mmmnmmmmmmmmmmmmmnnnnnmm............moqrrrqrqqqpppooo..
(PID.TID 0000.0001)     29 .................................pqqqqqpppppppppoppoppppponm...........ssssssrrrrrqqqqpp..
(PID.TID 0000.0001)     28 ...............................prssssrrrsssrrrrrrrrrrrrrqqpoo.........uttssstssrssrrrqqq..
(PID.TID 0000.0001)     27 ..............vv..............stuttuuuuutuuuuuuuuuuttttssrrqqq...stuu.vvvuuuuutttttsss....
(PID.TID 0000.0001)     26 ..............vvv...........uuvvvvvwwwwwwwwvvvvvvvvvuuutttsssttv.uuvxxwwwwwwvvvvuuttsr....
(PID.TID 0000.0001)     25 ..............wwwx...xxx...vvvxxxxxyyxxxxxxxxxwwwwwvvvvvuuuuuvwwx...xxxxxxwwwwwwvvutsr....
(PID.TID 0000.0001)     24 ............wwwwxyy.xxyy...wxx.yyyyyyyyyyyxxxxxxxxwwwwwwwvvwwxxyywww.xxxxxxxxxxwwwvvur....
(PID.TID 0000.0001)     23 ............xxxyyyz.xyyy...xxx..yyyyzzyyyyyyyyxxxxxxxxxwwwwwxxxwwwwwx....vwxxxxwwwwwvu....
(PID.TID 0000.0001)     22 w...........xxyyyzyyyyyz...xx.yyzzzzzzzzzzzzzyyzyyyyyyxxwwxxxxwvvvwwxw......yyyyxxxxxxwxxw
(PID.TID 0000.0001)     21 xxx........xxxxyyzzzzzzz+.....zyzzzzzzz++zzzzyyyyyyyyxxwvvwwwwvvvvvvvu........yyyyyyyyyxxx
(PID.TID 0000.0001)     20 xww.......xyyyyxyyzzzzzz+......z.zzzzz+++zzzzzzyyyyyxxxxwvwxwvuuuuuuut.........yyyyxxxxwww
(PID.TID 0000.0001)     19 vvv.......yyyyxwwxyzyyzzzzz...zzz.....++++++z++z+zzzyyyyxxxxwwvvvvvvvu...........yyxxxwwww
(PID.TID 0000.0001)     18 uut.......zzyyywwxyzyyyyzzyzzzzzz...z+z++++zz+++++++zzzyyyyxxwwwvvvvvtt..........yyxxwvvwv
(PID.TID 0000.0001)     17 uus.......z.yyyyyyxyzzyyyyyyyzz.....yzzzzzzzzzzzzzzzzzzyyyyxxwwvuuvvuut.........yyyxxwttvu
(PID.TID 0000.0001)     16 utr......yy.zyyyyxxxxxxxwxxxxy.......yyyyyyyyyyyyyyyyyyyyyyyxxwvvvuuutts........xyyyxwvuuu
(PID.TID 0000.0001)     15 ttrr....xxx.xxxwxwwwwvwwvvvww.........xwxxxxxxxxxxxxxxxxxyyyxwwwvvuttssrr......wxxxxxwwvuu
(PID.TID 0000.0001)     14 ttsq....xyxwwxwvwwwvutuuuuuuu.........wwvwwwwvwvvwwwvwvvwwwwwwvvvuuutssrr.....vwwwwwwwvvvu
(PID.TID 0000.0001)     13 tttr....wwwvvvtttuuuutttssttt.........vvvuuuuuuutttttuuuuuvwwwuuuttttssrr....uvvvvvvvvvvut
(PID.TID 0000.0001)     12 sssssstttutssssrrrrrstrqqrrssqqrrq....uuttssssrrrrrrrrrrrstttssssrssrrqp.....uuuttssttssss
(PID.TID 0000.0001)     11 poprsssrqqqqqrqppooopqpoppppppppppp..sssrrr.rqpppqqqqppppqqqoppqqqqrqqpp....prsrqqqqqppppq
(PID.TID 0000.0001)     10 lllmoooonmnnmnnnnmmmmmmlmmlllmnnnnon.qqqppp.ppppppooooooooonmnnnonnooooo..nmoponnmnnnnnmll
(PID.TID 0000.0001)      9 ihhiiiihhhhhhiiihiiiiihhhiiiijjkkmnllnnnnn.mmmmnnnnmmmmnnmmlklllllklllll.mllmmllkjiijjihhi
(PID.TID 0000.0001)      8 eeeeeeeedefgggffeeffggffffggghiiiijjijklklkkkkkkkklllkkkkjjiiijkjjjjjjkj.kkjjiihggffffedde
(PID.TID 0000.0001)      7 cccccddeedddefeddddddddddefeefffffgggghiiiiiijjjihhgggghhhhhghhhhhhhiiiihiihhgfeddddddcccc
(PID.TID 0000.0001)      6 abbcccddcccccdddddccdddddddccddddddeeeeffggggghhgeddddddeeeeeeefggggghggggffeedccbbbbbbbba
(PID.TID 0000.0001)      5 bbbcccccccccccccccccccccbbccccdddddddcccddeeddeedcbbbbbbccccccdddeeeeeddddddccbbbbaaaaaaab
(PID.TID 0000.0001)      4 bbbbbbbaaabbbbbbbbbbbbaabbabbbbcbbbbbbbbbbbbbbbbbbbabbaaabbbbbbbbbbbbbbbbb..a--aaabbbaaabb
(PID.TID 0000.0001)      3 bbbbaaa-a-............................bbaaaaaaaaaaaaaaaaaaaaaaaaaaaaaaaab..aaaaaaaabbbaaaa
(PID.TID 0000.0001)      2 ..........................................baaaaaaaaaaaa-------aa..aaaa.....aaaaaaaaaaaa...
(PID.TID 0000.0001)      1 ..........................................................................................
(PID.TID 0000.0001) // =======================================================
(PID.TID 0000.0001) // END OF FIELD                                          =
(PID.TID 0000.0001) // =======================================================
(PID.TID 0000.0001) 
(PID.TID 0000.0001)  MDS_READ_FIELD: opening global file: lev_s.bin
(PID.TID 0000.0001) // =======================================================
(PID.TID 0000.0001) // Field Initial Salinity at iteration          1
(PID.TID 0000.0001) // CMIN =          2.975276947021484E+01
(PID.TID 0000.0001) // CMAX =          3.747562789916992E+01
(PID.TID 0000.0001) // CINT =          2.860317936650029E-01
(PID.TID 0000.0001) // SYMBOLS (CMIN->CMAX): -abcdefghijklmnopqrstuvwxyz+
(PID.TID 0000.0001) //                  0.0: .
(PID.TID 0000.0001) // RANGE I (Lo:Hi:Step):(   1:  90:   1)
(PID.TID 0000.0001) // RANGE J (Lo:Hi:Step):(  40:   1:  -1)
(PID.TID 0000.0001) // RANGE K (Lo:Hi:Step):(   1:   1:   1)
(PID.TID 0000.0001) // =======================================================
(PID.TID 0000.0001) K =   1
(PID.TID 0000.0001)                I=10      I=20      I=30      I=40      I=50      I=60      I=70      I=80      I=90
(PID.TID 0000.0001) |--J--|123456789|123456789|123456789|123456789|123456789|123456789|123456789|123456789|123456789|
(PID.TID 0000.0001)     40 qrrrr.oonnooopqtutt..................................................................mnnop
(PID.TID 0000.0001)     39 rssrrrrrrrqqpn...ut.....................................................mmmm........opqqqr
(PID.TID 0000.0001)     38 ssrrqqqqrrqpo...........................................................lkkll......onoqrrs
(PID.TID 0000.0001)     37 ssr..................................................................hg...lln...qppqr.rrrs
(PID.TID 0000.0001)     36 rr.........................................lkji....................feeegikmoop.pqrssssssss
(PID.TID 0000.0001)     35 rr.................................kkkk..lllllki...jijjj...........aa-....opqrrrrrrrssttss
(PID.TID 0000.0001)     34 ...................................jlll.kklllllk.ijkkkjih..................hlpqrqrrsstts..
(PID.TID 0000.0001)     33 ....................................iklkkkkkkkkkjkkjjjjjjii.................jmprrsstttttt.
(PID.TID 0000.0001)     32 ....................................iklllkllllllllkkkkkkkji................gilpstuuttuuut.
(PID.TID 0000.0001)     31 ....................................lmnonnnnoooonnmmmmllkjj..............loopqtvvvuuuuuu..
(PID.TID 0000.0001)     30 ...................................pppppppqqqqpppoooonnmlkk............ptvxwwvvwvvvvvvvu..
(PID.TID 0000.0001)     29 .................................pqqrqqqqqqrrrqqppqqqpponmll...........vxxxxxxwwwwwxwwxw..
(PID.TID 0000.0001)     28 ...............................prrrrrqqrrrrrsrrsrssssssrqonmm.........wxxxxxxxyyyyyyyyxx..
(PID.TID 0000.0001)     27 ..............xx..............prrrrrrrrrssssssstttssssssrqpoop...uwww.wwxxxyyy++zzzzyy....
(PID.TID 0000.0001)     26 ..............wxx...........ppqrrrrrrsssrrstsstttssrrrrrrrqppqqp.wwwvvwwwwwxyy+++zzyxw....
(PID.TID 0000.0001)     25 ..............wxxv...kkk...ooopqrrrrrssrrrrrrrssssqqpppppppppppoo...vvutuuvvwxyyyxxvvu....
(PID.TID 0000.0001)     24 ............uvvwwur.lmlk...nmm.pqqqqrrrrrqqqqrrqqrpppppooooonmmmnooo.uuuuuuttuvvvuvuut....
(PID.TID 0000.0001)     23 ............vvuvtqp.lmml...mln..ppppqpqppppppqpppppppppqppponnnnnoopm....xvuuuvvvvuuut....
(PID.TID 0000.0001)     22 r...........vuttsqqpnppn...mm.oppqqrrqqqqqqppppqqrrrqqqrrppppoopooomjj......uuvvvvvuttssrr
(PID.TID 0000.0001)     21 qmm........ttsssssssrsqon.....opqqqqqqqrrrrqqqssssssrrrrrrrrpqqqppomll........tvvvvuttssrr
(PID.TID 0000.0001)     20 sqq.......sttssrrsrrrrpol......p.qrqpqrrrrrrrstttttsssrrsssrqrrrrqqqpo.........wwwvvvuuutt
(PID.TID 0000.0001)     19 tsr.......ssssrrrrpppppnmmm...oqq.....qrqqsrrstttuuuttssttssrrssrrrrqq...........wwwvuvvvv
(PID.TID 0000.0001)     18 wut.......ssrrrrrqppppppppoooorrr...poqqqprrrttttuuutuuuuuutttttttutsss..........yyxwwxwxx
(PID.TID 0000.0001)     17 wwu.......s.rrrrrrqppppqqqqqqqr.....rrsrqrsssuusrtuuuvvvwwvvvuuuuutttss.........xyzyyyyxxx
(PID.TID 0000.0001)     16 vvt......ss.qrrssrqrqpqrrrrrrr.......ssrrstsstusrsuuuvwwwwxxwwvvvuttttsr........yz+zzzxwww
(PID.TID 0000.0001)     15 utss....stt.rrssstttsrrsrstsr.........ssstttssttsuuttuvvvvwxwwwwwuttsssrr......xyyyyxyyxwv
(PID.TID 0000.0001)     14 utts....sstrrssstuuuuuuuuuutt.........stttuutttttttuttttttuvvvvvvutsrqrrr.....vxxwwwwxwvwv
(PID.TID 0000.0001)     13 uuut....ttttttttuuuuuvtuuuuuu.........ttttuutttttttuutsssstttttstsqrqqppp....uwwwvuvvvutvv
(PID.TID 0000.0001)     12 ttttttttttttttttttttttssuuuuutuuut....tttttttttttsssssrrrrrrrqqqqqppppoo.....rvvuuttttttuu
(PID.TID 0000.0001)     11 rqsttttttttuuttttsssssrrstttttttsss..ttttts.tsssrrrrqqqqqppppoonnooooooo....oruttttsssrqrs
(PID.TID 0000.0001)     10 pppqrssrqqrqpqrssrrqqqqqqrrrrrrrrrrs.sssssr.rssrrqqpppppppooooonnnoooonn..moqrrrqqqqqqqqqq
(PID.TID 0000.0001)      9 oonooooooooonnnooooooooooppppppqqqqqrrrqrq.pppqqqqqppppppppppoooooooooll.lmoqqqqppooooopoo
(PID.TID 0000.0001)      8 nnnoonooooooonnnnnnnoooonoonoooppopqqqqqqqppopppqqqpppppppppppppppooopon.lnopppoooonnnnooo
(PID.TID 0000.0001)      7 ooooooooooopponnnooooooonnnnnonnooooooooopppppppoooooooooopppppppppoopqnnmnoooonnnonnnnnno
(PID.TID 0000.0001)      6 oooonnoonnnnooooooooooooonnnnnnnnnnnnnnnnoooopppooooooooooooooppppppppppoooooooonnnnnmnnnn
(PID.TID 0000.0001)      5 oooonnnnnnnnnnnnnnnnnoooooonnnnnnonnnnnnnnnoooooooooooonnnnnnooooooopoooonoooonnnnnnnooooo
(PID.TID 0000.0001)      4 oooonnnooonnnnnnnnnnnnnnoooooonnnooooonnnooooooooppponnnnmmmnnnnmnnoonnnnn..nnnooooooooooo
(PID.TID 0000.0001)      3 ooonnnnnnn............................nnoooooonnooooonnnnnnnoonnnnnnnnmmm..ooopooooooooooo
(PID.TID 0000.0001)      2 ..........................................pppooooonnnnnnoooppppo..nnnn.....qqqpppoooooo...
(PID.TID 0000.0001)      1 ..........................................................................................
(PID.TID 0000.0001) // =======================================================
(PID.TID 0000.0001) // END OF FIELD                                          =
(PID.TID 0000.0001) // =======================================================
(PID.TID 0000.0001) 
(PID.TID 0000.0001) Start initial hydrostatic pressure computation
(PID.TID 0000.0001) Pressure is predetermined for buoyancyRelation OCEANIC
(PID.TID 0000.0001) 
(PID.TID 0000.0001)  MDS_READ_FIELD: opening global file: trenberth_taux.bin
(PID.TID 0000.0001)  MDS_READ_FIELD: opening global file: trenberth_tauy.bin
(PID.TID 0000.0001)  MDS_READ_FIELD: opening global file: ncep_qnet.bin
(PID.TID 0000.0001)  MDS_READ_FIELD: opening global file: lev_sst.bin
(PID.TID 0000.0001)  MDS_READ_FIELD: opening global file: lev_sss.bin
(PID.TID 0000.0001)  MDS_READ_FIELD: opening file: xx_theta.0000000000.001.001.data
(PID.TID 0000.0001)  MDS_READ_FIELD: opening file: xx_salt.0000000000.001.001.data
(PID.TID 0000.0001)  MDS_READ_FIELD: opening file: xx_diffkr.0000000000.001.001.data
(PID.TID 0000.0001)  MDS_READ_FIELD: opening file: xx_kapgm.0000000000.001.001.data
(PID.TID 0000.0001) // =======================================================
(PID.TID 0000.0001) // Begin MONITOR dynamic field statistics
(PID.TID 0000.0001) // =======================================================
(PID.TID 0000.0001) %MON time_tsnumber                =                     0
(PID.TID 0000.0001) %MON time_secondsf                =   0.0000000000000E+00
(PID.TID 0000.0001) %MON dynstat_eta_max              =   0.0000000000000E+00
(PID.TID 0000.0001) %MON dynstat_eta_min              =   0.0000000000000E+00
(PID.TID 0000.0001) %MON dynstat_eta_mean             =   0.0000000000000E+00
(PID.TID 0000.0001) %MON dynstat_eta_sd               =   0.0000000000000E+00
(PID.TID 0000.0001) %MON dynstat_eta_del2             =   0.0000000000000E+00
(PID.TID 0000.0001) %MON dynstat_uvel_max             =   0.0000000000000E+00
(PID.TID 0000.0001) %MON dynstat_uvel_min             =   0.0000000000000E+00
(PID.TID 0000.0001) %MON dynstat_uvel_mean            =   0.0000000000000E+00
(PID.TID 0000.0001) %MON dynstat_uvel_sd              =   0.0000000000000E+00
(PID.TID 0000.0001) %MON dynstat_uvel_del2            =   0.0000000000000E+00
(PID.TID 0000.0001) %MON dynstat_vvel_max             =   0.0000000000000E+00
(PID.TID 0000.0001) %MON dynstat_vvel_min             =   0.0000000000000E+00
(PID.TID 0000.0001) %MON dynstat_vvel_mean            =   0.0000000000000E+00
(PID.TID 0000.0001) %MON dynstat_vvel_sd              =   0.0000000000000E+00
(PID.TID 0000.0001) %MON dynstat_vvel_del2            =   0.0000000000000E+00
(PID.TID 0000.0001) %MON dynstat_wvel_max             =   0.0000000000000E+00
(PID.TID 0000.0001) %MON dynstat_wvel_min             =   0.0000000000000E+00
(PID.TID 0000.0001) %MON dynstat_wvel_mean            =   0.0000000000000E+00
(PID.TID 0000.0001) %MON dynstat_wvel_sd              =   0.0000000000000E+00
(PID.TID 0000.0001) %MON dynstat_wvel_del2            =   0.0000000000000E+00
(PID.TID 0000.0001) %MON dynstat_theta_max            =   2.9733388900757E+01
(PID.TID 0000.0001) %MON dynstat_theta_min            =  -1.9000000000000E+00
(PID.TID 0000.0001) %MON dynstat_theta_mean           =   3.6197074666129E+00
(PID.TID 0000.0001) %MON dynstat_theta_sd             =   4.4174614518568E+00
(PID.TID 0000.0001) %MON dynstat_theta_del2           =   1.5097301766230E-01
(PID.TID 0000.0001) %MON dynstat_salt_max             =   3.7475627899170E+01
(PID.TID 0000.0001) %MON dynstat_salt_min             =   2.9752769470215E+01
(PID.TID 0000.0001) %MON dynstat_salt_mean            =   3.4718006161475E+01
(PID.TID 0000.0001) %MON dynstat_salt_sd              =   2.9628819587990E-01
(PID.TID 0000.0001) %MON dynstat_salt_del2            =   2.6251884861846E-02
(PID.TID 0000.0001) %MON dynstat_sst_max              =   2.9733388900757E+01
(PID.TID 0000.0001) %MON dynstat_sst_min              =  -1.9000000000000E+00
(PID.TID 0000.0001) %MON dynstat_sst_mean             =   1.8484768169451E+01
(PID.TID 0000.0001) %MON dynstat_sst_sd               =   9.1795873467430E+00
(PID.TID 0000.0001) %MON dynstat_sst_del2             =   2.8475713994204E-01
(PID.TID 0000.0001) %MON dynstat_sss_max              =   3.7475627899170E+01
(PID.TID 0000.0001) %MON dynstat_sss_min              =   2.9752769470215E+01
(PID.TID 0000.0001) %MON dynstat_sss_mean             =   3.4849925275207E+01
(PID.TID 0000.0001) %MON dynstat_sss_sd               =   9.6344930396289E-01
(PID.TID 0000.0001) %MON dynstat_sss_del2             =   8.4229940575091E-02
(PID.TID 0000.0001) %MON extforcing_qnet_max          =   4.4161361694336E+02
(PID.TID 0000.0001) %MON extforcing_qnet_min          =  -1.8132531738281E+02
(PID.TID 0000.0001) %MON extforcing_qnet_mean         =  -1.6512526001044E+01
(PID.TID 0000.0001) %MON extforcing_qnet_sd           =   1.0987288293460E+02
(PID.TID 0000.0001) %MON extforcing_qnet_del2         =   9.6689454498868E+00
(PID.TID 0000.0001) %MON extforcing_qsw_max           =   0.0000000000000E+00
(PID.TID 0000.0001) %MON extforcing_qsw_min           =   0.0000000000000E+00
(PID.TID 0000.0001) %MON extforcing_qsw_mean          =   0.0000000000000E+00
(PID.TID 0000.0001) %MON extforcing_qsw_sd            =   0.0000000000000E+00
(PID.TID 0000.0001) %MON extforcing_qsw_del2          =   0.0000000000000E+00
(PID.TID 0000.0001) %MON extforcing_empmr_max         =   0.0000000000000E+00
(PID.TID 0000.0001) %MON extforcing_empmr_min         =   0.0000000000000E+00
(PID.TID 0000.0001) %MON extforcing_empmr_mean        =   0.0000000000000E+00
(PID.TID 0000.0001) %MON extforcing_empmr_sd          =   0.0000000000000E+00
(PID.TID 0000.0001) %MON extforcing_empmr_del2        =   0.0000000000000E+00
(PID.TID 0000.0001) %MON extforcing_fu_max            =   2.7877888083458E-01
(PID.TID 0000.0001) %MON extforcing_fu_min            =  -1.7088057100773E-01
(PID.TID 0000.0001) %MON extforcing_fu_mean           =   1.6001735152566E-02
(PID.TID 0000.0001) %MON extforcing_fu_sd             =   9.1062350670783E-02
(PID.TID 0000.0001) %MON extforcing_fu_del2           =   7.6925174727079E-03
(PID.TID 0000.0001) %MON extforcing_fv_max            =   2.3312132060528E-01
(PID.TID 0000.0001) %MON extforcing_fv_min            =  -1.7813690006733E-01
(PID.TID 0000.0001) %MON extforcing_fv_mean           =  -5.2588977395051E-03
(PID.TID 0000.0001) %MON extforcing_fv_sd             =   4.8248606070107E-02
(PID.TID 0000.0001) %MON extforcing_fv_del2           =   4.8562771937866E-03
(PID.TID 0000.0001) %MON advcfl_uvel_max              =   0.0000000000000E+00
(PID.TID 0000.0001) %MON advcfl_vvel_max              =   0.0000000000000E+00
(PID.TID 0000.0001) %MON advcfl_wvel_max              =   0.0000000000000E+00
(PID.TID 0000.0001) %MON advcfl_W_hf_max              =   0.0000000000000E+00
(PID.TID 0000.0001) %MON pe_b_mean                    =   0.0000000000000E+00
(PID.TID 0000.0001) %MON ke_max                       =   0.0000000000000E+00
(PID.TID 0000.0001) %MON ke_mean                      =   0.0000000000000E+00
(PID.TID 0000.0001) %MON ke_vol                       =   1.3226782436723E+18
(PID.TID 0000.0001) %MON vort_r_min                   =   0.0000000000000E+00
(PID.TID 0000.0001) %MON vort_r_max                   =   0.0000000000000E+00
(PID.TID 0000.0001) %MON vort_a_mean                  =  -2.5205769728595E-05
(PID.TID 0000.0001) %MON vort_a_sd                    =   7.3403301351718E-05
(PID.TID 0000.0001) %MON vort_p_mean                  =  -3.1758669979758E-05
(PID.TID 0000.0001) %MON vort_p_sd                    =   1.3126616755304E-04
(PID.TID 0000.0001) %MON surfExpan_theta_mean         =   0.0000000000000E+00
(PID.TID 0000.0001) %MON surfExpan_salt_mean          =   0.0000000000000E+00
(PID.TID 0000.0001) // =======================================================
(PID.TID 0000.0001) // End MONITOR dynamic field statistics
(PID.TID 0000.0001) // =======================================================
S/R EXTERNAL_FIELDS_LOAD: Reading new data:   12    1         0  0.000000000000E+00
(PID.TID 0000.0001)  MDS_READ_FIELD: opening global file: trenberth_taux.bin
(PID.TID 0000.0001)  MDS_READ_FIELD: opening global file: trenberth_taux.bin
(PID.TID 0000.0001)  MDS_READ_FIELD: opening global file: trenberth_tauy.bin
(PID.TID 0000.0001)  MDS_READ_FIELD: opening global file: trenberth_tauy.bin
(PID.TID 0000.0001)  MDS_READ_FIELD: opening global file: ncep_qnet.bin
(PID.TID 0000.0001)  MDS_READ_FIELD: opening global file: ncep_qnet.bin
(PID.TID 0000.0001)  MDS_READ_FIELD: opening global file: lev_sst.bin
(PID.TID 0000.0001)  MDS_READ_FIELD: opening global file: lev_sst.bin
(PID.TID 0000.0001)  MDS_READ_FIELD: opening global file: lev_sss.bin
(PID.TID 0000.0001)  MDS_READ_FIELD: opening global file: lev_sss.bin
time,SST,SSS,fu,fv,Q,E-P,i0,i1,a,b =   0.0000E+00  5.3151E-02  3.4364E+01 -4.0500E-02 -6.3753E-02  2.6510E+02  0.0000E+00    12     1  5.0000E-01  5.0000E-01
time,fu0,fu1,fu =   0.0000E+00 -4.5368E-02 -3.5633E-02 -4.0500E-02  5.000000000000000E-01  5.000000000000000E-01
(PID.TID 0000.0001)  MDS_READ_FIELD: opening file: xx_tauu.0000000000.001.001.data
(PID.TID 0000.0001)  MDS_READ_FIELD: opening file: xx_tauv.0000000000.001.001.data
(PID.TID 0000.0001)  MDS_READ_FIELD: opening file: xx_sflux.0000000000.001.001.data
(PID.TID 0000.0001)  MDS_READ_FIELD: opening file: xx_hflux.0000000000.001.001.data
 ph-test a  1 1
 ph-test b  1
 ph-test a  1 2
 ph-test b  1
 ph-test a  1 3
 ph-test b  1
 ph-test a  1 4
 ph-test b  1
 ph-test a  1 5
 ph-test b  1
 ph-test a  1 6
 ph-test b  1
 ph-test a  1 7
 ph-test b  1
 ph-test a  1 8
 ph-test b  1
 ph-test a  1 9
 ph-test b  1
 ph-test a  1 10
 ph-test b  1
 ph-test a  1 11
 ph-test b  1
 ph-test a  1 12
 ph-test b  1
 ph-test a  1 13
 ph-test b  1
 ph-test a  1 14
 ph-test b  1
 ph-test a  1 15
 ph-test b  1
 cg2d: Sum(rhs),rhsMax =   1.05956909912663E-14  2.53674886388737E+00
(PID.TID 0000.0001)                    cg2d_init_res =    6.19022764877148E+00
(PID.TID 0000.0001)                       cg2d_iters =    26
(PID.TID 0000.0001)                         cg2d_res =    4.93012145236808E-14
(PID.TID 0000.0001) // =======================================================
(PID.TID 0000.0001) // Begin MONITOR dynamic field statistics
(PID.TID 0000.0001) // =======================================================
(PID.TID 0000.0001) %MON time_tsnumber                =                     1
(PID.TID 0000.0001) %MON time_secondsf                =   4.3200000000000E+04
(PID.TID 0000.0001) %MON dynstat_eta_max              =   1.7834701827803E-01
(PID.TID 0000.0001) %MON dynstat_eta_min              =  -1.1528119640449E-01
(PID.TID 0000.0001) %MON dynstat_eta_mean             =   2.3624803325389E-18
(PID.TID 0000.0001) %MON dynstat_eta_sd               =   2.6147239617250E-02
(PID.TID 0000.0001) %MON dynstat_eta_del2             =   1.1608970033395E-02
(PID.TID 0000.0001) %MON dynstat_uvel_max             =   8.2589328748254E-03
(PID.TID 0000.0001) %MON dynstat_uvel_min             =  -8.7864788593940E-03
(PID.TID 0000.0001) %MON dynstat_uvel_mean            =  -3.5948047481451E-04
(PID.TID 0000.0001) %MON dynstat_uvel_sd              =   1.2234921326689E-03
(PID.TID 0000.0001) %MON dynstat_uvel_del2            =   4.1921261032938E-04
(PID.TID 0000.0001) %MON dynstat_vvel_max             =   1.8419668083618E-02
(PID.TID 0000.0001) %MON dynstat_vvel_min             =  -1.1236436695294E-02
(PID.TID 0000.0001) %MON dynstat_vvel_mean            =   9.0346553674460E-04
(PID.TID 0000.0001) %MON dynstat_vvel_sd              =   3.3985660820184E-03
(PID.TID 0000.0001) %MON dynstat_vvel_del2            =   5.2392004048899E-04
(PID.TID 0000.0001) %MON dynstat_wvel_max             =   1.5967409621856E-04
(PID.TID 0000.0001) %MON dynstat_wvel_min             =  -1.0325807956452E-04
(PID.TID 0000.0001) %MON dynstat_wvel_mean            =   4.2074344490934E-22
(PID.TID 0000.0001) %MON dynstat_wvel_sd              =   1.6737769309918E-05
(PID.TID 0000.0001) %MON dynstat_wvel_del2            =   8.7848410166065E-06
(PID.TID 0000.0001) %MON dynstat_theta_max            =   2.9714143044015E+01
(PID.TID 0000.0001) %MON dynstat_theta_min            =  -1.8999806910666E+00
(PID.TID 0000.0001) %MON dynstat_theta_mean           =   3.6192179124815E+00
(PID.TID 0000.0001) %MON dynstat_theta_sd             =   4.4159659086309E+00
(PID.TID 0000.0001) %MON dynstat_theta_del2           =   1.5009004516918E-01
(PID.TID 0000.0001) %MON dynstat_salt_max             =   3.7470698024319E+01
(PID.TID 0000.0001) %MON dynstat_salt_min             =   2.9755168415632E+01
(PID.TID 0000.0001) %MON dynstat_salt_mean            =   3.4717966816537E+01
(PID.TID 0000.0001) %MON dynstat_salt_sd              =   2.9614023418442E-01
(PID.TID 0000.0001) %MON dynstat_salt_del2            =   2.6372218536764E-02
(PID.TID 0000.0001) %MON dynstat_sst_max              =   2.9714143044015E+01
(PID.TID 0000.0001) %MON dynstat_sst_min              =  -1.8999806910666E+00
(PID.TID 0000.0001) %MON dynstat_sst_mean             =   1.8478553538015E+01
(PID.TID 0000.0001) %MON dynstat_sst_sd               =   9.1757774470526E+00
(PID.TID 0000.0001) %MON dynstat_sst_del2             =   2.8197991990957E-01
(PID.TID 0000.0001) %MON dynstat_sss_max              =   3.7470698024319E+01
(PID.TID 0000.0001) %MON dynstat_sss_min              =   2.9755168415632E+01
(PID.TID 0000.0001) %MON dynstat_sss_mean             =   3.4850025093142E+01
(PID.TID 0000.0001) %MON dynstat_sss_sd               =   9.6273683627900E-01
(PID.TID 0000.0001) %MON dynstat_sss_del2             =   8.3682557097840E-02
(PID.TID 0000.0001) %MON extforcing_qnet_max          =   4.2589080810547E+02
(PID.TID 0000.0001) %MON extforcing_qnet_min          =  -1.8702698516846E+02
(PID.TID 0000.0001) %MON extforcing_qnet_mean         =  -1.6700205338390E+01
(PID.TID 0000.0001) %MON extforcing_qnet_sd           =   1.1285666794876E+02
(PID.TID 0000.0001) %MON extforcing_qnet_del2         =   9.4920800031777E+00
(PID.TID 0000.0001) %MON extforcing_qsw_max           =   0.0000000000000E+00
(PID.TID 0000.0001) %MON extforcing_qsw_min           =   0.0000000000000E+00
(PID.TID 0000.0001) %MON extforcing_qsw_mean          =   0.0000000000000E+00
(PID.TID 0000.0001) %MON extforcing_qsw_sd            =   0.0000000000000E+00
(PID.TID 0000.0001) %MON extforcing_qsw_del2          =   0.0000000000000E+00
(PID.TID 0000.0001) %MON extforcing_empmr_max         =   0.0000000000000E+00
(PID.TID 0000.0001) %MON extforcing_empmr_min         =   0.0000000000000E+00
(PID.TID 0000.0001) %MON extforcing_empmr_mean        =   0.0000000000000E+00
(PID.TID 0000.0001) %MON extforcing_empmr_sd          =   0.0000000000000E+00
(PID.TID 0000.0001) %MON extforcing_empmr_del2        =   0.0000000000000E+00
(PID.TID 0000.0001) %MON extforcing_fu_max            =   2.7488999068737E-01
(PID.TID 0000.0001) %MON extforcing_fu_min            =  -1.6014087945223E-01
(PID.TID 0000.0001) %MON extforcing_fu_mean           =   1.6117127468124E-02
(PID.TID 0000.0001) %MON extforcing_fu_sd             =   9.0153154829689E-02
(PID.TID 0000.0001) %MON extforcing_fu_del2           =   7.3708273804392E-03
(PID.TID 0000.0001) %MON extforcing_fv_max            =   2.0835298299789E-01
(PID.TID 0000.0001) %MON extforcing_fv_min            =  -1.8690676242113E-01
(PID.TID 0000.0001) %MON extforcing_fv_mean           =  -6.3653356424171E-03
(PID.TID 0000.0001) %MON extforcing_fv_sd             =   4.5157892194461E-02
(PID.TID 0000.0001) %MON extforcing_fv_del2           =   4.3354963669297E-03
(PID.TID 0000.0001) %MON advcfl_uvel_max              =   2.7952615317443E-03
(PID.TID 0000.0001) %MON advcfl_vvel_max              =   1.7893230463437E-03
(PID.TID 0000.0001) %MON advcfl_wvel_max              =   2.5681970632036E-01
(PID.TID 0000.0001) %MON advcfl_W_hf_max              =   2.6053755191579E-01
(PID.TID 0000.0001) %MON pe_b_mean                    =   8.7484858528216E-07
(PID.TID 0000.0001) %MON ke_max                       =   1.1990059187008E-04
(PID.TID 0000.0001) %MON ke_mean                      =   6.2906533822052E-06
(PID.TID 0000.0001) %MON ke_vol                       =   1.3226782436723E+18
(PID.TID 0000.0001) %MON vort_r_min                   =  -5.9384272215235E-08
(PID.TID 0000.0001) %MON vort_r_max                   =   6.6674503753026E-08
(PID.TID 0000.0001) %MON vort_a_mean                  =  -2.5205769366638E-05
(PID.TID 0000.0001) %MON vort_a_sd                    =   7.3403223633028E-05
(PID.TID 0000.0001) %MON vort_p_mean                  =  -3.1758669523701E-05
(PID.TID 0000.0001) %MON vort_p_sd                    =   1.3126608317243E-04
(PID.TID 0000.0001) %MON surfExpan_theta_mean         =   4.6045544759390E-05
(PID.TID 0000.0001) %MON surfExpan_salt_mean          =   3.4948081273494E-06
(PID.TID 0000.0001) // =======================================================
(PID.TID 0000.0001) // End MONITOR dynamic field statistics
(PID.TID 0000.0001) // =======================================================
time,SST,SSS,fu,fv,Q,E-P,i0,i1,a,b =   4.3200E+04  8.3327E-02  3.4375E+01 -4.0338E-02 -6.3536E-02  2.6512E+02  0.0000E+00    12     1  5.1667E-01  4.8333E-01
time,fu0,fu1,fu =   4.3200E+04 -4.5368E-02 -3.5633E-02 -4.0338E-02  5.166666666666667E-01  4.833333333333333E-01
 ph-test a  1 1
 ph-test b  1
 ph-test a  1 2
 ph-test b  1
 ph-test a  1 3
 ph-test b  1
 ph-test a  1 4
 ph-test b  1
 ph-test a  1 5
 ph-test b  1
 ph-test a  1 6
 ph-test b  1
 ph-test a  1 7
 ph-test b  1
 ph-test a  1 8
 ph-test b  1
 ph-test a  1 9
 ph-test b  1
 ph-test a  1 10
 ph-test b  1
 ph-test a  1 11
 ph-test b  1
 ph-test a  1 12
 ph-test b  1
 ph-test a  1 13
 ph-test b  1
 ph-test a  1 14
 ph-test b  1
 ph-test a  1 15
 ph-test b  1
 cg2d: Sum(rhs),rhsMax =  -1.35169653248113E-14  4.94099340918605E+00
(PID.TID 0000.0001)                    cg2d_init_res =    3.35384852330969E+00
(PID.TID 0000.0001)                       cg2d_iters =    26
(PID.TID 0000.0001)                         cg2d_res =    3.26034932877259E-14
(PID.TID 0000.0001) // =======================================================
(PID.TID 0000.0001) // Begin MONITOR dynamic field statistics
(PID.TID 0000.0001) // =======================================================
(PID.TID 0000.0001) %MON time_tsnumber                =                     2
(PID.TID 0000.0001) %MON time_secondsf                =   8.6400000000000E+04
(PID.TID 0000.0001) %MON dynstat_eta_max              =   3.7225373053869E-01
(PID.TID 0000.0001) %MON dynstat_eta_min              =  -2.5318716491831E-01
(PID.TID 0000.0001) %MON dynstat_eta_mean             =   3.0246823536858E-19
(PID.TID 0000.0001) %MON dynstat_eta_sd               =   5.9794465439658E-02
(PID.TID 0000.0001) %MON dynstat_eta_del2             =   2.2244067323061E-02
(PID.TID 0000.0001) %MON dynstat_uvel_max             =   1.9032007733246E-02
(PID.TID 0000.0001) %MON dynstat_uvel_min             =  -1.7145854941347E-02
(PID.TID 0000.0001) %MON dynstat_uvel_mean            =  -8.9142518644927E-04
(PID.TID 0000.0001) %MON dynstat_uvel_sd              =   2.1302697221603E-03
(PID.TID 0000.0001) %MON dynstat_uvel_del2            =   7.8749994775718E-04
(PID.TID 0000.0001) %MON dynstat_vvel_max             =   3.3851101540796E-02
(PID.TID 0000.0001) %MON dynstat_vvel_min             =  -1.8091125639376E-02
(PID.TID 0000.0001) %MON dynstat_vvel_mean            =   1.7649643723951E-03
(PID.TID 0000.0001) %MON dynstat_vvel_sd              =   6.2187786132104E-03
(PID.TID 0000.0001) %MON dynstat_vvel_del2            =   9.4421686022704E-04
(PID.TID 0000.0001) %MON dynstat_wvel_max             =   2.0483153845107E-04
(PID.TID 0000.0001) %MON dynstat_wvel_min             =  -1.4657852336622E-04
(PID.TID 0000.0001) %MON dynstat_wvel_mean            =  -1.3584851316077E-21
(PID.TID 0000.0001) %MON dynstat_wvel_sd              =   2.4011924466881E-05
(PID.TID 0000.0001) %MON dynstat_wvel_del2            =   9.8912974152175E-06
(PID.TID 0000.0001) %MON dynstat_theta_max            =   2.9694803869065E+01
(PID.TID 0000.0001) %MON dynstat_theta_min            =  -1.9001389135552E+00
(PID.TID 0000.0001) %MON dynstat_theta_mean           =   3.6183185831296E+00
(PID.TID 0000.0001) %MON dynstat_theta_sd             =   4.4137646573673E+00
(PID.TID 0000.0001) %MON dynstat_theta_del2           =   1.4856562162154E-01
(PID.TID 0000.0001) %MON dynstat_salt_max             =   3.7465830241270E+01
(PID.TID 0000.0001) %MON dynstat_salt_min             =   2.9758540114681E+01
(PID.TID 0000.0001) %MON dynstat_salt_mean            =   3.4717893129311E+01
(PID.TID 0000.0001) %MON dynstat_salt_sd              =   2.9602687993563E-01
(PID.TID 0000.0001) %MON dynstat_salt_del2            =   2.6432167042876E-02
(PID.TID 0000.0001) %MON dynstat_sst_max              =   2.9694803869065E+01
(PID.TID 0000.0001) %MON dynstat_sst_min              =  -1.9001389135552E+00
(PID.TID 0000.0001) %MON dynstat_sst_mean             =   1.8470105684470E+01
(PID.TID 0000.0001) %MON dynstat_sst_sd               =   9.1692607582760E+00
(PID.TID 0000.0001) %MON dynstat_sst_del2             =   2.7947311027139E-01
(PID.TID 0000.0001) %MON dynstat_sss_max              =   3.7465830241270E+01
(PID.TID 0000.0001) %MON dynstat_sss_min              =   2.9758540114681E+01
(PID.TID 0000.0001) %MON dynstat_sss_mean             =   3.4850745009974E+01
(PID.TID 0000.0001) %MON dynstat_sss_sd               =   9.6233674480398E-01
(PID.TID 0000.0001) %MON dynstat_sss_del2             =   8.3375042597075E-02
(PID.TID 0000.0001) %MON extforcing_qnet_max          =   4.2641490173340E+02
(PID.TID 0000.0001) %MON extforcing_qnet_min          =  -1.8679340387980E+02
(PID.TID 0000.0001) %MON extforcing_qnet_mean         =  -1.6693949360479E+01
(PID.TID 0000.0001) %MON extforcing_qnet_sd           =   1.1274774925900E+02
(PID.TID 0000.0001) %MON extforcing_qnet_del2         =   9.4916969262675E+00
(PID.TID 0000.0001) %MON extforcing_qsw_max           =   0.0000000000000E+00
(PID.TID 0000.0001) %MON extforcing_qsw_min           =   0.0000000000000E+00
(PID.TID 0000.0001) %MON extforcing_qsw_mean          =   0.0000000000000E+00
(PID.TID 0000.0001) %MON extforcing_qsw_sd            =   0.0000000000000E+00
(PID.TID 0000.0001) %MON extforcing_qsw_del2          =   0.0000000000000E+00
(PID.TID 0000.0001) %MON extforcing_empmr_max         =   0.0000000000000E+00
(PID.TID 0000.0001) %MON extforcing_empmr_min         =   0.0000000000000E+00
(PID.TID 0000.0001) %MON extforcing_empmr_mean        =   0.0000000000000E+00
(PID.TID 0000.0001) %MON extforcing_empmr_sd          =   0.0000000000000E+00
(PID.TID 0000.0001) %MON extforcing_empmr_del2        =   0.0000000000000E+00
(PID.TID 0000.0001) %MON extforcing_fu_max            =   2.7446071654558E-01
(PID.TID 0000.0001) %MON extforcing_fu_min            =  -1.5920810426275E-01
(PID.TID 0000.0001) %MON extforcing_fu_mean           =   1.6113281057605E-02
(PID.TID 0000.0001) %MON extforcing_fu_sd             =   9.0144235663722E-02
(PID.TID 0000.0001) %MON extforcing_fu_del2           =   7.3673706182092E-03
(PID.TID 0000.0001) %MON extforcing_fv_max            =   2.0858977933725E-01
(PID.TID 0000.0001) %MON extforcing_fv_min            =  -1.8661443367600E-01
(PID.TID 0000.0001) %MON extforcing_fv_mean           =  -6.3284543789868E-03
(PID.TID 0000.0001) %MON extforcing_fv_sd             =   4.5207594835594E-02
(PID.TID 0000.0001) %MON extforcing_fv_del2           =   4.3342138082014E-03
(PID.TID 0000.0001) %MON advcfl_uvel_max              =   5.5839767810529E-03
(PID.TID 0000.0001) %MON advcfl_vvel_max              =   3.2883630614897E-03
(PID.TID 0000.0001) %MON advcfl_wvel_max              =   2.7922566565535E-01
(PID.TID 0000.0001) %MON advcfl_W_hf_max              =   2.8897194665536E-01
(PID.TID 0000.0001) %MON pe_b_mean                    =   4.5751272258290E-06
(PID.TID 0000.0001) %MON ke_max                       =   4.0308347579956E-04
(PID.TID 0000.0001) %MON ke_mean                      =   2.1183260251425E-05
(PID.TID 0000.0001) %MON ke_vol                       =   1.3226782436723E+18
(PID.TID 0000.0001) %MON vort_r_min                   =  -1.0720838012311E-07
(PID.TID 0000.0001) %MON vort_r_max                   =   1.3039647806294E-07
(PID.TID 0000.0001) %MON vort_a_mean                  =  -2.5205769265966E-05
(PID.TID 0000.0001) %MON vort_a_sd                    =   7.3403114361240E-05
(PID.TID 0000.0001) %MON vort_p_mean                  =  -3.1758751348442E-05
(PID.TID 0000.0001) %MON vort_p_sd                    =   1.3126617460053E-04
(PID.TID 0000.0001) %MON surfExpan_theta_mean         =   8.3583994301695E-05
(PID.TID 0000.0001) %MON surfExpan_salt_mean          =   6.6480560553199E-06
(PID.TID 0000.0001) // =======================================================
(PID.TID 0000.0001) // End MONITOR dynamic field statistics
(PID.TID 0000.0001) // =======================================================
time,SST,SSS,fu,fv,Q,E-P,i0,i1,a,b =   8.6400E+04  1.1350E-01  3.4387E+01 -4.0176E-02 -6.3320E-02  2.6514E+02  0.0000E+00    12     1  5.3333E-01  4.6667E-01
time,fu0,fu1,fu =   8.6400E+04 -4.5368E-02 -3.5633E-02 -4.0176E-02  5.333333333333333E-01  4.666666666666667E-01
 ph-test a  1 1
 ph-test b  1
 ph-test a  1 2
 ph-test b  1
 ph-test a  1 3
 ph-test b  1
 ph-test a  1 4
 ph-test b  1
 ph-test a  1 5
 ph-test b  1
 ph-test a  1 6
 ph-test b  1
 ph-test a  1 7
 ph-test b  1
 ph-test a  1 8
 ph-test b  1
 ph-test a  1 9
 ph-test b  1
 ph-test a  1 10
 ph-test b  1
 ph-test a  1 11
 ph-test b  1
 ph-test a  1 12
 ph-test b  1
 ph-test a  1 13
 ph-test b  1
 ph-test a  1 14
 ph-test b  1
 ph-test a  1 15
 ph-test b  1
 cg2d: Sum(rhs),rhsMax =  -3.70189989773451E-15  6.30201510737097E+00
(PID.TID 0000.0001)                    cg2d_init_res =    2.20842445255163E+00
(PID.TID 0000.0001)                       cg2d_iters =    26
(PID.TID 0000.0001)                         cg2d_res =    2.89991860101833E-14
(PID.TID 0000.0001) // =======================================================
(PID.TID 0000.0001) // Begin MONITOR dynamic field statistics
(PID.TID 0000.0001) // =======================================================
(PID.TID 0000.0001) %MON time_tsnumber                =                     3
(PID.TID 0000.0001) %MON time_secondsf                =   1.2960000000000E+05
(PID.TID 0000.0001) %MON dynstat_eta_max              =   5.1144307040584E-01
(PID.TID 0000.0001) %MON dynstat_eta_min              =  -3.8072461241701E-01
(PID.TID 0000.0001) %MON dynstat_eta_mean             =  -1.6680194550030E-17
(PID.TID 0000.0001) %MON dynstat_eta_sd               =   9.2619595523556E-02
(PID.TID 0000.0001) %MON dynstat_eta_del2             =   2.7965961610137E-02
(PID.TID 0000.0001) %MON dynstat_uvel_max             =   3.1204025871271E-02
(PID.TID 0000.0001) %MON dynstat_uvel_min             =  -3.0267363650131E-02
(PID.TID 0000.0001) %MON dynstat_uvel_mean            =  -1.5692405733136E-03
(PID.TID 0000.0001) %MON dynstat_uvel_sd              =   3.0602899621364E-03
(PID.TID 0000.0001) %MON dynstat_uvel_del2            =   1.1707311210973E-03
(PID.TID 0000.0001) %MON dynstat_vvel_max             =   4.5520729881509E-02
(PID.TID 0000.0001) %MON dynstat_vvel_min             =  -2.4705751963476E-02
(PID.TID 0000.0001) %MON dynstat_vvel_mean            =   2.5619639677918E-03
(PID.TID 0000.0001) %MON dynstat_vvel_sd              =   8.5711985100345E-03
(PID.TID 0000.0001) %MON dynstat_vvel_del2            =   1.3622350950305E-03
(PID.TID 0000.0001) %MON dynstat_wvel_max             =   2.0233864702034E-04
(PID.TID 0000.0001) %MON dynstat_wvel_min             =  -1.6999919105532E-04
(PID.TID 0000.0001) %MON dynstat_wvel_mean            =   4.7582646521352E-23
(PID.TID 0000.0001) %MON dynstat_wvel_sd              =   2.7051948672287E-05
(PID.TID 0000.0001) %MON dynstat_wvel_del2            =   8.7747162206669E-06
(PID.TID 0000.0001) %MON dynstat_theta_max            =   2.9686762217793E+01
(PID.TID 0000.0001) %MON dynstat_theta_min            =  -1.9003361991255E+00
(PID.TID 0000.0001) %MON dynstat_theta_mean           =   3.6170996693913E+00
(PID.TID 0000.0001) %MON dynstat_theta_sd             =   4.4110099793100E+00
(PID.TID 0000.0001) %MON dynstat_theta_del2           =   1.4708368009035E-01
(PID.TID 0000.0001) %MON dynstat_salt_max             =   3.7461257322701E+01
(PID.TID 0000.0001) %MON dynstat_salt_min             =   2.9762673430871E+01
(PID.TID 0000.0001) %MON dynstat_salt_mean            =   3.4717791282545E+01
(PID.TID 0000.0001) %MON dynstat_salt_sd              =   2.9598377957484E-01
(PID.TID 0000.0001) %MON dynstat_salt_del2            =   2.6343867813789E-02
(PID.TID 0000.0001) %MON dynstat_sst_max              =   2.9686762217793E+01
(PID.TID 0000.0001) %MON dynstat_sst_min              =  -1.9003361991255E+00
(PID.TID 0000.0001) %MON dynstat_sst_mean             =   1.8460708951664E+01
(PID.TID 0000.0001) %MON dynstat_sst_sd               =   9.1625091793437E+00
(PID.TID 0000.0001) %MON dynstat_sst_del2             =   2.7758181191773E-01
(PID.TID 0000.0001) %MON dynstat_sss_max              =   3.7461257322701E+01
(PID.TID 0000.0001) %MON dynstat_sss_min              =   2.9762673430871E+01
(PID.TID 0000.0001) %MON dynstat_sss_mean             =   3.4851492897422E+01
(PID.TID 0000.0001) %MON dynstat_sss_sd               =   9.6187167712125E-01
(PID.TID 0000.0001) %MON dynstat_sss_del2             =   8.2977549809719E-02
(PID.TID 0000.0001) %MON extforcing_qnet_max          =   4.2693899536133E+02
(PID.TID 0000.0001) %MON extforcing_qnet_min          =  -1.8655982259115E+02
(PID.TID 0000.0001) %MON extforcing_qnet_mean         =  -1.6687693382567E+01
(PID.TID 0000.0001) %MON extforcing_qnet_sd           =   1.1263946608433E+02
(PID.TID 0000.0001) %MON extforcing_qnet_del2         =   9.4914987500819E+00
(PID.TID 0000.0001) %MON extforcing_qsw_max           =   0.0000000000000E+00
(PID.TID 0000.0001) %MON extforcing_qsw_min           =   0.0000000000000E+00
(PID.TID 0000.0001) %MON extforcing_qsw_mean          =   0.0000000000000E+00
(PID.TID 0000.0001) %MON extforcing_qsw_sd            =   0.0000000000000E+00
(PID.TID 0000.0001) %MON extforcing_qsw_del2          =   0.0000000000000E+00
(PID.TID 0000.0001) %MON extforcing_empmr_max         =   0.0000000000000E+00
(PID.TID 0000.0001) %MON extforcing_empmr_min         =   0.0000000000000E+00
(PID.TID 0000.0001) %MON extforcing_empmr_mean        =   0.0000000000000E+00
(PID.TID 0000.0001) %MON extforcing_empmr_sd          =   0.0000000000000E+00
(PID.TID 0000.0001) %MON extforcing_empmr_del2        =   0.0000000000000E+00
(PID.TID 0000.0001) %MON extforcing_fu_max            =   2.7403144240379E-01
(PID.TID 0000.0001) %MON extforcing_fu_min            =  -1.5949268937111E-01
(PID.TID 0000.0001) %MON extforcing_fu_mean           =   1.6109434647086E-02
(PID.TID 0000.0001) %MON extforcing_fu_sd             =   9.0138031840955E-02
(PID.TID 0000.0001) %MON extforcing_fu_del2           =   7.3647677160333E-03
(PID.TID 0000.0001) %MON extforcing_fv_max            =   2.0882657567660E-01
(PID.TID 0000.0001) %MON extforcing_fv_min            =  -1.8632210493088E-01
(PID.TID 0000.0001) %MON extforcing_fv_mean           =  -6.2915731155564E-03
(PID.TID 0000.0001) %MON extforcing_fv_sd             =   4.5261152700224E-02
(PID.TID 0000.0001) %MON extforcing_fv_del2           =   4.3343836405753E-03
(PID.TID 0000.0001) %MON advcfl_uvel_max              =   6.9957239499287E-03
(PID.TID 0000.0001) %MON advcfl_vvel_max              =   4.4219738756212E-03
(PID.TID 0000.0001) %MON advcfl_wvel_max              =   2.0978318739512E-01
(PID.TID 0000.0001) %MON advcfl_W_hf_max              =   2.1804388761361E-01
(PID.TID 0000.0001) %MON pe_b_mean                    =   1.0977083310762E-05
(PID.TID 0000.0001) %MON ke_max                       =   8.0384739685173E-04
(PID.TID 0000.0001) %MON ke_mean                      =   4.1301907558319E-05
(PID.TID 0000.0001) %MON ke_vol                       =   1.3226782436723E+18
(PID.TID 0000.0001) %MON vort_r_min                   =  -1.6050979988113E-07
(PID.TID 0000.0001) %MON vort_r_max                   =   1.9050304718197E-07
(PID.TID 0000.0001) %MON vort_a_mean                  =  -2.5205769253958E-05
(PID.TID 0000.0001) %MON vort_a_sd                    =   7.3402980012376E-05
(PID.TID 0000.0001) %MON vort_p_mean                  =  -3.1758834555087E-05
(PID.TID 0000.0001) %MON vort_p_sd                    =   1.3126621242879E-04
(PID.TID 0000.0001) %MON surfExpan_theta_mean         =   1.1306321487715E-04
(PID.TID 0000.0001) %MON surfExpan_salt_mean          =   9.2313546815060E-06
(PID.TID 0000.0001) // =======================================================
(PID.TID 0000.0001) // End MONITOR dynamic field statistics
(PID.TID 0000.0001) // =======================================================
time,SST,SSS,fu,fv,Q,E-P,i0,i1,a,b =   1.2960E+05  1.4368E-01  3.4399E+01 -4.0014E-02 -6.3103E-02  2.6516E+02  0.0000E+00    12     1  5.5000E-01  4.5000E-01
time,fu0,fu1,fu =   1.2960E+05 -4.5368E-02 -3.5633E-02 -4.0014E-02  5.500000000000000E-01  4.500000000000000E-01
 ph-test a  1 1
 ph-test b  1
 ph-test a  1 2
 ph-test b  1
 ph-test a  1 3
 ph-test b  1
 ph-test a  1 4
 ph-test b  1
 ph-test a  1 5
 ph-test b  1
 ph-test a  1 6
 ph-test b  1
 ph-test a  1 7
 ph-test b  1
 ph-test a  1 8
 ph-test b  1
 ph-test a  1 9
 ph-test b  1
 ph-test a  1 10
 ph-test b  1
 ph-test a  1 11
 ph-test b  1
 ph-test a  1 12
 ph-test b  1
 ph-test a  1 13
 ph-test b  1
 ph-test a  1 14
 ph-test b  1
 ph-test a  1 15
 ph-test b  1
 cg2d: Sum(rhs),rhsMax =  -1.98868699285981E-14  6.81670284430948E+00
(PID.TID 0000.0001)                    cg2d_init_res =    1.85736816682049E+00
(PID.TID 0000.0001)                       cg2d_iters =    26
(PID.TID 0000.0001)                         cg2d_res =    2.65044049912905E-14
(PID.TID 0000.0001) // =======================================================
(PID.TID 0000.0001) // Begin MONITOR dynamic field statistics
(PID.TID 0000.0001) // =======================================================
(PID.TID 0000.0001) %MON time_tsnumber                =                     4
(PID.TID 0000.0001) %MON time_secondsf                =   1.7280000000000E+05
(PID.TID 0000.0001) %MON dynstat_eta_max              =   5.9296561966588E-01
(PID.TID 0000.0001) %MON dynstat_eta_min              =  -4.9791575284806E-01
(PID.TID 0000.0001) %MON dynstat_eta_mean             =   1.0457043268828E-17
(PID.TID 0000.0001) %MON dynstat_eta_sd               =   1.2304990684283E-01
(PID.TID 0000.0001) %MON dynstat_eta_del2             =   2.9573091351963E-02
(PID.TID 0000.0001) %MON dynstat_uvel_max             =   4.3870228754599E-02
(PID.TID 0000.0001) %MON dynstat_uvel_min             =  -4.3110529108797E-02
(PID.TID 0000.0001) %MON dynstat_uvel_mean            =  -2.3646633871167E-03
(PID.TID 0000.0001) %MON dynstat_uvel_sd              =   4.1282245978077E-03
(PID.TID 0000.0001) %MON dynstat_uvel_del2            =   1.5442864006300E-03
(PID.TID 0000.0001) %MON dynstat_vvel_max             =   5.3791635194563E-02
(PID.TID 0000.0001) %MON dynstat_vvel_min             =  -3.6663737504813E-02
(PID.TID 0000.0001) %MON dynstat_vvel_mean            =   3.2749475032652E-03
(PID.TID 0000.0001) %MON dynstat_vvel_sd              =   1.0541770441206E-02
(PID.TID 0000.0001) %MON dynstat_vvel_del2            =   1.7826676099018E-03
(PID.TID 0000.0001) %MON dynstat_wvel_max             =   2.0977896847795E-04
(PID.TID 0000.0001) %MON dynstat_wvel_min             =  -2.0779749861061E-04
(PID.TID 0000.0001) %MON dynstat_wvel_mean            =   1.3122213581521E-21
(PID.TID 0000.0001) %MON dynstat_wvel_sd              =   2.8991064021087E-05
(PID.TID 0000.0001) %MON dynstat_wvel_del2            =   8.4101679219428E-06
(PID.TID 0000.0001) %MON dynstat_theta_max            =   2.9685873790143E+01
(PID.TID 0000.0001) %MON dynstat_theta_min            =  -1.9005150223809E+00
(PID.TID 0000.0001) %MON dynstat_theta_mean           =   3.6156382413670E+00
(PID.TID 0000.0001) %MON dynstat_theta_sd             =   4.4078039930790E+00
(PID.TID 0000.0001) %MON dynstat_theta_del2           =   1.4601563951527E-01
(PID.TID 0000.0001) %MON dynstat_salt_max             =   3.7456751095701E+01
(PID.TID 0000.0001) %MON dynstat_salt_min             =   2.9767323262917E+01
(PID.TID 0000.0001) %MON dynstat_salt_mean            =   3.4717668407832E+01
(PID.TID 0000.0001) %MON dynstat_salt_sd              =   2.9595328259782E-01
(PID.TID 0000.0001) %MON dynstat_salt_del2            =   2.6233839358951E-02
(PID.TID 0000.0001) %MON dynstat_sst_max              =   2.9685873790143E+01
(PID.TID 0000.0001) %MON dynstat_sst_min              =  -1.9005150223809E+00
(PID.TID 0000.0001) %MON dynstat_sst_mean             =   1.8451640767307E+01
(PID.TID 0000.0001) %MON dynstat_sst_sd               =   9.1548586054692E+00
(PID.TID 0000.0001) %MON dynstat_sst_del2             =   2.7658986115481E-01
(PID.TID 0000.0001) %MON dynstat_sss_max              =   3.7456751095701E+01
(PID.TID 0000.0001) %MON dynstat_sss_min              =   2.9767323262917E+01
(PID.TID 0000.0001) %MON dynstat_sss_mean             =   3.4852281665601E+01
(PID.TID 0000.0001) %MON dynstat_sss_sd               =   9.6146574205954E-01
(PID.TID 0000.0001) %MON dynstat_sss_del2             =   8.2685910346779E-02
(PID.TID 0000.0001) %MON extforcing_qnet_max          =   4.2746308898926E+02
(PID.TID 0000.0001) %MON extforcing_qnet_min          =  -1.8632624130249E+02
(PID.TID 0000.0001) %MON extforcing_qnet_mean         =  -1.6681437404656E+01
(PID.TID 0000.0001) %MON extforcing_qnet_sd           =   1.1253182025933E+02
(PID.TID 0000.0001) %MON extforcing_qnet_del2         =   9.4918268925661E+00
(PID.TID 0000.0001) %MON extforcing_qsw_max           =   0.0000000000000E+00
(PID.TID 0000.0001) %MON extforcing_qsw_min           =   0.0000000000000E+00
(PID.TID 0000.0001) %MON extforcing_qsw_mean          =   0.0000000000000E+00
(PID.TID 0000.0001) %MON extforcing_qsw_sd            =   0.0000000000000E+00
(PID.TID 0000.0001) %MON extforcing_qsw_del2          =   0.0000000000000E+00
(PID.TID 0000.0001) %MON extforcing_empmr_max         =   0.0000000000000E+00
(PID.TID 0000.0001) %MON extforcing_empmr_min         =   0.0000000000000E+00
(PID.TID 0000.0001) %MON extforcing_empmr_mean        =   0.0000000000000E+00
(PID.TID 0000.0001) %MON extforcing_empmr_sd          =   0.0000000000000E+00
(PID.TID 0000.0001) %MON extforcing_empmr_del2        =   0.0000000000000E+00
(PID.TID 0000.0001) %MON extforcing_fu_max            =   2.7360216826200E-01
(PID.TID 0000.0001) %MON extforcing_fu_min            =  -1.5989939942956E-01
(PID.TID 0000.0001) %MON extforcing_fu_mean           =   1.6105588236568E-02
(PID.TID 0000.0001) %MON extforcing_fu_sd             =   9.0134543922067E-02
(PID.TID 0000.0001) %MON extforcing_fu_del2           =   7.3632794450082E-03
(PID.TID 0000.0001) %MON extforcing_fv_max            =   2.0906337201595E-01
(PID.TID 0000.0001) %MON extforcing_fv_min            =  -1.8602977618575E-01
(PID.TID 0000.0001) %MON extforcing_fv_mean           =  -6.2546918521259E-03
(PID.TID 0000.0001) %MON extforcing_fv_sd             =   4.5318552119942E-02
(PID.TID 0000.0001) %MON extforcing_fv_del2           =   4.3358782801361E-03
(PID.TID 0000.0001) %MON advcfl_uvel_max              =   9.4626609499996E-03
(PID.TID 0000.0001) %MON advcfl_vvel_max              =   5.2254260020978E-03
(PID.TID 0000.0001) %MON advcfl_wvel_max              =   2.3783055536739E-01
(PID.TID 0000.0001) %MON advcfl_W_hf_max              =   2.3726440255809E-01
(PID.TID 0000.0001) %MON pe_b_mean                    =   1.9375092236259E-05
(PID.TID 0000.0001) %MON ke_max                       =   1.2667812183563E-03
(PID.TID 0000.0001) %MON ke_mean                      =   6.4988062927588E-05
(PID.TID 0000.0001) %MON ke_vol                       =   1.3226782436723E+18
(PID.TID 0000.0001) %MON vort_r_min                   =  -2.1226560220395E-07
(PID.TID 0000.0001) %MON vort_r_max                   =   2.4541655092835E-07
(PID.TID 0000.0001) %MON vort_a_mean                  =  -2.5205769239215E-05
(PID.TID 0000.0001) %MON vort_a_sd                    =   7.3402826339532E-05
(PID.TID 0000.0001) %MON vort_p_mean                  =  -3.1758889298569E-05
(PID.TID 0000.0001) %MON vort_p_sd                    =   1.3126611330979E-04
(PID.TID 0000.0001) %MON surfExpan_theta_mean         =   1.3551657168287E-04
(PID.TID 0000.0001) %MON surfExpan_salt_mean          =   1.1161566487241E-05
(PID.TID 0000.0001) // =======================================================
(PID.TID 0000.0001) // End MONITOR dynamic field statistics
(PID.TID 0000.0001) // =======================================================
time,SST,SSS,fu,fv,Q,E-P,i0,i1,a,b =   1.7280E+05  1.7385E-01  3.4410E+01 -3.9851E-02 -6.2886E-02  2.6519E+02  0.0000E+00    12     1  5.6667E-01  4.3333E-01
time,fu0,fu1,fu =   1.7280E+05 -4.5368E-02 -3.5633E-02 -3.9851E-02  5.666666666666667E-01  4.333333333333333E-01
 ph-test a  1 1
 ph-test b  1
 ph-test a  1 2
 ph-test b  1
 ph-test a  1 3
 ph-test b  1
 ph-test a  1 4
 ph-test b  1
 ph-test a  1 5
 ph-test b  1
 ph-test a  1 6
 ph-test b  1
 ph-test a  1 7
 ph-test b  1
 ph-test a  1 8
 ph-test b  1
 ph-test a  1 9
 ph-test b  1
 ph-test a  1 10
 ph-test b  1
 ph-test a  1 11
 ph-test b  1
 ph-test a  1 12
 ph-test b  1
 ph-test a  1 13
 ph-test b  1
 ph-test a  1 14
 ph-test b  1
 ph-test a  1 15
 ph-test b  1
 cg2d: Sum(rhs),rhsMax =  -1.35082917074314E-14  6.91786915802128E+00
(PID.TID 0000.0001)                    cg2d_init_res =    1.78367344882302E+00
(PID.TID 0000.0001)                       cg2d_iters =    26
(PID.TID 0000.0001)                         cg2d_res =    2.66245101485175E-14
(PID.TID 0000.0001) // =======================================================
(PID.TID 0000.0001) // Begin MONITOR dynamic field statistics
(PID.TID 0000.0001) // =======================================================
(PID.TID 0000.0001) %MON time_tsnumber                =                     5
(PID.TID 0000.0001) %MON time_secondsf                =   2.1600000000000E+05
(PID.TID 0000.0001) %MON dynstat_eta_max              =   6.3625741051187E-01
(PID.TID 0000.0001) %MON dynstat_eta_min              =  -5.7717890781604E-01
(PID.TID 0000.0001) %MON dynstat_eta_mean             =   1.2548894127616E-17
(PID.TID 0000.0001) %MON dynstat_eta_sd               =   1.5174145496677E-01
(PID.TID 0000.0001) %MON dynstat_eta_del2             =   2.9067380248536E-02
(PID.TID 0000.0001) %MON dynstat_uvel_max             =   5.6474781492787E-02
(PID.TID 0000.0001) %MON dynstat_uvel_min             =  -5.4192679195107E-02
(PID.TID 0000.0001) %MON dynstat_uvel_mean            =  -3.2480823007921E-03
(PID.TID 0000.0001) %MON dynstat_uvel_sd              =   5.3172071044189E-03
(PID.TID 0000.0001) %MON dynstat_uvel_del2            =   1.8852374631323E-03
(PID.TID 0000.0001) %MON dynstat_vvel_max             =   5.9782028410034E-02
(PID.TID 0000.0001) %MON dynstat_vvel_min             =  -4.8162389971553E-02
(PID.TID 0000.0001) %MON dynstat_vvel_mean            =   3.8874097334248E-03
(PID.TID 0000.0001) %MON dynstat_vvel_sd              =   1.2165421224869E-02
(PID.TID 0000.0001) %MON dynstat_vvel_del2            =   2.1717119259495E-03
(PID.TID 0000.0001) %MON dynstat_wvel_max             =   2.4144197331872E-04
(PID.TID 0000.0001) %MON dynstat_wvel_min             =  -2.4342104878860E-04
(PID.TID 0000.0001) %MON dynstat_wvel_mean            =   8.2238043305691E-22
(PID.TID 0000.0001) %MON dynstat_wvel_sd              =   3.0853612026490E-05
(PID.TID 0000.0001) %MON dynstat_wvel_del2            =   9.1750614780230E-06
(PID.TID 0000.0001) %MON dynstat_theta_max            =   2.9685392078598E+01
(PID.TID 0000.0001) %MON dynstat_theta_min            =  -1.9006943933383E+00
(PID.TID 0000.0001) %MON dynstat_theta_mean           =   3.6140008744171E+00
(PID.TID 0000.0001) %MON dynstat_theta_sd             =   4.4042331659463E+00
(PID.TID 0000.0001) %MON dynstat_theta_del2           =   1.4517556556776E-01
(PID.TID 0000.0001) %MON dynstat_salt_max             =   3.7452233141913E+01
(PID.TID 0000.0001) %MON dynstat_salt_min             =   2.9772225843423E+01
(PID.TID 0000.0001) %MON dynstat_salt_mean            =   3.4717531327711E+01
(PID.TID 0000.0001) %MON dynstat_salt_sd              =   2.9592166665637E-01
(PID.TID 0000.0001) %MON dynstat_salt_del2            =   2.6124760600528E-02
(PID.TID 0000.0001) %MON dynstat_sst_max              =   2.9685392078598E+01
(PID.TID 0000.0001) %MON dynstat_sst_min              =  -1.9006943933383E+00
(PID.TID 0000.0001) %MON dynstat_sst_mean             =   1.8442047836161E+01
(PID.TID 0000.0001) %MON dynstat_sst_sd               =   9.1474795609760E+00
(PID.TID 0000.0001) %MON dynstat_sst_del2             =   2.7556334601074E-01
(PID.TID 0000.0001) %MON dynstat_sss_max              =   3.7452233141913E+01
(PID.TID 0000.0001) %MON dynstat_sss_min              =   2.9772225843423E+01
(PID.TID 0000.0001) %MON dynstat_sss_mean             =   3.4852951887808E+01
(PID.TID 0000.0001) %MON dynstat_sss_sd               =   9.6113834224757E-01
(PID.TID 0000.0001) %MON dynstat_sss_del2             =   8.2346911726513E-02
(PID.TID 0000.0001) %MON extforcing_qnet_max          =   4.2798718261719E+02
(PID.TID 0000.0001) %MON extforcing_qnet_min          =  -1.8609266001383E+02
(PID.TID 0000.0001) %MON extforcing_qnet_mean         =  -1.6675181426744E+01
(PID.TID 0000.0001) %MON extforcing_qnet_sd           =   1.1242481361476E+02
(PID.TID 0000.0001) %MON extforcing_qnet_del2         =   9.4925698128427E+00
(PID.TID 0000.0001) %MON extforcing_qsw_max           =   0.0000000000000E+00
(PID.TID 0000.0001) %MON extforcing_qsw_min           =   0.0000000000000E+00
(PID.TID 0000.0001) %MON extforcing_qsw_mean          =   0.0000000000000E+00
(PID.TID 0000.0001) %MON extforcing_qsw_sd            =   0.0000000000000E+00
(PID.TID 0000.0001) %MON extforcing_qsw_del2          =   0.0000000000000E+00
(PID.TID 0000.0001) %MON extforcing_empmr_max         =   0.0000000000000E+00
(PID.TID 0000.0001) %MON extforcing_empmr_min         =   0.0000000000000E+00
(PID.TID 0000.0001) %MON extforcing_empmr_mean        =   0.0000000000000E+00
(PID.TID 0000.0001) %MON extforcing_empmr_sd          =   0.0000000000000E+00
(PID.TID 0000.0001) %MON extforcing_empmr_del2        =   0.0000000000000E+00
(PID.TID 0000.0001) %MON extforcing_fu_max            =   2.7317289412022E-01
(PID.TID 0000.0001) %MON extforcing_fu_min            =  -1.6030610948801E-01
(PID.TID 0000.0001) %MON extforcing_fu_mean           =   1.6101741826049E-02
(PID.TID 0000.0001) %MON extforcing_fu_sd             =   9.0133772222350E-02
(PID.TID 0000.0001) %MON extforcing_fu_del2           =   7.3624077517240E-03
(PID.TID 0000.0001) %MON extforcing_fv_max            =   2.0930016835531E-01
(PID.TID 0000.0001) %MON extforcing_fv_min            =  -1.8573744744062E-01
(PID.TID 0000.0001) %MON extforcing_fv_mean           =  -6.2178105886955E-03
(PID.TID 0000.0001) %MON extforcing_fv_sd             =   4.5379778517573E-02
(PID.TID 0000.0001) %MON extforcing_fv_del2           =   4.3389629098033E-03
(PID.TID 0000.0001) %MON advcfl_uvel_max              =   1.2397348773879E-02
(PID.TID 0000.0001) %MON advcfl_vvel_max              =   5.8073446658025E-03
(PID.TID 0000.0001) %MON advcfl_wvel_max              =   2.4906960871507E-01
(PID.TID 0000.0001) %MON advcfl_W_hf_max              =   2.5119257835215E-01
(PID.TID 0000.0001) %MON pe_b_mean                    =   2.9463863109354E-05
(PID.TID 0000.0001) %MON ke_max                       =   1.8390779592708E-03
(PID.TID 0000.0001) %MON ke_mean                      =   9.0863873125871E-05
(PID.TID 0000.0001) %MON ke_vol                       =   1.3226782436723E+18
(PID.TID 0000.0001) %MON vort_r_min                   =  -2.5855248752499E-07
(PID.TID 0000.0001) %MON vort_r_max                   =   2.9342031541783E-07
(PID.TID 0000.0001) %MON vort_a_mean                  =  -2.5205769224038E-05
(PID.TID 0000.0001) %MON vort_a_sd                    =   7.3402658250199E-05
(PID.TID 0000.0001) %MON vort_p_mean                  =  -3.1758916966957E-05
(PID.TID 0000.0001) %MON vort_p_sd                    =   1.3126588386664E-04
(PID.TID 0000.0001) %MON surfExpan_theta_mean         =   1.5187042232746E-04
(PID.TID 0000.0001) %MON surfExpan_salt_mean          =   1.2470266697454E-05
(PID.TID 0000.0001) // =======================================================
(PID.TID 0000.0001) // End MONITOR dynamic field statistics
(PID.TID 0000.0001) // =======================================================
time,SST,SSS,fu,fv,Q,E-P,i0,i1,a,b =   2.1600E+05  2.0403E-01  3.4422E+01 -3.9689E-02 -6.2670E-02  2.6521E+02  0.0000E+00    12     1  5.8333E-01  4.1667E-01
time,fu0,fu1,fu =   2.1600E+05 -4.5368E-02 -3.5633E-02 -3.9689E-02  5.833333333333334E-01  4.166666666666666E-01
 ph-test a  1 1
 ph-test b  1
 ph-test a  1 2
 ph-test b  1
 ph-test a  1 3
 ph-test b  1
 ph-test a  1 4
 ph-test b  1
 ph-test a  1 5
 ph-test b  1
 ph-test a  1 6
 ph-test b  1
 ph-test a  1 7
 ph-test b  1
 ph-test a  1 8
 ph-test b  1
 ph-test a  1 9
 ph-test b  1
 ph-test a  1 10
 ph-test b  1
 ph-test a  1 11
 ph-test b  1
 ph-test a  1 12
 ph-test b  1
 ph-test a  1 13
 ph-test b  1
 ph-test a  1 14
 ph-test b  1
 ph-test a  1 15
 ph-test b  1
 cg2d: Sum(rhs),rhsMax =  -3.07288916534532E-14  6.87448893655102E+00
(PID.TID 0000.0001)                    cg2d_init_res =    1.74914864670350E+00
(PID.TID 0000.0001)                       cg2d_iters =    26
(PID.TID 0000.0001)                         cg2d_res =    2.85863959514547E-14
(PID.TID 0000.0001) // =======================================================
(PID.TID 0000.0001) // Begin MONITOR dynamic field statistics
(PID.TID 0000.0001) // =======================================================
(PID.TID 0000.0001) %MON time_tsnumber                =                     6
(PID.TID 0000.0001) %MON time_secondsf                =   2.5920000000000E+05
(PID.TID 0000.0001) %MON dynstat_eta_max              =   7.2942023976604E-01
(PID.TID 0000.0001) %MON dynstat_eta_min              =  -6.3776926102126E-01
(PID.TID 0000.0001) %MON dynstat_eta_mean             =   2.4671502613573E-17
(PID.TID 0000.0001) %MON dynstat_eta_sd               =   1.7934827662730E-01
(PID.TID 0000.0001) %MON dynstat_eta_del2             =   2.7888207805963E-02
(PID.TID 0000.0001) %MON dynstat_uvel_max             =   6.8683608683559E-02
(PID.TID 0000.0001) %MON dynstat_uvel_min             =  -6.3266535718325E-02
(PID.TID 0000.0001) %MON dynstat_uvel_mean            =  -4.1886586204770E-03
(PID.TID 0000.0001) %MON dynstat_uvel_sd              =   6.5889097978839E-03
(PID.TID 0000.0001) %MON dynstat_uvel_del2            =   2.1936242526156E-03
(PID.TID 0000.0001) %MON dynstat_vvel_max             =   6.9442400307800E-02
(PID.TID 0000.0001) %MON dynstat_vvel_min             =  -5.9096781001214E-02
(PID.TID 0000.0001) %MON dynstat_vvel_mean            =   4.3862462392663E-03
(PID.TID 0000.0001) %MON dynstat_vvel_sd              =   1.3457897043369E-02
(PID.TID 0000.0001) %MON dynstat_vvel_del2            =   2.5131766368832E-03
(PID.TID 0000.0001) %MON dynstat_wvel_max             =   2.6801095704623E-04
(PID.TID 0000.0001) %MON dynstat_wvel_min             =  -2.7402880783603E-04
(PID.TID 0000.0001) %MON dynstat_wvel_mean            =   1.1783041338981E-21
(PID.TID 0000.0001) %MON dynstat_wvel_sd              =   3.2780929838163E-05
(PID.TID 0000.0001) %MON dynstat_wvel_del2            =   1.0424889773714E-05
(PID.TID 0000.0001) %MON dynstat_theta_max            =   2.9685309106325E+01
(PID.TID 0000.0001) %MON dynstat_theta_min            =  -1.9008743475296E+00
(PID.TID 0000.0001) %MON dynstat_theta_mean           =   3.6122468236356E+00
(PID.TID 0000.0001) %MON dynstat_theta_sd             =   4.4003721100419E+00
(PID.TID 0000.0001) %MON dynstat_theta_del2           =   1.4438806182129E-01
(PID.TID 0000.0001) %MON dynstat_salt_max             =   3.7447774596172E+01
(PID.TID 0000.0001) %MON dynstat_salt_min             =   2.9777114338371E+01
(PID.TID 0000.0001) %MON dynstat_salt_mean            =   3.4717386048168E+01
(PID.TID 0000.0001) %MON dynstat_salt_sd              =   2.9588316649516E-01
(PID.TID 0000.0001) %MON dynstat_salt_del2            =   2.6017308581565E-02
(PID.TID 0000.0001) %MON dynstat_sst_max              =   2.9685309106325E+01
(PID.TID 0000.0001) %MON dynstat_sst_min              =  -1.9008743475296E+00
(PID.TID 0000.0001) %MON dynstat_sst_mean             =   1.8432229920135E+01
(PID.TID 0000.0001) %MON dynstat_sst_sd               =   9.1396283311152E+00
(PID.TID 0000.0001) %MON dynstat_sst_del2             =   2.7473528570894E-01
(PID.TID 0000.0001) %MON dynstat_sss_max              =   3.7447774596172E+01
(PID.TID 0000.0001) %MON dynstat_sss_min              =   2.9777114338371E+01
(PID.TID 0000.0001) %MON dynstat_sss_mean             =   3.4853555491168E+01
(PID.TID 0000.0001) %MON dynstat_sss_sd               =   9.6087563222890E-01
(PID.TID 0000.0001) %MON dynstat_sss_del2             =   8.2040914069054E-02
(PID.TID 0000.0001) %MON extforcing_qnet_max          =   4.2851127624512E+02
(PID.TID 0000.0001) %MON extforcing_qnet_min          =  -1.8585907872518E+02
(PID.TID 0000.0001) %MON extforcing_qnet_mean         =  -1.6668925448832E+01
(PID.TID 0000.0001) %MON extforcing_qnet_sd           =   1.1231844797748E+02
(PID.TID 0000.0001) %MON extforcing_qnet_del2         =   9.4938612179245E+00
(PID.TID 0000.0001) %MON extforcing_qsw_max           =   0.0000000000000E+00
(PID.TID 0000.0001) %MON extforcing_qsw_min           =   0.0000000000000E+00
(PID.TID 0000.0001) %MON extforcing_qsw_mean          =   0.0000000000000E+00
(PID.TID 0000.0001) %MON extforcing_qsw_sd            =   0.0000000000000E+00
(PID.TID 0000.0001) %MON extforcing_qsw_del2          =   0.0000000000000E+00
(PID.TID 0000.0001) %MON extforcing_empmr_max         =   0.0000000000000E+00
(PID.TID 0000.0001) %MON extforcing_empmr_min         =   0.0000000000000E+00
(PID.TID 0000.0001) %MON extforcing_empmr_mean        =   0.0000000000000E+00
(PID.TID 0000.0001) %MON extforcing_empmr_sd          =   0.0000000000000E+00
(PID.TID 0000.0001) %MON extforcing_empmr_del2        =   0.0000000000000E+00
(PID.TID 0000.0001) %MON extforcing_fu_max            =   2.7274361997843E-01
(PID.TID 0000.0001) %MON extforcing_fu_min            =  -1.6071281954646E-01
(PID.TID 0000.0001) %MON extforcing_fu_mean           =   1.6097895415531E-02
(PID.TID 0000.0001) %MON extforcing_fu_sd             =   9.0135716811571E-02
(PID.TID 0000.0001) %MON extforcing_fu_del2           =   7.3621867243110E-03
(PID.TID 0000.0001) %MON extforcing_fv_max            =   2.0962250605226E-01
(PID.TID 0000.0001) %MON extforcing_fv_min            =  -1.8544511869550E-01
(PID.TID 0000.0001) %MON extforcing_fv_mean           =  -6.1809293252652E-03
(PID.TID 0000.0001) %MON extforcing_fv_sd             =   4.5444816425210E-02
(PID.TID 0000.0001) %MON extforcing_fv_del2           =   4.3430368437716E-03
(PID.TID 0000.0001) %MON advcfl_uvel_max              =   1.5124725931577E-02
(PID.TID 0000.0001) %MON advcfl_vvel_max              =   6.7457723288014E-03
(PID.TID 0000.0001) %MON advcfl_wvel_max              =   2.1704593014666E-01
(PID.TID 0000.0001) %MON advcfl_W_hf_max              =   2.2369837295195E-01
(PID.TID 0000.0001) %MON pe_b_mean                    =   4.1160023674638E-05
(PID.TID 0000.0001) %MON ke_max                       =   2.4623687488703E-03
(PID.TID 0000.0001) %MON ke_mean                      =   1.1764103090609E-04
(PID.TID 0000.0001) %MON ke_vol                       =   1.3226782436723E+18
(PID.TID 0000.0001) %MON vort_r_min                   =  -2.9724219677515E-07
(PID.TID 0000.0001) %MON vort_r_max                   =   3.3384265333094E-07
(PID.TID 0000.0001) %MON vort_a_mean                  =  -2.5205769235915E-05
(PID.TID 0000.0001) %MON vort_a_sd                    =   7.3402480553117E-05
(PID.TID 0000.0001) %MON vort_p_mean                  =  -3.1758928154173E-05
(PID.TID 0000.0001) %MON vort_p_sd                    =   1.3126556066690E-04
(PID.TID 0000.0001) %MON surfExpan_theta_mean         =   1.6280223621577E-04
(PID.TID 0000.0001) %MON surfExpan_salt_mean          =   1.3229658685418E-05
(PID.TID 0000.0001) // =======================================================
(PID.TID 0000.0001) // End MONITOR dynamic field statistics
(PID.TID 0000.0001) // =======================================================
time,SST,SSS,fu,fv,Q,E-P,i0,i1,a,b =   2.5920E+05  2.3421E-01  3.4434E+01 -3.9527E-02 -6.2453E-02  2.6523E+02  0.0000E+00    12     1  6.0000E-01  4.0000E-01
time,fu0,fu1,fu =   2.5920E+05 -4.5368E-02 -3.5633E-02 -3.9527E-02  6.000000000000000E-01  4.000000000000000E-01
 ph-test a  1 1
 ph-test b  1
 ph-test a  1 2
 ph-test b  1
 ph-test a  1 3
 ph-test b  1
 ph-test a  1 4
 ph-test b  1
 ph-test a  1 5
 ph-test b  1
 ph-test a  1 6
 ph-test b  1
 ph-test a  1 7
 ph-test b  1
 ph-test a  1 8
 ph-test b  1
 ph-test a  1 9
 ph-test b  1
 ph-test a  1 10
 ph-test b  1
 ph-test a  1 11
 ph-test b  1
 ph-test a  1 12
 ph-test b  1
 ph-test a  1 13
 ph-test b  1
 ph-test a  1 14
 ph-test b  1
 ph-test a  1 15
 ph-test b  1
 cg2d: Sum(rhs),rhsMax =   6.34483784955897E-14  7.24604825999480E+00
(PID.TID 0000.0001)                    cg2d_init_res =    1.60124959970902E+00
(PID.TID 0000.0001)                       cg2d_iters =    26
(PID.TID 0000.0001)                         cg2d_res =    2.68620752196897E-14
(PID.TID 0000.0001) // =======================================================
(PID.TID 0000.0001) // Begin MONITOR dynamic field statistics
(PID.TID 0000.0001) // =======================================================
(PID.TID 0000.0001) %MON time_tsnumber                =                     7
(PID.TID 0000.0001) %MON time_secondsf                =   3.0240000000000E+05
(PID.TID 0000.0001) %MON dynstat_eta_max              =   8.3330475999689E-01
(PID.TID 0000.0001) %MON dynstat_eta_min              =  -6.9228582888448E-01
(PID.TID 0000.0001) %MON dynstat_eta_mean             =   7.5528617837651E-17
(PID.TID 0000.0001) %MON dynstat_eta_sd               =   2.0605491531995E-01
(PID.TID 0000.0001) %MON dynstat_eta_del2             =   2.6726827585263E-02
(PID.TID 0000.0001) %MON dynstat_uvel_max             =   8.0311666471851E-02
(PID.TID 0000.0001) %MON dynstat_uvel_min             =  -7.7883955814436E-02
(PID.TID 0000.0001) %MON dynstat_uvel_mean            =  -5.1548064611583E-03
(PID.TID 0000.0001) %MON dynstat_uvel_sd              =   7.9082636204104E-03
(PID.TID 0000.0001) %MON dynstat_uvel_del2            =   2.4747643974175E-03
(PID.TID 0000.0001) %MON dynstat_vvel_max             =   7.9276780820161E-02
(PID.TID 0000.0001) %MON dynstat_vvel_min             =  -6.9988089707862E-02
(PID.TID 0000.0001) %MON dynstat_vvel_mean            =   4.7623529237119E-03
(PID.TID 0000.0001) %MON dynstat_vvel_sd              =   1.4434742129696E-02
(PID.TID 0000.0001) %MON dynstat_vvel_del2            =   2.8069008215966E-03
(PID.TID 0000.0001) %MON dynstat_wvel_max             =   2.8902949888871E-04
(PID.TID 0000.0001) %MON dynstat_wvel_min             =  -2.9867972512089E-04
(PID.TID 0000.0001) %MON dynstat_wvel_mean            =   1.8803689379708E-21
(PID.TID 0000.0001) %MON dynstat_wvel_sd              =   3.4639226473653E-05
(PID.TID 0000.0001) %MON dynstat_wvel_del2            =   1.1633969846129E-05
(PID.TID 0000.0001) %MON dynstat_theta_max            =   2.9685603143295E+01
(PID.TID 0000.0001) %MON dynstat_theta_min            =  -1.9010527526165E+00
(PID.TID 0000.0001) %MON dynstat_theta_mean           =   3.6104297851872E+00
(PID.TID 0000.0001) %MON dynstat_theta_sd             =   4.3962971076112E+00
(PID.TID 0000.0001) %MON dynstat_theta_del2           =   1.4354905179408E-01
(PID.TID 0000.0001) %MON dynstat_salt_max             =   3.7443550214739E+01
(PID.TID 0000.0001) %MON dynstat_salt_min             =   2.9781733822850E+01
(PID.TID 0000.0001) %MON dynstat_salt_mean            =   3.4717237769919E+01
(PID.TID 0000.0001) %MON dynstat_salt_sd              =   2.9583597665475E-01
(PID.TID 0000.0001) %MON dynstat_salt_del2            =   2.5913023595630E-02
(PID.TID 0000.0001) %MON dynstat_sst_max              =   2.9685603143295E+01
(PID.TID 0000.0001) %MON dynstat_sst_min              =  -1.9010527526165E+00
(PID.TID 0000.0001) %MON dynstat_sst_mean             =   1.8422599602821E+01
(PID.TID 0000.0001) %MON dynstat_sst_sd               =   9.1312330736868E+00
(PID.TID 0000.0001) %MON dynstat_sst_del2             =   2.7405675468804E-01
(PID.TID 0000.0001) %MON dynstat_sss_max              =   3.7443550214739E+01
(PID.TID 0000.0001) %MON dynstat_sss_min              =   2.9781733822850E+01
(PID.TID 0000.0001) %MON dynstat_sss_mean             =   3.4854144565510E+01
(PID.TID 0000.0001) %MON dynstat_sss_sd               =   9.6059156299680E-01
(PID.TID 0000.0001) %MON dynstat_sss_del2             =   8.1740969537950E-02
(PID.TID 0000.0001) %MON extforcing_qnet_max          =   4.2903536987305E+02
(PID.TID 0000.0001) %MON extforcing_qnet_min          =  -1.8562549743652E+02
(PID.TID 0000.0001) %MON extforcing_qnet_mean         =  -1.6662669470921E+01
(PID.TID 0000.0001) %MON extforcing_qnet_sd           =   1.1221272517031E+02
(PID.TID 0000.0001) %MON extforcing_qnet_del2         =   9.4953524693249E+00
(PID.TID 0000.0001) %MON extforcing_qsw_max           =   0.0000000000000E+00
(PID.TID 0000.0001) %MON extforcing_qsw_min           =   0.0000000000000E+00
(PID.TID 0000.0001) %MON extforcing_qsw_mean          =   0.0000000000000E+00
(PID.TID 0000.0001) %MON extforcing_qsw_sd            =   0.0000000000000E+00
(PID.TID 0000.0001) %MON extforcing_qsw_del2          =   0.0000000000000E+00
(PID.TID 0000.0001) %MON extforcing_empmr_max         =   0.0000000000000E+00
(PID.TID 0000.0001) %MON extforcing_empmr_min         =   0.0000000000000E+00
(PID.TID 0000.0001) %MON extforcing_empmr_mean        =   0.0000000000000E+00
(PID.TID 0000.0001) %MON extforcing_empmr_sd          =   0.0000000000000E+00
(PID.TID 0000.0001) %MON extforcing_empmr_del2        =   0.0000000000000E+00
(PID.TID 0000.0001) %MON extforcing_fu_max            =   2.7231434583664E-01
(PID.TID 0000.0001) %MON extforcing_fu_min            =  -1.6111952960491E-01
(PID.TID 0000.0001) %MON extforcing_fu_mean           =   1.6094049005012E-02
(PID.TID 0000.0001) %MON extforcing_fu_sd             =   9.0140377513934E-02
(PID.TID 0000.0001) %MON extforcing_fu_del2           =   7.3624722576328E-03
(PID.TID 0000.0001) %MON extforcing_fv_max            =   2.1056245863438E-01
(PID.TID 0000.0001) %MON extforcing_fv_min            =  -1.8515278995037E-01
(PID.TID 0000.0001) %MON extforcing_fv_mean           =  -6.1440480618347E-03
(PID.TID 0000.0001) %MON extforcing_fv_sd             =   4.5513649503191E-02
(PID.TID 0000.0001) %MON extforcing_fv_del2           =   4.3482985726563E-03
(PID.TID 0000.0001) %MON advcfl_uvel_max              =   1.7542109138466E-02
(PID.TID 0000.0001) %MON advcfl_vvel_max              =   7.7011035333268E-03
(PID.TID 0000.0001) %MON advcfl_wvel_max              =   1.8518793396455E-01
(PID.TID 0000.0001) %MON advcfl_W_hf_max              =   1.8713699424149E-01
(PID.TID 0000.0001) %MON pe_b_mean                    =   5.4330932347789E-05
(PID.TID 0000.0001) %MON ke_max                       =   3.2231361940980E-03
(PID.TID 0000.0001) %MON ke_mean                      =   1.4420862768412E-04
(PID.TID 0000.0001) %MON ke_vol                       =   1.3226782436723E+18
(PID.TID 0000.0001) %MON vort_r_min                   =  -3.2735874594351E-07
(PID.TID 0000.0001) %MON vort_r_max                   =   3.6723788930887E-07
(PID.TID 0000.0001) %MON vort_a_mean                  =  -2.5205769289624E-05
(PID.TID 0000.0001) %MON vort_a_sd                    =   7.3402298297708E-05
(PID.TID 0000.0001) %MON vort_p_mean                  =  -3.1758932381593E-05
(PID.TID 0000.0001) %MON vort_p_sd                    =   1.3126518254605E-04
(PID.TID 0000.0001) %MON surfExpan_theta_mean         =   1.6883492170389E-04
(PID.TID 0000.0001) %MON surfExpan_salt_mean          =   1.3513818555051E-05
(PID.TID 0000.0001) // =======================================================
(PID.TID 0000.0001) // End MONITOR dynamic field statistics
(PID.TID 0000.0001) // =======================================================
time,SST,SSS,fu,fv,Q,E-P,i0,i1,a,b =   3.0240E+05  2.6438E-01  3.4446E+01 -3.9365E-02 -6.2237E-02  2.6525E+02  0.0000E+00    12     1  6.1667E-01  3.8333E-01
time,fu0,fu1,fu =   3.0240E+05 -4.5368E-02 -3.5633E-02 -3.9365E-02  6.166666666666667E-01  3.833333333333333E-01
 ph-test a  1 1
 ph-test b  1
 ph-test a  1 2
 ph-test b  1
 ph-test a  1 3
 ph-test b  1
 ph-test a  1 4
 ph-test b  1
 ph-test a  1 5
 ph-test b  1
 ph-test a  1 6
 ph-test b  1
 ph-test a  1 7
 ph-test b  1
 ph-test a  1 8
 ph-test b  1
 ph-test a  1 9
 ph-test b  1
 ph-test a  1 10
 ph-test b  1
 ph-test a  1 11
 ph-test b  1
 ph-test a  1 12
 ph-test b  1
 ph-test a  1 13
 ph-test b  1
 ph-test a  1 14
 ph-test b  1
 ph-test a  1 15
 ph-test b  1
 cg2d: Sum(rhs),rhsMax =  -1.32228429594594E-13  7.86362075184324E+00
(PID.TID 0000.0001)                    cg2d_init_res =    1.42017315167664E+00
(PID.TID 0000.0001)                       cg2d_iters =    26
(PID.TID 0000.0001)                         cg2d_res =    2.40100689287216E-14
(PID.TID 0000.0001) // =======================================================
(PID.TID 0000.0001) // Begin MONITOR dynamic field statistics
(PID.TID 0000.0001) // =======================================================
(PID.TID 0000.0001) %MON time_tsnumber                =                     8
(PID.TID 0000.0001) %MON time_secondsf                =   3.4560000000000E+05
(PID.TID 0000.0001) %MON dynstat_eta_max              =   9.0763574793209E-01
(PID.TID 0000.0001) %MON dynstat_eta_min              =  -7.2733794292860E-01
(PID.TID 0000.0001) %MON dynstat_eta_mean             =  -4.9843581312580E-17
(PID.TID 0000.0001) %MON dynstat_eta_sd               =   2.3172087194782E-01
(PID.TID 0000.0001) %MON dynstat_eta_del2             =   2.5973931769629E-02
(PID.TID 0000.0001) %MON dynstat_uvel_max             =   9.1289782691991E-02
(PID.TID 0000.0001) %MON dynstat_uvel_min             =  -9.8256083425165E-02
(PID.TID 0000.0001) %MON dynstat_uvel_mean            =  -6.1149355394694E-03
(PID.TID 0000.0001) %MON dynstat_uvel_sd              =   9.2425563939440E-03
(PID.TID 0000.0001) %MON dynstat_uvel_del2            =   2.7311034214727E-03
(PID.TID 0000.0001) %MON dynstat_vvel_max             =   8.5918528206887E-02
(PID.TID 0000.0001) %MON dynstat_vvel_min             =  -7.9887027634962E-02
(PID.TID 0000.0001) %MON dynstat_vvel_mean            =   5.0111477944096E-03
(PID.TID 0000.0001) %MON dynstat_vvel_sd              =   1.5116869171544E-02
(PID.TID 0000.0001) %MON dynstat_vvel_del2            =   3.0555197056918E-03
(PID.TID 0000.0001) %MON dynstat_wvel_max             =   3.0362519279375E-04
(PID.TID 0000.0001) %MON dynstat_wvel_min             =  -3.1694155280133E-04
(PID.TID 0000.0001) %MON dynstat_wvel_mean            =   1.6248516170511E-22
(PID.TID 0000.0001) %MON dynstat_wvel_sd              =   3.6233259882789E-05
(PID.TID 0000.0001) %MON dynstat_wvel_del2            =   1.2607330342682E-05
(PID.TID 0000.0001) %MON dynstat_theta_max            =   2.9676694809179E+01
(PID.TID 0000.0001) %MON dynstat_theta_min            =  -1.9012376090002E+00
(PID.TID 0000.0001) %MON dynstat_theta_mean           =   3.6085981834627E+00
(PID.TID 0000.0001) %MON dynstat_theta_sd             =   4.3920820944454E+00
(PID.TID 0000.0001) %MON dynstat_theta_del2           =   1.4264595482144E-01
(PID.TID 0000.0001) %MON dynstat_salt_max             =   3.7439672916546E+01
(PID.TID 0000.0001) %MON dynstat_salt_min             =   2.9785854841235E+01
(PID.TID 0000.0001) %MON dynstat_salt_mean            =   3.4717090996727E+01
(PID.TID 0000.0001) %MON dynstat_salt_sd              =   2.9577986064370E-01
(PID.TID 0000.0001) %MON dynstat_salt_del2            =   2.5811083880370E-02
(PID.TID 0000.0001) %MON dynstat_sst_max              =   2.9676694809179E+01
(PID.TID 0000.0001) %MON dynstat_sst_min              =  -1.9012376090002E+00
(PID.TID 0000.0001) %MON dynstat_sst_mean             =   1.8413364758992E+01
(PID.TID 0000.0001) %MON dynstat_sst_sd               =   9.1227469439142E+00
(PID.TID 0000.0001) %MON dynstat_sst_del2             =   2.7332308076997E-01
(PID.TID 0000.0001) %MON dynstat_sss_max              =   3.7439672916546E+01
(PID.TID 0000.0001) %MON dynstat_sss_min              =   2.9785854841235E+01
(PID.TID 0000.0001) %MON dynstat_sss_mean             =   3.4854754798810E+01
(PID.TID 0000.0001) %MON dynstat_sss_sd               =   9.6035205786331E-01
(PID.TID 0000.0001) %MON dynstat_sss_del2             =   8.1406085130364E-02
(PID.TID 0000.0001) %MON extforcing_qnet_max          =   4.2955946350098E+02
(PID.TID 0000.0001) %MON extforcing_qnet_min          =  -1.8539191614787E+02
(PID.TID 0000.0001) %MON extforcing_qnet_mean         =  -1.6656413493009E+01
(PID.TID 0000.0001) %MON extforcing_qnet_sd           =   1.1210764701191E+02
(PID.TID 0000.0001) %MON extforcing_qnet_del2         =   9.4970235630898E+00
(PID.TID 0000.0001) %MON extforcing_qsw_max           =   0.0000000000000E+00
(PID.TID 0000.0001) %MON extforcing_qsw_min           =   0.0000000000000E+00
(PID.TID 0000.0001) %MON extforcing_qsw_mean          =   0.0000000000000E+00
(PID.TID 0000.0001) %MON extforcing_qsw_sd            =   0.0000000000000E+00
(PID.TID 0000.0001) %MON extforcing_qsw_del2          =   0.0000000000000E+00
(PID.TID 0000.0001) %MON extforcing_empmr_max         =   0.0000000000000E+00
(PID.TID 0000.0001) %MON extforcing_empmr_min         =   0.0000000000000E+00
(PID.TID 0000.0001) %MON extforcing_empmr_mean        =   0.0000000000000E+00
(PID.TID 0000.0001) %MON extforcing_empmr_sd          =   0.0000000000000E+00
(PID.TID 0000.0001) %MON extforcing_empmr_del2        =   0.0000000000000E+00
(PID.TID 0000.0001) %MON extforcing_fu_max            =   2.7188507169485E-01
(PID.TID 0000.0001) %MON extforcing_fu_min            =  -1.6152623966336E-01
(PID.TID 0000.0001) %MON extforcing_fu_mean           =   1.6090202594494E-02
(PID.TID 0000.0001) %MON extforcing_fu_sd             =   9.0147753908164E-02
(PID.TID 0000.0001) %MON extforcing_fu_del2           =   7.3633563637293E-03
(PID.TID 0000.0001) %MON extforcing_fv_max            =   2.1150241121650E-01
(PID.TID 0000.0001) %MON extforcing_fv_min            =  -1.8486046120524E-01
(PID.TID 0000.0001) %MON extforcing_fv_mean           =  -6.1071667984044E-03
(PID.TID 0000.0001) %MON extforcing_fv_sd             =   4.5586260559939E-02
(PID.TID 0000.0001) %MON extforcing_fv_del2           =   4.3545288127825E-03
(PID.TID 0000.0001) %MON advcfl_uvel_max              =   1.8662572674719E-02
(PID.TID 0000.0001) %MON advcfl_vvel_max              =   8.3462960315365E-03
(PID.TID 0000.0001) %MON advcfl_wvel_max              =   1.9982913712440E-01
(PID.TID 0000.0001) %MON advcfl_W_hf_max              =   2.0469210734501E-01
(PID.TID 0000.0001) %MON pe_b_mean                    =   6.8708664671576E-05
(PID.TID 0000.0001) %MON ke_max                       =   4.2178297232013E-03
(PID.TID 0000.0001) %MON ke_mean                      =   1.6966237774923E-04
(PID.TID 0000.0001) %MON ke_vol                       =   1.3226782436723E+18
(PID.TID 0000.0001) %MON vort_r_min                   =  -3.4908850823041E-07
(PID.TID 0000.0001) %MON vort_r_max                   =   4.4742806107854E-07
(PID.TID 0000.0001) %MON vort_a_mean                  =  -2.5205769381666E-05
(PID.TID 0000.0001) %MON vort_a_sd                    =   7.3402116731231E-05
(PID.TID 0000.0001) %MON vort_p_mean                  =  -3.1758934544522E-05
(PID.TID 0000.0001) %MON vort_p_sd                    =   1.3126477721600E-04
(PID.TID 0000.0001) %MON surfExpan_theta_mean         =   1.7045721847084E-04
(PID.TID 0000.0001) %MON surfExpan_salt_mean          =   1.3387591504292E-05
(PID.TID 0000.0001) // =======================================================
(PID.TID 0000.0001) // End MONITOR dynamic field statistics
(PID.TID 0000.0001) // =======================================================
time,SST,SSS,fu,fv,Q,E-P,i0,i1,a,b =   3.4560E+05  2.9456E-01  3.4457E+01 -3.9202E-02 -6.2020E-02  2.6528E+02  0.0000E+00    12     1  6.3333E-01  3.6667E-01
time,fu0,fu1,fu =   3.4560E+05 -4.5368E-02 -3.5633E-02 -3.9202E-02  6.333333333333333E-01  3.666666666666667E-01
 ph-test a  1 1
 ph-test b  1
 ph-test a  1 2
 ph-test b  1
 ph-test a  1 3
 ph-test b  1
 ph-test a  1 4
 ph-test b  1
 ph-test a  1 5
 ph-test b  1
 ph-test a  1 6
 ph-test b  1
 ph-test a  1 7
 ph-test b  1
 ph-test a  1 8
 ph-test b  1
 ph-test a  1 9
 ph-test b  1
 ph-test a  1 10
 ph-test b  1
 ph-test a  1 11
 ph-test b  1
 ph-test a  1 12
 ph-test b  1
 ph-test a  1 13
 ph-test b  1
 ph-test a  1 14
 ph-test b  1
 ph-test a  1 15
 ph-test b  1
 cg2d: Sum(rhs),rhsMax =   1.59362757365389E-13  8.20455160636556E+00
(PID.TID 0000.0001)                    cg2d_init_res =    1.31185355302239E+00
(PID.TID 0000.0001)                       cg2d_iters =    25
(PID.TID 0000.0001)                         cg2d_res =    9.72606185813798E-14
(PID.TID 0000.0001) // =======================================================
(PID.TID 0000.0001) // Begin MONITOR dynamic field statistics
(PID.TID 0000.0001) // =======================================================
(PID.TID 0000.0001) %MON time_tsnumber                =                     9
(PID.TID 0000.0001) %MON time_secondsf                =   3.8880000000000E+05
(PID.TID 0000.0001) %MON dynstat_eta_max              =   9.5084099432053E-01
(PID.TID 0000.0001) %MON dynstat_eta_min              =  -8.1207448094848E-01
(PID.TID 0000.0001) %MON dynstat_eta_mean             =  -6.8083654079368E-17
(PID.TID 0000.0001) %MON dynstat_eta_sd               =   2.5606319635482E-01
(PID.TID 0000.0001) %MON dynstat_eta_del2             =   2.5379827068781E-02
(PID.TID 0000.0001) %MON dynstat_uvel_max             =   1.0161798176423E-01
(PID.TID 0000.0001) %MON dynstat_uvel_min             =  -1.1617448372039E-01
(PID.TID 0000.0001) %MON dynstat_uvel_mean            =  -7.0383466983305E-03
(PID.TID 0000.0001) %MON dynstat_uvel_sd              =   1.0560404519407E-02
(PID.TID 0000.0001) %MON dynstat_uvel_del2            =   2.9606664726237E-03
(PID.TID 0000.0001) %MON dynstat_vvel_max             =   9.1086258216638E-02
(PID.TID 0000.0001) %MON dynstat_vvel_min             =  -8.8671708953934E-02
(PID.TID 0000.0001) %MON dynstat_vvel_mean            =   5.1329520208588E-03
(PID.TID 0000.0001) %MON dynstat_vvel_sd              =   1.5532112778401E-02
(PID.TID 0000.0001) %MON dynstat_vvel_del2            =   3.2605016809600E-03
(PID.TID 0000.0001) %MON dynstat_wvel_max             =   3.1072063943997E-04
(PID.TID 0000.0001) %MON dynstat_wvel_min             =  -3.2911932089219E-04
(PID.TID 0000.0001) %MON dynstat_wvel_mean            =  -2.4359012102037E-22
(PID.TID 0000.0001) %MON dynstat_wvel_sd              =   3.7410336762551E-05
(PID.TID 0000.0001) %MON dynstat_wvel_del2            =   1.3296561999245E-05
(PID.TID 0000.0001) %MON dynstat_theta_max            =   2.9658965475093E+01
(PID.TID 0000.0001) %MON dynstat_theta_min            =  -1.9014550004751E+00
(PID.TID 0000.0001) %MON dynstat_theta_mean           =   3.6067947139241E+00
(PID.TID 0000.0001) %MON dynstat_theta_sd             =   4.3877964443951E+00
(PID.TID 0000.0001) %MON dynstat_theta_del2           =   1.4173450894346E-01
(PID.TID 0000.0001) %MON dynstat_salt_max             =   3.7436164524035E+01
(PID.TID 0000.0001) %MON dynstat_salt_min             =   2.9789284874026E+01
(PID.TID 0000.0001) %MON dynstat_salt_mean            =   3.4716949581275E+01
(PID.TID 0000.0001) %MON dynstat_salt_sd              =   2.9571504315132E-01
(PID.TID 0000.0001) %MON dynstat_salt_del2            =   2.5716351337624E-02
(PID.TID 0000.0001) %MON dynstat_sst_max              =   2.9658965475093E+01
(PID.TID 0000.0001) %MON dynstat_sst_min              =  -1.9014550004751E+00
(PID.TID 0000.0001) %MON dynstat_sst_mean             =   1.8405008977315E+01
(PID.TID 0000.0001) %MON dynstat_sst_sd               =   9.1135830866876E+00
(PID.TID 0000.0001) %MON dynstat_sst_del2             =   2.7262418471085E-01
(PID.TID 0000.0001) %MON dynstat_sss_max              =   3.7436164524035E+01
(PID.TID 0000.0001) %MON dynstat_sss_min              =   2.9789284874026E+01
(PID.TID 0000.0001) %MON dynstat_sss_mean             =   3.4855421477470E+01
(PID.TID 0000.0001) %MON dynstat_sss_sd               =   9.6011128532233E-01
(PID.TID 0000.0001) %MON dynstat_sss_del2             =   8.1109058484646E-02
(PID.TID 0000.0001) %MON extforcing_qnet_max          =   4.3008355712891E+02
(PID.TID 0000.0001) %MON extforcing_qnet_min          =  -1.8515833485921E+02
(PID.TID 0000.0001) %MON extforcing_qnet_mean         =  -1.6650157515098E+01
(PID.TID 0000.0001) %MON extforcing_qnet_sd           =   1.1200321531664E+02
(PID.TID 0000.0001) %MON extforcing_qnet_del2         =   9.4991829492293E+00
(PID.TID 0000.0001) %MON extforcing_qsw_max           =   0.0000000000000E+00
(PID.TID 0000.0001) %MON extforcing_qsw_min           =   0.0000000000000E+00
(PID.TID 0000.0001) %MON extforcing_qsw_mean          =   0.0000000000000E+00
(PID.TID 0000.0001) %MON extforcing_qsw_sd            =   0.0000000000000E+00
(PID.TID 0000.0001) %MON extforcing_qsw_del2          =   0.0000000000000E+00
(PID.TID 0000.0001) %MON extforcing_empmr_max         =   0.0000000000000E+00
(PID.TID 0000.0001) %MON extforcing_empmr_min         =   0.0000000000000E+00
(PID.TID 0000.0001) %MON extforcing_empmr_mean        =   0.0000000000000E+00
(PID.TID 0000.0001) %MON extforcing_empmr_sd          =   0.0000000000000E+00
(PID.TID 0000.0001) %MON extforcing_empmr_del2        =   0.0000000000000E+00
(PID.TID 0000.0001) %MON extforcing_fu_max            =   2.7145579755306E-01
(PID.TID 0000.0001) %MON extforcing_fu_min            =  -1.6193294972181E-01
(PID.TID 0000.0001) %MON extforcing_fu_mean           =   1.6086356183975E-02
(PID.TID 0000.0001) %MON extforcing_fu_sd             =   9.0157845327697E-02
(PID.TID 0000.0001) %MON extforcing_fu_del2           =   7.3650677971764E-03
(PID.TID 0000.0001) %MON extforcing_fv_max            =   2.1244236379862E-01
(PID.TID 0000.0001) %MON extforcing_fv_min            =  -1.8456813246012E-01
(PID.TID 0000.0001) %MON extforcing_fv_mean           =  -6.0702855349739E-03
(PID.TID 0000.0001) %MON extforcing_fv_sd             =   4.5662631572644E-02
(PID.TID 0000.0001) %MON extforcing_fv_del2           =   4.3628461453053E-03
(PID.TID 0000.0001) %MON advcfl_uvel_max              =   1.8322867743503E-02
(PID.TID 0000.0001) %MON advcfl_vvel_max              =   8.8482995617714E-03
(PID.TID 0000.0001) %MON advcfl_wvel_max              =   2.0576074604323E-01
(PID.TID 0000.0001) %MON advcfl_W_hf_max              =   2.1697974387381E-01
(PID.TID 0000.0001) %MON pe_b_mean                    =   8.3902620434973E-05
(PID.TID 0000.0001) %MON ke_max                       =   5.3029713132449E-03
(PID.TID 0000.0001) %MON ke_mean                      =   1.9330499525600E-04
(PID.TID 0000.0001) %MON ke_vol                       =   1.3226782436723E+18
(PID.TID 0000.0001) %MON vort_r_min                   =  -3.9243622437809E-07
(PID.TID 0000.0001) %MON vort_r_max                   =   5.3491818046373E-07
(PID.TID 0000.0001) %MON vort_a_mean                  =  -2.5205769497937E-05
(PID.TID 0000.0001) %MON vort_a_sd                    =   7.3401941099240E-05
(PID.TID 0000.0001) %MON vort_p_mean                  =  -3.1758935507577E-05
(PID.TID 0000.0001) %MON vort_p_sd                    =   1.3126436166436E-04
(PID.TID 0000.0001) %MON surfExpan_theta_mean         =   1.6816795804438E-04
(PID.TID 0000.0001) %MON surfExpan_salt_mean          =   1.2908555466171E-05
(PID.TID 0000.0001) // =======================================================
(PID.TID 0000.0001) // End MONITOR dynamic field statistics
(PID.TID 0000.0001) // =======================================================
time,SST,SSS,fu,fv,Q,E-P,i0,i1,a,b =   3.8880E+05  3.2473E-01  3.4469E+01 -3.9040E-02 -6.1804E-02  2.6530E+02  0.0000E+00    12     1  6.5000E-01  3.5000E-01
time,fu0,fu1,fu =   3.8880E+05 -4.5368E-02 -3.5633E-02 -3.9040E-02  6.500000000000000E-01  3.500000000000000E-01
 ph-test a  1 1
 ph-test b  1
 ph-test a  1 2
 ph-test b  1
 ph-test a  1 3
 ph-test b  1
 ph-test a  1 4
 ph-test b  1
 ph-test a  1 5
 ph-test b  1
 ph-test a  1 6
 ph-test b  1
 ph-test a  1 7
 ph-test b  1
 ph-test a  1 8
 ph-test b  1
 ph-test a  1 9
 ph-test b  1
 ph-test a  1 10
 ph-test b  1
 ph-test a  1 11
 ph-test b  1
 ph-test a  1 12
 ph-test b  1
 ph-test a  1 13
 ph-test b  1
 ph-test a  1 14
 ph-test b  1
 ph-test a  1 15
 ph-test b  1
 cg2d: Sum(rhs),rhsMax =   7.87720583206308E-14  8.29866218269599E+00
(PID.TID 0000.0001)                    cg2d_init_res =    1.25159349345266E+00
(PID.TID 0000.0001)                       cg2d_iters =    25
(PID.TID 0000.0001)                         cg2d_res =    8.94510142164028E-14
(PID.TID 0000.0001) // =======================================================
(PID.TID 0000.0001) // Begin MONITOR dynamic field statistics
(PID.TID 0000.0001) // =======================================================
(PID.TID 0000.0001) %MON time_tsnumber                =                    10
(PID.TID 0000.0001) %MON time_secondsf                =   4.3200000000000E+05
(PID.TID 0000.0001) %MON dynstat_eta_max              =   9.6674006224312E-01
(PID.TID 0000.0001) %MON dynstat_eta_min              =  -8.6639062130151E-01
(PID.TID 0000.0001) %MON dynstat_eta_mean             =   4.1197588713272E-17
(PID.TID 0000.0001) %MON dynstat_eta_sd               =   2.7876147595862E-01
(PID.TID 0000.0001) %MON dynstat_eta_del2             =   2.4722774606894E-02
(PID.TID 0000.0001) %MON dynstat_uvel_max             =   1.1130864191231E-01
(PID.TID 0000.0001) %MON dynstat_uvel_min             =  -1.3031976058317E-01
(PID.TID 0000.0001) %MON dynstat_uvel_mean            =  -7.8961825951157E-03
(PID.TID 0000.0001) %MON dynstat_uvel_sd              =   1.1832769986791E-02
(PID.TID 0000.0001) %MON dynstat_uvel_del2            =   3.1636404060547E-03
(PID.TID 0000.0001) %MON dynstat_vvel_max             =   1.0178474384853E-01
(PID.TID 0000.0001) %MON dynstat_vvel_min             =  -9.6157153509170E-02
(PID.TID 0000.0001) %MON dynstat_vvel_mean            =   5.1331754822080E-03
(PID.TID 0000.0001) %MON dynstat_vvel_sd              =   1.5715767185640E-02
(PID.TID 0000.0001) %MON dynstat_vvel_del2            =   3.4256992751982E-03
(PID.TID 0000.0001) %MON dynstat_wvel_max             =   3.0937961337323E-04
(PID.TID 0000.0001) %MON dynstat_wvel_min             =  -3.3777297409451E-04
(PID.TID 0000.0001) %MON dynstat_wvel_mean            =  -6.9416303413941E-22
(PID.TID 0000.0001) %MON dynstat_wvel_sd              =   3.8098823136817E-05
(PID.TID 0000.0001) %MON dynstat_wvel_del2            =   1.3703730981304E-05
(PID.TID 0000.0001) %MON dynstat_theta_max            =   2.9635326894139E+01
(PID.TID 0000.0001) %MON dynstat_theta_min            =  -1.9017450001888E+00
(PID.TID 0000.0001) %MON dynstat_theta_mean           =   3.6050560597054E+00
(PID.TID 0000.0001) %MON dynstat_theta_sd             =   4.3835054146708E+00
(PID.TID 0000.0001) %MON dynstat_theta_del2           =   1.4084076426966E-01
(PID.TID 0000.0001) %MON dynstat_salt_max             =   3.7432998630927E+01
(PID.TID 0000.0001) %MON dynstat_salt_min             =   2.9791877297794E+01
(PID.TID 0000.0001) %MON dynstat_salt_mean            =   3.4716816735237E+01
(PID.TID 0000.0001) %MON dynstat_salt_sd              =   2.9564300533465E-01
(PID.TID 0000.0001) %MON dynstat_salt_del2            =   2.5625593395143E-02
(PID.TID 0000.0001) %MON dynstat_sst_max              =   2.9635326894139E+01
(PID.TID 0000.0001) %MON dynstat_sst_min              =  -1.9017450001888E+00
(PID.TID 0000.0001) %MON dynstat_sst_mean             =   1.8397611724736E+01
(PID.TID 0000.0001) %MON dynstat_sst_sd               =   9.1042887968008E+00
(PID.TID 0000.0001) %MON dynstat_sst_del2             =   2.7197431789189E-01
(PID.TID 0000.0001) %MON dynstat_sss_max              =   3.7432998630927E+01
(PID.TID 0000.0001) %MON dynstat_sss_min              =   2.9791877297794E+01
(PID.TID 0000.0001) %MON dynstat_sss_mean             =   3.4856167962080E+01
(PID.TID 0000.0001) %MON dynstat_sss_sd               =   9.5990663696958E-01
(PID.TID 0000.0001) %MON dynstat_sss_del2             =   8.0795952738113E-02
(PID.TID 0000.0001) %MON extforcing_qnet_max          =   4.3060765075684E+02
(PID.TID 0000.0001) %MON extforcing_qnet_min          =  -1.8492475357056E+02
(PID.TID 0000.0001) %MON extforcing_qnet_mean         =  -1.6643901537186E+01
(PID.TID 0000.0001) %MON extforcing_qnet_sd           =   1.1189943189448E+02
(PID.TID 0000.0001) %MON extforcing_qnet_del2         =   9.5020530008678E+00
(PID.TID 0000.0001) %MON extforcing_qsw_max           =   0.0000000000000E+00
(PID.TID 0000.0001) %MON extforcing_qsw_min           =   0.0000000000000E+00
(PID.TID 0000.0001) %MON extforcing_qsw_mean          =   0.0000000000000E+00
(PID.TID 0000.0001) %MON extforcing_qsw_sd            =   0.0000000000000E+00
(PID.TID 0000.0001) %MON extforcing_qsw_del2          =   0.0000000000000E+00
(PID.TID 0000.0001) %MON extforcing_empmr_max         =   0.0000000000000E+00
(PID.TID 0000.0001) %MON extforcing_empmr_min         =   0.0000000000000E+00
(PID.TID 0000.0001) %MON extforcing_empmr_mean        =   0.0000000000000E+00
(PID.TID 0000.0001) %MON extforcing_empmr_sd          =   0.0000000000000E+00
(PID.TID 0000.0001) %MON extforcing_empmr_del2        =   0.0000000000000E+00
(PID.TID 0000.0001) %MON extforcing_fu_max            =   2.7102652341127E-01
(PID.TID 0000.0001) %MON extforcing_fu_min            =  -1.6233965978026E-01
(PID.TID 0000.0001) %MON extforcing_fu_mean           =   1.6082509773456E-02
(PID.TID 0000.0001) %MON extforcing_fu_sd             =   9.0170650860979E-02
(PID.TID 0000.0001) %MON extforcing_fu_del2           =   7.3674509117048E-03
(PID.TID 0000.0001) %MON extforcing_fv_max            =   2.1338231638074E-01
(PID.TID 0000.0001) %MON extforcing_fv_min            =  -1.8427580371499E-01
(PID.TID 0000.0001) %MON extforcing_fv_mean           =  -6.0334042715435E-03
(PID.TID 0000.0001) %MON extforcing_fv_sd             =   4.5742743708708E-02
(PID.TID 0000.0001) %MON extforcing_fv_del2           =   4.3720937186898E-03
(PID.TID 0000.0001) %MON advcfl_uvel_max              =   1.6836890652771E-02
(PID.TID 0000.0001) %MON advcfl_vvel_max              =   9.8875716493694E-03
(PID.TID 0000.0001) %MON advcfl_wvel_max              =   2.0505545838015E-01
(PID.TID 0000.0001) %MON advcfl_W_hf_max              =   2.0926838846769E-01
(PID.TID 0000.0001) %MON pe_b_mean                    =   9.9436701792860E-05
(PID.TID 0000.0001) %MON ke_max                       =   6.2717549189472E-03
(PID.TID 0000.0001) %MON ke_mean                      =   2.1464719451061E-04
(PID.TID 0000.0001) %MON ke_vol                       =   1.3226782436723E+18
(PID.TID 0000.0001) %MON vort_r_min                   =  -4.2335897621749E-07
(PID.TID 0000.0001) %MON vort_r_max                   =   6.1311189145695E-07
(PID.TID 0000.0001) %MON vort_a_mean                  =  -2.5205769621121E-05
(PID.TID 0000.0001) %MON vort_a_sd                    =   7.3401776444509E-05
(PID.TID 0000.0001) %MON vort_p_mean                  =  -3.1758934727489E-05
(PID.TID 0000.0001) %MON vort_p_sd                    =   1.3126394940420E-04
(PID.TID 0000.0001) %MON surfExpan_theta_mean         =   1.6251344205631E-04
(PID.TID 0000.0001) %MON surfExpan_salt_mean          =   1.2134600936344E-05
(PID.TID 0000.0001) // =======================================================
(PID.TID 0000.0001) // End MONITOR dynamic field statistics
(PID.TID 0000.0001) // =======================================================
(PID.TID 0000.0001) %CHECKPOINT        10 ckptA
 --> objf_test(bi,bj)   =  0.000000000000000E+00
 --> objf_tracer(bi,bj) =  0.000000000000000E+00
 --> objf_atl(bi,bj)    = -0.456642955874078E-01
  local fc = -0.456642955874078E-01
 global fc = -0.456642955874078E-01
S/R EXTERNAL_FIELDS_LOAD: Reading new data:   12    1         0  0.000000000000E+00
(PID.TID 0000.0001)  MDS_READ_FIELD: opening global file: trenberth_taux.bin
(PID.TID 0000.0001)  MDS_READ_FIELD: opening global file: trenberth_taux.bin
(PID.TID 0000.0001)  MDS_READ_FIELD: opening global file: trenberth_tauy.bin
(PID.TID 0000.0001)  MDS_READ_FIELD: opening global file: trenberth_tauy.bin
(PID.TID 0000.0001)  MDS_READ_FIELD: opening global file: ncep_qnet.bin
(PID.TID 0000.0001)  MDS_READ_FIELD: opening global file: ncep_qnet.bin
(PID.TID 0000.0001)  MDS_READ_FIELD: opening global file: lev_sst.bin
(PID.TID 0000.0001)  MDS_READ_FIELD: opening global file: lev_sst.bin
(PID.TID 0000.0001)  MDS_READ_FIELD: opening global file: lev_sss.bin
(PID.TID 0000.0001)  MDS_READ_FIELD: opening global file: lev_sss.bin
time,SST,SSS,fu,fv,Q,E-P,i0,i1,a,b =   0.0000E+00  5.3151E-02  3.4364E+01 -4.0500E-02 -6.3753E-02  2.6510E+02  0.0000E+00    12     1  5.0000E-01  5.0000E-01
time,fu0,fu1,fu =   0.0000E+00 -4.5368E-02 -3.5633E-02 -4.0500E-02  5.000000000000000E-01  5.000000000000000E-01
(PID.TID 0000.0001)  MDS_READ_FIELD: opening file: xx_tauu.0000000000.001.001.data
(PID.TID 0000.0001)  MDS_READ_FIELD: opening file: xx_tauv.0000000000.001.001.data
(PID.TID 0000.0001)  MDS_READ_FIELD: opening file: xx_sflux.0000000000.001.001.data
(PID.TID 0000.0001)  MDS_READ_FIELD: opening file: xx_hflux.0000000000.001.001.data
 ph-test a  1 1
 ph-test b  1
 ph-test a  1 2
 ph-test b  1
 ph-test a  1 3
 ph-test b  1
 ph-test a  1 4
 ph-test b  1
 ph-test a  1 5
 ph-test b  1
 ph-test a  1 6
 ph-test b  1
 ph-test a  1 7
 ph-test b  1
 ph-test a  1 8
 ph-test b  1
 ph-test a  1 9
 ph-test b  1
 ph-test a  1 10
 ph-test b  1
 ph-test a  1 11
 ph-test b  1
 ph-test a  1 12
 ph-test b  1
 ph-test a  1 13
 ph-test b  1
 ph-test a  1 14
 ph-test b  1
 ph-test a  1 15
 ph-test b  1
 cg2d: Sum(rhs),rhsMax =   1.05956909912663E-14  2.53674886388737E+00
time,SST,SSS,fu,fv,Q,E-P,i0,i1,a,b =   4.3200E+04  8.3327E-02  3.4375E+01 -4.0338E-02 -6.3536E-02  2.6512E+02  0.0000E+00    12     1  5.1667E-01  4.8333E-01
time,fu0,fu1,fu =   4.3200E+04 -4.5368E-02 -3.5633E-02 -4.0338E-02  5.166666666666667E-01  4.833333333333333E-01
 ph-test a  1 1
 ph-test b  1
 ph-test a  1 2
 ph-test b  1
 ph-test a  1 3
 ph-test b  1
 ph-test a  1 4
 ph-test b  1
 ph-test a  1 5
 ph-test b  1
 ph-test a  1 6
 ph-test b  1
 ph-test a  1 7
 ph-test b  1
 ph-test a  1 8
 ph-test b  1
 ph-test a  1 9
 ph-test b  1
 ph-test a  1 10
 ph-test b  1
 ph-test a  1 11
 ph-test b  1
 ph-test a  1 12
 ph-test b  1
 ph-test a  1 13
 ph-test b  1
 ph-test a  1 14
 ph-test b  1
 ph-test a  1 15
 ph-test b  1
 cg2d: Sum(rhs),rhsMax =  -1.35169653248113E-14  4.94099340918605E+00
time,SST,SSS,fu,fv,Q,E-P,i0,i1,a,b =   8.6400E+04  1.1350E-01  3.4387E+01 -4.0176E-02 -6.3320E-02  2.6514E+02  0.0000E+00    12     1  5.3333E-01  4.6667E-01
time,fu0,fu1,fu =   8.6400E+04 -4.5368E-02 -3.5633E-02 -4.0176E-02  5.333333333333333E-01  4.666666666666667E-01
 ph-test a  1 1
 ph-test b  1
 ph-test a  1 2
 ph-test b  1
 ph-test a  1 3
 ph-test b  1
 ph-test a  1 4
 ph-test b  1
 ph-test a  1 5
 ph-test b  1
 ph-test a  1 6
 ph-test b  1
 ph-test a  1 7
 ph-test b  1
 ph-test a  1 8
 ph-test b  1
 ph-test a  1 9
 ph-test b  1
 ph-test a  1 10
 ph-test b  1
 ph-test a  1 11
 ph-test b  1
 ph-test a  1 12
 ph-test b  1
 ph-test a  1 13
 ph-test b  1
 ph-test a  1 14
 ph-test b  1
 ph-test a  1 15
 ph-test b  1
 cg2d: Sum(rhs),rhsMax =  -3.70189989773451E-15  6.30201510737097E+00
time,SST,SSS,fu,fv,Q,E-P,i0,i1,a,b =   1.2960E+05  1.4368E-01  3.4399E+01 -4.0014E-02 -6.3103E-02  2.6516E+02  0.0000E+00    12     1  5.5000E-01  4.5000E-01
time,fu0,fu1,fu =   1.2960E+05 -4.5368E-02 -3.5633E-02 -4.0014E-02  5.500000000000000E-01  4.500000000000000E-01
 ph-test a  1 1
 ph-test b  1
 ph-test a  1 2
 ph-test b  1
 ph-test a  1 3
 ph-test b  1
 ph-test a  1 4
 ph-test b  1
 ph-test a  1 5
 ph-test b  1
 ph-test a  1 6
 ph-test b  1
 ph-test a  1 7
 ph-test b  1
 ph-test a  1 8
 ph-test b  1
 ph-test a  1 9
 ph-test b  1
 ph-test a  1 10
 ph-test b  1
 ph-test a  1 11
 ph-test b  1
 ph-test a  1 12
 ph-test b  1
 ph-test a  1 13
 ph-test b  1
 ph-test a  1 14
 ph-test b  1
 ph-test a  1 15
 ph-test b  1
 cg2d: Sum(rhs),rhsMax =  -1.98868699285981E-14  6.81670284430948E+00
time,SST,SSS,fu,fv,Q,E-P,i0,i1,a,b =   1.7280E+05  1.7385E-01  3.4410E+01 -3.9851E-02 -6.2886E-02  2.6519E+02  0.0000E+00    12     1  5.6667E-01  4.3333E-01
time,fu0,fu1,fu =   1.7280E+05 -4.5368E-02 -3.5633E-02 -3.9851E-02  5.666666666666667E-01  4.333333333333333E-01
 ph-test a  1 1
 ph-test b  1
 ph-test a  1 2
 ph-test b  1
 ph-test a  1 3
 ph-test b  1
 ph-test a  1 4
 ph-test b  1
 ph-test a  1 5
 ph-test b  1
 ph-test a  1 6
 ph-test b  1
 ph-test a  1 7
 ph-test b  1
 ph-test a  1 8
 ph-test b  1
 ph-test a  1 9
 ph-test b  1
 ph-test a  1 10
 ph-test b  1
 ph-test a  1 11
 ph-test b  1
 ph-test a  1 12
 ph-test b  1
 ph-test a  1 13
 ph-test b  1
 ph-test a  1 14
 ph-test b  1
 ph-test a  1 15
 ph-test b  1
 cg2d: Sum(rhs),rhsMax =  -1.35082917074314E-14  6.91786915802128E+00
time,SST,SSS,fu,fv,Q,E-P,i0,i1,a,b =   2.1600E+05  2.0403E-01  3.4422E+01 -3.9689E-02 -6.2670E-02  2.6521E+02  0.0000E+00    12     1  5.8333E-01  4.1667E-01
time,fu0,fu1,fu =   2.1600E+05 -4.5368E-02 -3.5633E-02 -3.9689E-02  5.833333333333334E-01  4.166666666666666E-01
 ph-test a  1 1
 ph-test b  1
 ph-test a  1 2
 ph-test b  1
 ph-test a  1 3
 ph-test b  1
 ph-test a  1 4
 ph-test b  1
 ph-test a  1 5
 ph-test b  1
 ph-test a  1 6
 ph-test b  1
 ph-test a  1 7
 ph-test b  1
 ph-test a  1 8
 ph-test b  1
 ph-test a  1 9
 ph-test b  1
 ph-test a  1 10
 ph-test b  1
 ph-test a  1 11
 ph-test b  1
 ph-test a  1 12
 ph-test b  1
 ph-test a  1 13
 ph-test b  1
 ph-test a  1 14
 ph-test b  1
 ph-test a  1 15
 ph-test b  1
 cg2d: Sum(rhs),rhsMax =  -3.07288916534532E-14  6.87448893655102E+00
time,SST,SSS,fu,fv,Q,E-P,i0,i1,a,b =   2.5920E+05  2.3421E-01  3.4434E+01 -3.9527E-02 -6.2453E-02  2.6523E+02  0.0000E+00    12     1  6.0000E-01  4.0000E-01
time,fu0,fu1,fu =   2.5920E+05 -4.5368E-02 -3.5633E-02 -3.9527E-02  6.000000000000000E-01  4.000000000000000E-01
 ph-test a  1 1
 ph-test b  1
 ph-test a  1 2
 ph-test b  1
 ph-test a  1 3
 ph-test b  1
 ph-test a  1 4
 ph-test b  1
 ph-test a  1 5
 ph-test b  1
 ph-test a  1 6
 ph-test b  1
 ph-test a  1 7
 ph-test b  1
 ph-test a  1 8
 ph-test b  1
 ph-test a  1 9
 ph-test b  1
 ph-test a  1 10
 ph-test b  1
 ph-test a  1 11
 ph-test b  1
 ph-test a  1 12
 ph-test b  1
 ph-test a  1 13
 ph-test b  1
 ph-test a  1 14
 ph-test b  1
 ph-test a  1 15
 ph-test b  1
 cg2d: Sum(rhs),rhsMax =   6.34483784955897E-14  7.24604825999480E+00
time,SST,SSS,fu,fv,Q,E-P,i0,i1,a,b =   3.0240E+05  2.6438E-01  3.4446E+01 -3.9365E-02 -6.2237E-02  2.6525E+02  0.0000E+00    12     1  6.1667E-01  3.8333E-01
time,fu0,fu1,fu =   3.0240E+05 -4.5368E-02 -3.5633E-02 -3.9365E-02  6.166666666666667E-01  3.833333333333333E-01
 ph-test a  1 1
 ph-test b  1
 ph-test a  1 2
 ph-test b  1
 ph-test a  1 3
 ph-test b  1
 ph-test a  1 4
 ph-test b  1
 ph-test a  1 5
 ph-test b  1
 ph-test a  1 6
 ph-test b  1
 ph-test a  1 7
 ph-test b  1
 ph-test a  1 8
 ph-test b  1
 ph-test a  1 9
 ph-test b  1
 ph-test a  1 10
 ph-test b  1
 ph-test a  1 11
 ph-test b  1
 ph-test a  1 12
 ph-test b  1
 ph-test a  1 13
 ph-test b  1
 ph-test a  1 14
 ph-test b  1
 ph-test a  1 15
 ph-test b  1
 cg2d: Sum(rhs),rhsMax =  -1.32228429594594E-13  7.86362075184324E+00
time,SST,SSS,fu,fv,Q,E-P,i0,i1,a,b =   3.4560E+05  2.9456E-01  3.4457E+01 -3.9202E-02 -6.2020E-02  2.6528E+02  0.0000E+00    12     1  6.3333E-01  3.6667E-01
time,fu0,fu1,fu =   3.4560E+05 -4.5368E-02 -3.5633E-02 -3.9202E-02  6.333333333333333E-01  3.666666666666667E-01
 ph-test a  1 1
 ph-test b  1
 ph-test a  1 2
 ph-test b  1
 ph-test a  1 3
 ph-test b  1
 ph-test a  1 4
 ph-test b  1
 ph-test a  1 5
 ph-test b  1
 ph-test a  1 6
 ph-test b  1
 ph-test a  1 7
 ph-test b  1
 ph-test a  1 8
 ph-test b  1
 ph-test a  1 9
 ph-test b  1
 ph-test a  1 10
 ph-test b  1
 ph-test a  1 11
 ph-test b  1
 ph-test a  1 12
 ph-test b  1
 ph-test a  1 13
 ph-test b  1
 ph-test a  1 14
 ph-test b  1
 ph-test a  1 15
 ph-test b  1
 cg2d: Sum(rhs),rhsMax =   1.59362757365389E-13  8.20455160636556E+00
time,SST,SSS,fu,fv,Q,E-P,i0,i1,a,b =   3.8880E+05  3.2473E-01  3.4469E+01 -3.9040E-02 -6.1804E-02  2.6530E+02  0.0000E+00    12     1  6.5000E-01  3.5000E-01
time,fu0,fu1,fu =   3.8880E+05 -4.5368E-02 -3.5633E-02 -3.9040E-02  6.500000000000000E-01  3.500000000000000E-01
 ph-test a  1 1
 ph-test b  1
 ph-test a  1 2
 ph-test b  1
 ph-test a  1 3
 ph-test b  1
 ph-test a  1 4
 ph-test b  1
 ph-test a  1 5
 ph-test b  1
 ph-test a  1 6
 ph-test b  1
 ph-test a  1 7
 ph-test b  1
 ph-test a  1 8
 ph-test b  1
 ph-test a  1 9
 ph-test b  1
 ph-test a  1 10
 ph-test b  1
 ph-test a  1 11
 ph-test b  1
 ph-test a  1 12
 ph-test b  1
 ph-test a  1 13
 ph-test b  1
 ph-test a  1 14
 ph-test b  1
 ph-test a  1 15
 ph-test b  1
 cg2d: Sum(rhs),rhsMax =   7.87720583206308E-14  8.29866218269599E+00
(PID.TID 0000.0001) %CHECKPOINT        10 ckptB
time,SST,SSS,fu,fv,Q,E-P,i0,i1,a,b =   3.8880E+05  3.2473E-01  3.4469E+01 -3.9040E-02 -6.1804E-02  2.6530E+02  0.0000E+00    12     1  6.5000E-01  3.5000E-01
time,fu0,fu1,fu =   3.8880E+05 -4.5368E-02 -3.5633E-02 -3.9040E-02  6.500000000000000E-01  3.500000000000000E-01
 cg2d: Sum(rhs),rhsMax =   7.87720583206308E-14  8.29866218269599E+00
(PID.TID 0000.0001) %CHECKPOINT        10 ckptA
time,SST,SSS,fu,fv,Q,E-P,i0,i1,a,b =   3.8880E+05  3.2473E-01  3.4469E+01 -3.9040E-02 -6.1804E-02  2.6530E+02  0.0000E+00    12     1  6.5000E-01  3.5000E-01
time,fu0,fu1,fu =   3.8880E+05 -4.5368E-02 -3.5633E-02 -3.9040E-02  6.500000000000000E-01  3.500000000000000E-01
(PID.TID 0000.0001) %CHECKPOINT        10 ckptB
(PID.TID 0000.0001) // =======================================================
(PID.TID 0000.0001) // Begin MONITOR dynamic field statistics
(PID.TID 0000.0001) // =======================================================
(PID.TID 0000.0001) %MON ad_time_tsnumber             =                    10
(PID.TID 0000.0001) %MON ad_time_secondsf             =   4.3200000000000E+05
(PID.TID 0000.0001) %MON ad_dynstat_adeta_max         =   0.0000000000000E+00
(PID.TID 0000.0001) %MON ad_dynstat_adeta_min         =   0.0000000000000E+00
(PID.TID 0000.0001) %MON ad_dynstat_adeta_mean        =   0.0000000000000E+00
(PID.TID 0000.0001) %MON ad_dynstat_adeta_sd          =   0.0000000000000E+00
(PID.TID 0000.0001) %MON ad_dynstat_adeta_del2        =   0.0000000000000E+00
(PID.TID 0000.0001) %MON ad_dynstat_aduvel_max        =   0.0000000000000E+00
(PID.TID 0000.0001) %MON ad_dynstat_aduvel_min        =   0.0000000000000E+00
(PID.TID 0000.0001) %MON ad_dynstat_aduvel_mean       =   0.0000000000000E+00
(PID.TID 0000.0001) %MON ad_dynstat_aduvel_sd         =   0.0000000000000E+00
(PID.TID 0000.0001) %MON ad_dynstat_aduvel_del2       =   0.0000000000000E+00
(PID.TID 0000.0001) %MON ad_dynstat_advvel_max        =   5.3448186584870E-03
(PID.TID 0000.0001) %MON ad_dynstat_advvel_min        =   0.0000000000000E+00
(PID.TID 0000.0001) %MON ad_dynstat_advvel_mean       =   3.0039176461978E-05
(PID.TID 0000.0001) %MON ad_dynstat_advvel_sd         =   3.1338197574718E-04
(PID.TID 0000.0001) %MON ad_dynstat_advvel_del2       =   2.4391145322367E-05
(PID.TID 0000.0001) %MON ad_dynstat_adwvel_max        =   0.0000000000000E+00
(PID.TID 0000.0001) %MON ad_dynstat_adwvel_min        =   0.0000000000000E+00
(PID.TID 0000.0001) %MON ad_dynstat_adwvel_mean       =   0.0000000000000E+00
(PID.TID 0000.0001) %MON ad_dynstat_adwvel_sd         =   0.0000000000000E+00
(PID.TID 0000.0001) %MON ad_dynstat_adwvel_del2       =   0.0000000000000E+00
(PID.TID 0000.0001) %MON ad_dynstat_adtheta_max       =   2.0166756651408E-06
(PID.TID 0000.0001) %MON ad_dynstat_adtheta_min       =  -4.9620431375487E-06
(PID.TID 0000.0001) %MON ad_dynstat_adtheta_mean      =  -2.0424657087538E-08
(PID.TID 0000.0001) %MON ad_dynstat_adtheta_sd        =   2.4080713838761E-07
(PID.TID 0000.0001) %MON ad_dynstat_adtheta_del2      =   1.2988176074405E-08
(PID.TID 0000.0001) %MON ad_dynstat_adsalt_max        =   0.0000000000000E+00
(PID.TID 0000.0001) %MON ad_dynstat_adsalt_min        =   0.0000000000000E+00
(PID.TID 0000.0001) %MON ad_dynstat_adsalt_mean       =   0.0000000000000E+00
(PID.TID 0000.0001) %MON ad_dynstat_adsalt_sd         =   0.0000000000000E+00
(PID.TID 0000.0001) %MON ad_dynstat_adsalt_del2       =   0.0000000000000E+00
(PID.TID 0000.0001) %MON ad_dynstat_adsst_max         =   0.0000000000000E+00
(PID.TID 0000.0001) %MON ad_dynstat_adsst_min         =  -9.7740063209940E-07
(PID.TID 0000.0001) %MON ad_dynstat_adsst_mean        =  -1.0414172946789E-08
(PID.TID 0000.0001) %MON ad_dynstat_adsst_sd          =   8.6439336436215E-08
(PID.TID 0000.0001) %MON ad_dynstat_adsst_del2        =   4.6861315570804E-09
(PID.TID 0000.0001) %MON ad_dynstat_adsss_max         =   0.0000000000000E+00
(PID.TID 0000.0001) %MON ad_dynstat_adsss_min         =   0.0000000000000E+00
(PID.TID 0000.0001) %MON ad_dynstat_adsss_mean        =   0.0000000000000E+00
(PID.TID 0000.0001) %MON ad_dynstat_adsss_sd          =   0.0000000000000E+00
(PID.TID 0000.0001) %MON ad_dynstat_adsss_del2        =   0.0000000000000E+00
(PID.TID 0000.0001) %MON ad_extforcing_adqnet_max     =   0.0000000000000E+00
(PID.TID 0000.0001) %MON ad_extforcing_adqnet_min     =   0.0000000000000E+00
(PID.TID 0000.0001) %MON ad_extforcing_adqnet_mean    =   0.0000000000000E+00
(PID.TID 0000.0001) %MON ad_extforcing_adqnet_sd      =   0.0000000000000E+00
(PID.TID 0000.0001) %MON ad_extforcing_adqnet_del2    =   0.0000000000000E+00
(PID.TID 0000.0001) %MON ad_extforcing_adempmr_max    =   0.0000000000000E+00
(PID.TID 0000.0001) %MON ad_extforcing_adempmr_min    =   0.0000000000000E+00
(PID.TID 0000.0001) %MON ad_extforcing_adempmr_mean   =   0.0000000000000E+00
(PID.TID 0000.0001) %MON ad_extforcing_adempmr_sd     =   0.0000000000000E+00
(PID.TID 0000.0001) %MON ad_extforcing_adempmr_del2   =   0.0000000000000E+00
(PID.TID 0000.0001) %MON ad_extforcing_adfu_max       =   0.0000000000000E+00
(PID.TID 0000.0001) %MON ad_extforcing_adfu_min       =   0.0000000000000E+00
(PID.TID 0000.0001) %MON ad_extforcing_adfu_mean      =   0.0000000000000E+00
(PID.TID 0000.0001) %MON ad_extforcing_adfu_sd        =   0.0000000000000E+00
(PID.TID 0000.0001) %MON ad_extforcing_adfu_del2      =   0.0000000000000E+00
(PID.TID 0000.0001) %MON ad_extforcing_adfv_max       =   0.0000000000000E+00
(PID.TID 0000.0001) %MON ad_extforcing_adfv_min       =   0.0000000000000E+00
(PID.TID 0000.0001) %MON ad_extforcing_adfv_mean      =   0.0000000000000E+00
(PID.TID 0000.0001) %MON ad_extforcing_adfv_sd        =   0.0000000000000E+00
(PID.TID 0000.0001) %MON ad_extforcing_adfv_del2      =   0.0000000000000E+00
(PID.TID 0000.0001) %MON ad_advcfl_aduvel_max         =   0.0000000000000E+00
(PID.TID 0000.0001) %MON ad_advcfl_advvel_max         =   5.1920627237929E-04
(PID.TID 0000.0001) %MON ad_advcfl_adwvel_max         =   0.0000000000000E+00
(PID.TID 0000.0001) %MON ad_advcfl_adW_hf_max         =   0.0000000000000E+00
(PID.TID 0000.0001) // =======================================================
(PID.TID 0000.0001) // End MONITOR dynamic field statistics
(PID.TID 0000.0001) // =======================================================
 cg2d: Sum(rhs),rhsMax =   1.36073453106857E-15  8.04857770479880E-09
 ph-test a  1 15
 ph-test b  1
 ph-test a  1 15
 ph-test b  1
 ph-test a  1 14
 ph-test b  1
 ph-test a  1 14
 ph-test b  1
 ph-test a  1 13
 ph-test b  1
 ph-test a  1 13
 ph-test b  1
 ph-test a  1 12
 ph-test b  1
 ph-test a  1 12
 ph-test b  1
 ph-test a  1 11
 ph-test b  1
 ph-test a  1 11
 ph-test b  1
 ph-test a  1 10
 ph-test b  1
 ph-test a  1 10
 ph-test b  1
 ph-test a  1 9
 ph-test b  1
 ph-test a  1 9
 ph-test b  1
 ph-test a  1 8
 ph-test b  1
 ph-test a  1 8
 ph-test b  1
 ph-test a  1 7
 ph-test b  1
 ph-test a  1 7
 ph-test b  1
 ph-test a  1 6
 ph-test b  1
 ph-test a  1 6
 ph-test b  1
 ph-test a  1 5
 ph-test b  1
 ph-test a  1 5
 ph-test b  1
 ph-test a  1 4
 ph-test b  1
 ph-test a  1 4
 ph-test b  1
 ph-test a  1 3
 ph-test b  1
 ph-test a  1 3
 ph-test b  1
 ph-test a  1 2
 ph-test b  1
 ph-test a  1 2
 ph-test b  1
 ph-test a  1 1
 ph-test b  1
 ph-test a  1 1
 ph-test b  1
time,SST,SSS,fu,fv,Q,E-P,i0,i1,a,b =   2.5920E+05  2.3421E-01  3.4434E+01 -3.9527E-02 -6.2453E-02  2.6523E+02  0.0000E+00    12     1  6.0000E-01  4.0000E-01
time,fu0,fu1,fu =   2.5920E+05 -4.5368E-02 -3.5633E-02 -3.9527E-02  6.000000000000000E-01  4.000000000000000E-01
 cg2d: Sum(rhs),rhsMax =   6.34483784955897E-14  7.24604825999480E+00
time,SST,SSS,fu,fv,Q,E-P,i0,i1,a,b =   3.0240E+05  2.6438E-01  3.4446E+01 -3.9365E-02 -6.2237E-02  2.6525E+02  0.0000E+00    12     1  6.1667E-01  3.8333E-01
time,fu0,fu1,fu =   3.0240E+05 -4.5368E-02 -3.5633E-02 -3.9365E-02  6.166666666666667E-01  3.833333333333333E-01
 cg2d: Sum(rhs),rhsMax =  -1.43328491436501E-13  7.86362075184324E+00
time,SST,SSS,fu,fv,Q,E-P,i0,i1,a,b =   3.4560E+05  2.9456E-01  3.4457E+01 -3.9202E-02 -6.2020E-02  2.6528E+02  0.0000E+00    12     1  6.3333E-01  3.6667E-01
time,fu0,fu1,fu =   3.4560E+05 -4.5368E-02 -3.5633E-02 -3.9202E-02  6.333333333333333E-01  3.666666666666667E-01
 cg2d: Sum(rhs),rhsMax =   1.26869435096433E-13  8.20455160636556E+00
time,SST,SSS,fu,fv,Q,E-P,i0,i1,a,b =   3.4560E+05  2.9456E-01  3.4457E+01 -3.9202E-02 -6.2020E-02  2.6528E+02  0.0000E+00    12     1  6.3333E-01  3.6667E-01
time,fu0,fu1,fu =   3.4560E+05 -4.5368E-02 -3.5633E-02 -3.9202E-02  6.333333333333333E-01  3.666666666666667E-01
(PID.TID 0000.0001) // =======================================================
(PID.TID 0000.0001) // Begin MONITOR dynamic field statistics
(PID.TID 0000.0001) // =======================================================
(PID.TID 0000.0001) %MON ad_time_tsnumber             =                     9
(PID.TID 0000.0001) %MON ad_time_secondsf             =   3.8880000000000E+05
(PID.TID 0000.0001) %MON ad_dynstat_adeta_max         =   6.8871106217877E-05
(PID.TID 0000.0001) %MON ad_dynstat_adeta_min         =  -5.7113578257972E-05
(PID.TID 0000.0001) %MON ad_dynstat_adeta_mean        =   5.3899186986566E-10
(PID.TID 0000.0001) %MON ad_dynstat_adeta_sd          =   2.7356499667697E-06
(PID.TID 0000.0001) %MON ad_dynstat_adeta_del2        =   1.3854857356079E-07
(PID.TID 0000.0001) %MON ad_dynstat_aduvel_max        =   6.6026568184592E-04
(PID.TID 0000.0001) %MON ad_dynstat_aduvel_min        =  -1.3582830774484E-04
(PID.TID 0000.0001) %MON ad_dynstat_aduvel_mean       =   3.4008129653572E-07
(PID.TID 0000.0001) %MON ad_dynstat_aduvel_sd         =   1.2003974084003E-05
(PID.TID 0000.0001) %MON ad_dynstat_aduvel_del2       =   4.8803029706046E-07
(PID.TID 0000.0001) %MON ad_dynstat_advvel_max        =   1.0036059521020E-02
(PID.TID 0000.0001) %MON ad_dynstat_advvel_min        =  -2.1867365833707E-03
(PID.TID 0000.0001) %MON ad_dynstat_advvel_mean       =   5.8330846874168E-05
(PID.TID 0000.0001) %MON ad_dynstat_advvel_sd         =   5.1617990922089E-04
(PID.TID 0000.0001) %MON ad_dynstat_advvel_del2       =   3.9327440617849E-05
(PID.TID 0000.0001) %MON ad_dynstat_adwvel_max        =   6.0151414794485E-04
(PID.TID 0000.0001) %MON ad_dynstat_adwvel_min        =  -1.4912994708167E-04
(PID.TID 0000.0001) %MON ad_dynstat_adwvel_mean       =  -2.5761121283792E-07
(PID.TID 0000.0001) %MON ad_dynstat_adwvel_sd         =   6.4481338434604E-06
(PID.TID 0000.0001) %MON ad_dynstat_adwvel_del2       =   4.6700640433068E-07
(PID.TID 0000.0001) %MON ad_dynstat_adtheta_max       =   1.4061038624738E-05
(PID.TID 0000.0001) %MON ad_dynstat_adtheta_min       =  -2.0651382235801E-05
(PID.TID 0000.0001) %MON ad_dynstat_adtheta_mean      =  -4.4717550548462E-08
(PID.TID 0000.0001) %MON ad_dynstat_adtheta_sd        =   1.1365472123874E-06
(PID.TID 0000.0001) %MON ad_dynstat_adtheta_del2      =   1.1679205325879E-07
(PID.TID 0000.0001) %MON ad_dynstat_adsalt_max        =   5.5004454493707E-05
(PID.TID 0000.0001) %MON ad_dynstat_adsalt_min        =  -5.3040010597716E-05
(PID.TID 0000.0001) %MON ad_dynstat_adsalt_mean       =   2.2325346332983E-08
(PID.TID 0000.0001) %MON ad_dynstat_adsalt_sd         =   4.2216989452289E-06
(PID.TID 0000.0001) %MON ad_dynstat_adsalt_del2       =   4.3230432387878E-07
(PID.TID 0000.0001) %MON ad_dynstat_adsst_max         =   1.0200949755016E-05
(PID.TID 0000.0001) %MON ad_dynstat_adsst_min         =  -1.0970007502991E-05
(PID.TID 0000.0001) %MON ad_dynstat_adsst_mean        =  -3.1596975455698E-08
(PID.TID 0000.0001) %MON ad_dynstat_adsst_sd          =   1.1432755539156E-06
(PID.TID 0000.0001) %MON ad_dynstat_adsst_del2        =   1.0582625001163E-07
(PID.TID 0000.0001) %MON ad_dynstat_adsss_max         =   2.6472431053451E-05
(PID.TID 0000.0001) %MON ad_dynstat_adsss_min         =  -2.8769945731158E-05
(PID.TID 0000.0001) %MON ad_dynstat_adsss_mean        =   1.1483743487825E-08
(PID.TID 0000.0001) %MON ad_dynstat_adsss_sd          =   3.1098902748154E-06
(PID.TID 0000.0001) %MON ad_dynstat_adsss_del2        =   2.9475052696497E-07
(PID.TID 0000.0001) %MON ad_extforcing_adqnet_max     =   0.0000000000000E+00
(PID.TID 0000.0001) %MON ad_extforcing_adqnet_min     =   0.0000000000000E+00
(PID.TID 0000.0001) %MON ad_extforcing_adqnet_mean    =   0.0000000000000E+00
(PID.TID 0000.0001) %MON ad_extforcing_adqnet_sd      =   0.0000000000000E+00
(PID.TID 0000.0001) %MON ad_extforcing_adqnet_del2    =   0.0000000000000E+00
(PID.TID 0000.0001) %MON ad_extforcing_adempmr_max    =   8.1362813998470E-04
(PID.TID 0000.0001) %MON ad_extforcing_adempmr_min    =  -7.9213979131546E-04
(PID.TID 0000.0001) %MON ad_extforcing_adempmr_mean   =  -3.8137432146565E-07
(PID.TID 0000.0001) %MON ad_extforcing_adempmr_sd     =   9.2014997450393E-05
(PID.TID 0000.0001) %MON ad_extforcing_adempmr_del2   =   8.7824980575285E-06
(PID.TID 0000.0001) %MON ad_extforcing_adfu_max       =   0.0000000000000E+00
(PID.TID 0000.0001) %MON ad_extforcing_adfu_min       =   0.0000000000000E+00
(PID.TID 0000.0001) %MON ad_extforcing_adfu_mean      =   0.0000000000000E+00
(PID.TID 0000.0001) %MON ad_extforcing_adfu_sd        =   0.0000000000000E+00
(PID.TID 0000.0001) %MON ad_extforcing_adfu_del2      =   0.0000000000000E+00
(PID.TID 0000.0001) %MON ad_extforcing_adfv_max       =   0.0000000000000E+00
(PID.TID 0000.0001) %MON ad_extforcing_adfv_min       =   0.0000000000000E+00
(PID.TID 0000.0001) %MON ad_extforcing_adfv_mean      =   0.0000000000000E+00
(PID.TID 0000.0001) %MON ad_extforcing_adfv_sd        =   0.0000000000000E+00
(PID.TID 0000.0001) %MON ad_extforcing_adfv_del2      =   0.0000000000000E+00
(PID.TID 0000.0001) %MON ad_advcfl_aduvel_max         =   7.4061933999672E-05
(PID.TID 0000.0001) %MON ad_advcfl_advvel_max         =   9.7492270294548E-04
(PID.TID 0000.0001) %MON ad_advcfl_adwvel_max         =   1.0394164476487E+00
(PID.TID 0000.0001) %MON ad_advcfl_adW_hf_max         =   6.7818941825121E-02
(PID.TID 0000.0001) // =======================================================
(PID.TID 0000.0001) // End MONITOR dynamic field statistics
(PID.TID 0000.0001) // =======================================================
 cg2d: Sum(rhs),rhsMax =   7.86977324922161E-16  9.23227269380239E-09
 ph-test a  1 15
 ph-test b  1
 ph-test a  1 15
 ph-test b  1
 ph-test a  1 14
 ph-test b  1
 ph-test a  1 14
 ph-test b  1
 ph-test a  1 13
 ph-test b  1
 ph-test a  1 13
 ph-test b  1
 ph-test a  1 12
 ph-test b  1
 ph-test a  1 12
 ph-test b  1
 ph-test a  1 11
 ph-test b  1
 ph-test a  1 11
 ph-test b  1
 ph-test a  1 10
 ph-test b  1
 ph-test a  1 10
 ph-test b  1
 ph-test a  1 9
 ph-test b  1
 ph-test a  1 9
 ph-test b  1
 ph-test a  1 8
 ph-test b  1
 ph-test a  1 8
 ph-test b  1
 ph-test a  1 7
 ph-test b  1
 ph-test a  1 7
 ph-test b  1
 ph-test a  1 6
 ph-test b  1
 ph-test a  1 6
 ph-test b  1
 ph-test a  1 5
 ph-test b  1
 ph-test a  1 5
 ph-test b  1
 ph-test a  1 4
 ph-test b  1
 ph-test a  1 4
 ph-test b  1
 ph-test a  1 3
 ph-test b  1
 ph-test a  1 3
 ph-test b  1
 ph-test a  1 2
 ph-test b  1
 ph-test a  1 2
 ph-test b  1
 ph-test a  1 1
 ph-test b  1
 ph-test a  1 1
 ph-test b  1
time,SST,SSS,fu,fv,Q,E-P,i0,i1,a,b =   3.0240E+05  2.6438E-01  3.4446E+01 -3.9365E-02 -6.2237E-02  2.6525E+02  0.0000E+00    12     1  6.1667E-01  3.8333E-01
time,fu0,fu1,fu =   3.0240E+05 -4.5368E-02 -3.5633E-02 -3.9365E-02  6.166666666666667E-01  3.833333333333333E-01
(PID.TID 0000.0001) // =======================================================
(PID.TID 0000.0001) // Begin MONITOR dynamic field statistics
(PID.TID 0000.0001) // =======================================================
(PID.TID 0000.0001) %MON ad_time_tsnumber             =                     8
(PID.TID 0000.0001) %MON ad_time_secondsf             =   3.4560000000000E+05
(PID.TID 0000.0001) %MON ad_dynstat_adeta_max         =   1.6525474920574E-04
(PID.TID 0000.0001) %MON ad_dynstat_adeta_min         =  -1.3331957484774E-04
(PID.TID 0000.0001) %MON ad_dynstat_adeta_mean        =   2.4452033960105E-09
(PID.TID 0000.0001) %MON ad_dynstat_adeta_sd          =   6.6119419251179E-06
(PID.TID 0000.0001) %MON ad_dynstat_adeta_del2        =   3.9584538520642E-07
(PID.TID 0000.0001) %MON ad_dynstat_aduvel_max        =   1.7669543447654E-03
(PID.TID 0000.0001) %MON ad_dynstat_aduvel_min        =  -5.0983198099947E-04
(PID.TID 0000.0001) %MON ad_dynstat_aduvel_mean       =   1.2201902309124E-06
(PID.TID 0000.0001) %MON ad_dynstat_aduvel_sd         =   3.6914944238840E-05
(PID.TID 0000.0001) %MON ad_dynstat_aduvel_del2       =   1.7606657702358E-06
(PID.TID 0000.0001) %MON ad_dynstat_advvel_max        =   1.3987980031825E-02
(PID.TID 0000.0001) %MON ad_dynstat_advvel_min        =  -6.6711844047947E-03
(PID.TID 0000.0001) %MON ad_dynstat_advvel_mean       =   8.3144361579687E-05
(PID.TID 0000.0001) %MON ad_dynstat_advvel_sd         =   6.5483910373212E-04
(PID.TID 0000.0001) %MON ad_dynstat_advvel_del2       =   4.6009549438969E-05
(PID.TID 0000.0001) %MON ad_dynstat_adwvel_max        =   8.0854504244209E-04
(PID.TID 0000.0001) %MON ad_dynstat_adwvel_min        =  -2.3059384989135E-04
(PID.TID 0000.0001) %MON ad_dynstat_adwvel_mean       =  -3.9867373559742E-07
(PID.TID 0000.0001) %MON ad_dynstat_adwvel_sd         =   9.2616309289323E-06
(PID.TID 0000.0001) %MON ad_dynstat_adwvel_del2       =   6.8188394615131E-07
(PID.TID 0000.0001) %MON ad_dynstat_adtheta_max       =   4.6817809411601E-05
(PID.TID 0000.0001) %MON ad_dynstat_adtheta_min       =  -4.1198527905306E-05
(PID.TID 0000.0001) %MON ad_dynstat_adtheta_mean      =  -7.2051758603076E-08
(PID.TID 0000.0001) %MON ad_dynstat_adtheta_sd        =   3.8658339224330E-06
(PID.TID 0000.0001) %MON ad_dynstat_adtheta_del2      =   3.8025804961028E-07
(PID.TID 0000.0001) %MON ad_dynstat_adsalt_max        =   1.8192027641294E-04
(PID.TID 0000.0001) %MON ad_dynstat_adsalt_min        =  -1.9087758877173E-04
(PID.TID 0000.0001) %MON ad_dynstat_adsalt_mean       =   6.0422725895851E-08
(PID.TID 0000.0001) %MON ad_dynstat_adsalt_sd         =   1.7028168475601E-05
(PID.TID 0000.0001) %MON ad_dynstat_adsalt_del2       =   1.5887990150409E-06
(PID.TID 0000.0001) %MON ad_dynstat_adsst_max         =   2.5723933503079E-05
(PID.TID 0000.0001) %MON ad_dynstat_adsst_min         =  -2.3018812908148E-05
(PID.TID 0000.0001) %MON ad_dynstat_adsst_mean        =  -6.3653058077052E-08
(PID.TID 0000.0001) %MON ad_dynstat_adsst_sd          =   2.4302866061393E-06
(PID.TID 0000.0001) %MON ad_dynstat_adsst_del2        =   2.0082447640233E-07
(PID.TID 0000.0001) %MON ad_dynstat_adsss_max         =   5.9441766265929E-05
(PID.TID 0000.0001) %MON ad_dynstat_adsss_min         =  -7.1280660481273E-05
(PID.TID 0000.0001) %MON ad_dynstat_adsss_mean        =   4.2009607788777E-08
(PID.TID 0000.0001) %MON ad_dynstat_adsss_sd          =   6.6553529579335E-06
(PID.TID 0000.0001) %MON ad_dynstat_adsss_del2        =   5.5821614923562E-07
(PID.TID 0000.0001) %MON ad_extforcing_adqnet_max     =   0.0000000000000E+00
(PID.TID 0000.0001) %MON ad_extforcing_adqnet_min     =   0.0000000000000E+00
(PID.TID 0000.0001) %MON ad_extforcing_adqnet_mean    =   0.0000000000000E+00
(PID.TID 0000.0001) %MON ad_extforcing_adqnet_sd      =   0.0000000000000E+00
(PID.TID 0000.0001) %MON ad_extforcing_adqnet_del2    =   0.0000000000000E+00
(PID.TID 0000.0001) %MON ad_extforcing_adempmr_max    =   2.0232755320275E-03
(PID.TID 0000.0001) %MON ad_extforcing_adempmr_min    =  -1.8224025053688E-03
(PID.TID 0000.0001) %MON ad_extforcing_adempmr_mean   =  -8.4223775064294E-07
(PID.TID 0000.0001) %MON ad_extforcing_adempmr_sd     =   2.0138613508289E-04
(PID.TID 0000.0001) %MON ad_extforcing_adempmr_del2   =   1.7345347374740E-05
(PID.TID 0000.0001) %MON ad_extforcing_adfu_max       =   0.0000000000000E+00
(PID.TID 0000.0001) %MON ad_extforcing_adfu_min       =   0.0000000000000E+00
(PID.TID 0000.0001) %MON ad_extforcing_adfu_mean      =   0.0000000000000E+00
(PID.TID 0000.0001) %MON ad_extforcing_adfu_sd        =   0.0000000000000E+00
(PID.TID 0000.0001) %MON ad_extforcing_adfu_del2      =   0.0000000000000E+00
(PID.TID 0000.0001) %MON ad_extforcing_adfv_max       =   0.0000000000000E+00
(PID.TID 0000.0001) %MON ad_extforcing_adfv_min       =   0.0000000000000E+00
(PID.TID 0000.0001) %MON ad_extforcing_adfv_mean      =   0.0000000000000E+00
(PID.TID 0000.0001) %MON ad_extforcing_adfv_sd        =   0.0000000000000E+00
(PID.TID 0000.0001) %MON ad_extforcing_adfv_del2      =   0.0000000000000E+00
(PID.TID 0000.0001) %MON ad_advcfl_aduvel_max         =   1.9819908812554E-04
(PID.TID 0000.0001) %MON ad_advcfl_advvel_max         =   1.3588200899776E-03
(PID.TID 0000.0001) %MON ad_advcfl_adwvel_max         =   1.3971658333399E+00
(PID.TID 0000.0001) %MON ad_advcfl_adW_hf_max         =   1.0536332602695E-01
(PID.TID 0000.0001) // =======================================================
(PID.TID 0000.0001) // End MONITOR dynamic field statistics
(PID.TID 0000.0001) // =======================================================
 cg2d: Sum(rhs),rhsMax =   1.94584497837364E-15  8.78078341207785E-09
 ph-test a  1 15
 ph-test b  1
 ph-test a  1 15
 ph-test b  1
 ph-test a  1 14
 ph-test b  1
 ph-test a  1 14
 ph-test b  1
 ph-test a  1 13
 ph-test b  1
 ph-test a  1 13
 ph-test b  1
 ph-test a  1 12
 ph-test b  1
 ph-test a  1 12
 ph-test b  1
 ph-test a  1 11
 ph-test b  1
 ph-test a  1 11
 ph-test b  1
 ph-test a  1 10
 ph-test b  1
 ph-test a  1 10
 ph-test b  1
 ph-test a  1 9
 ph-test b  1
 ph-test a  1 9
 ph-test b  1
 ph-test a  1 8
 ph-test b  1
 ph-test a  1 8
 ph-test b  1
 ph-test a  1 7
 ph-test b  1
 ph-test a  1 7
 ph-test b  1
 ph-test a  1 6
 ph-test b  1
 ph-test a  1 6
 ph-test b  1
 ph-test a  1 5
 ph-test b  1
 ph-test a  1 5
 ph-test b  1
 ph-test a  1 4
 ph-test b  1
 ph-test a  1 4
 ph-test b  1
 ph-test a  1 3
 ph-test b  1
 ph-test a  1 3
 ph-test b  1
 ph-test a  1 2
 ph-test b  1
 ph-test a  1 2
 ph-test b  1
 ph-test a  1 1
 ph-test b  1
 ph-test a  1 1
 ph-test b  1
time,SST,SSS,fu,fv,Q,E-P,i0,i1,a,b =   2.5920E+05  2.3421E-01  3.4434E+01 -3.9527E-02 -6.2453E-02  2.6523E+02  0.0000E+00    12     1  6.0000E-01  4.0000E-01
time,fu0,fu1,fu =   2.5920E+05 -4.5368E-02 -3.5633E-02 -3.9527E-02  6.000000000000000E-01  4.000000000000000E-01
(PID.TID 0000.0001) // =======================================================
(PID.TID 0000.0001) // Begin MONITOR dynamic field statistics
(PID.TID 0000.0001) // =======================================================
(PID.TID 0000.0001) %MON ad_time_tsnumber             =                     7
(PID.TID 0000.0001) %MON ad_time_secondsf             =   3.0240000000000E+05
(PID.TID 0000.0001) %MON ad_dynstat_adeta_max         =   2.7868284256918E-04
(PID.TID 0000.0001) %MON ad_dynstat_adeta_min         =  -2.1965448381502E-04
(PID.TID 0000.0001) %MON ad_dynstat_adeta_mean        =   6.7202126051591E-09
(PID.TID 0000.0001) %MON ad_dynstat_adeta_sd          =   1.1434333056516E-05
(PID.TID 0000.0001) %MON ad_dynstat_adeta_del2        =   7.8660343894163E-07
(PID.TID 0000.0001) %MON ad_dynstat_aduvel_max        =   2.8061918644608E-03
(PID.TID 0000.0001) %MON ad_dynstat_aduvel_min        =  -1.0440224506176E-03
(PID.TID 0000.0001) %MON ad_dynstat_aduvel_mean       =   2.7488929469354E-06
(PID.TID 0000.0001) %MON ad_dynstat_aduvel_sd         =   7.3493243272210E-05
(PID.TID 0000.0001) %MON ad_dynstat_aduvel_del2       =   3.9442453835853E-06
(PID.TID 0000.0001) %MON ad_dynstat_advvel_max        =   1.7408679255611E-02
(PID.TID 0000.0001) %MON ad_dynstat_advvel_min        =  -1.2445738229285E-02
(PID.TID 0000.0001) %MON ad_dynstat_advvel_mean       =   1.0336371944303E-04
(PID.TID 0000.0001) %MON ad_dynstat_advvel_sd         =   8.1535206513550E-04
(PID.TID 0000.0001) %MON ad_dynstat_advvel_del2       =   5.9044627040383E-05
(PID.TID 0000.0001) %MON ad_dynstat_adwvel_max        =   1.0237642037744E-03
(PID.TID 0000.0001) %MON ad_dynstat_adwvel_min        =  -2.9822928462134E-04
(PID.TID 0000.0001) %MON ad_dynstat_adwvel_mean       =  -5.1092754022868E-07
(PID.TID 0000.0001) %MON ad_dynstat_adwvel_sd         =   1.1276878056884E-05
(PID.TID 0000.0001) %MON ad_dynstat_adwvel_del2       =   8.4753004785793E-07
(PID.TID 0000.0001) %MON ad_dynstat_adtheta_max       =   1.1472459604816E-04
(PID.TID 0000.0001) %MON ad_dynstat_adtheta_min       =  -1.1031742530164E-04
(PID.TID 0000.0001) %MON ad_dynstat_adtheta_mean      =  -1.0114025271499E-07
(PID.TID 0000.0001) %MON ad_dynstat_adtheta_sd        =   9.9243404443361E-06
(PID.TID 0000.0001) %MON ad_dynstat_adtheta_del2      =   9.1492702424035E-07
(PID.TID 0000.0001) %MON ad_dynstat_adsalt_max        =   5.0058852841277E-04
(PID.TID 0000.0001) %MON ad_dynstat_adsalt_min        =  -5.2115983155916E-04
(PID.TID 0000.0001) %MON ad_dynstat_adsalt_mean       =   1.0693857877677E-07
(PID.TID 0000.0001) %MON ad_dynstat_adsalt_sd         =   4.5508288181777E-05
(PID.TID 0000.0001) %MON ad_dynstat_adsalt_del2       =   4.0154412062789E-06
(PID.TID 0000.0001) %MON ad_dynstat_adsst_max         =   4.0427954947686E-05
(PID.TID 0000.0001) %MON ad_dynstat_adsst_min         =  -3.2552100166024E-05
(PID.TID 0000.0001) %MON ad_dynstat_adsst_mean        =  -1.0045309350324E-07
(PID.TID 0000.0001) %MON ad_dynstat_adsst_sd          =   3.4360950548754E-06
(PID.TID 0000.0001) %MON ad_dynstat_adsst_del2        =   2.4544673799959E-07
(PID.TID 0000.0001) %MON ad_dynstat_adsss_max         =   8.5444701264302E-05
(PID.TID 0000.0001) %MON ad_dynstat_adsss_min         =  -1.1168916406097E-04
(PID.TID 0000.0001) %MON ad_dynstat_adsss_mean        =   8.7172727401205E-08
(PID.TID 0000.0001) %MON ad_dynstat_adsss_sd          =   9.3877033467959E-06
(PID.TID 0000.0001) %MON ad_dynstat_adsss_del2        =   6.7026833896307E-07
(PID.TID 0000.0001) %MON ad_extforcing_adqnet_max     =   0.0000000000000E+00
(PID.TID 0000.0001) %MON ad_extforcing_adqnet_min     =   0.0000000000000E+00
(PID.TID 0000.0001) %MON ad_extforcing_adqnet_mean    =   0.0000000000000E+00
(PID.TID 0000.0001) %MON ad_extforcing_adqnet_sd      =   0.0000000000000E+00
(PID.TID 0000.0001) %MON ad_extforcing_adqnet_del2    =   0.0000000000000E+00
(PID.TID 0000.0001) %MON ad_extforcing_adempmr_max    =   3.2191492705512E-03
(PID.TID 0000.0001) %MON ad_extforcing_adempmr_min    =  -2.7544196490543E-03
(PID.TID 0000.0001) %MON ad_extforcing_adempmr_mean   =  -1.1940924102909E-06
(PID.TID 0000.0001) %MON ad_extforcing_adempmr_sd     =   2.9419024106222E-04
(PID.TID 0000.0001) %MON ad_extforcing_adempmr_del2   =   2.2536369763152E-05
(PID.TID 0000.0001) %MON ad_extforcing_adfu_max       =   0.0000000000000E+00
(PID.TID 0000.0001) %MON ad_extforcing_adfu_min       =   0.0000000000000E+00
(PID.TID 0000.0001) %MON ad_extforcing_adfu_mean      =   0.0000000000000E+00
(PID.TID 0000.0001) %MON ad_extforcing_adfu_sd        =   0.0000000000000E+00
(PID.TID 0000.0001) %MON ad_extforcing_adfu_del2      =   0.0000000000000E+00
(PID.TID 0000.0001) %MON ad_extforcing_adfv_max       =   0.0000000000000E+00
(PID.TID 0000.0001) %MON ad_extforcing_adfv_min       =   0.0000000000000E+00
(PID.TID 0000.0001) %MON ad_extforcing_adfv_mean      =   0.0000000000000E+00
(PID.TID 0000.0001) %MON ad_extforcing_adfv_sd        =   0.0000000000000E+00
(PID.TID 0000.0001) %MON ad_extforcing_adfv_del2      =   0.0000000000000E+00
(PID.TID 0000.0001) %MON ad_advcfl_aduvel_max         =   3.1477025441496E-04
(PID.TID 0000.0001) %MON ad_advcfl_advvel_max         =   1.6911135888586E-03
(PID.TID 0000.0001) %MON ad_advcfl_adwvel_max         =   1.7690645441221E+00
(PID.TID 0000.0001) %MON ad_advcfl_adW_hf_max         =   1.3664299986559E-01
(PID.TID 0000.0001) // =======================================================
(PID.TID 0000.0001) // End MONITOR dynamic field statistics
(PID.TID 0000.0001) // =======================================================
 cg2d: Sum(rhs),rhsMax =   2.48471987543729E-15  5.53316169076523E-09
 ph-test a  1 15
 ph-test b  1
 ph-test a  1 15
 ph-test b  1
 ph-test a  1 14
 ph-test b  1
 ph-test a  1 14
 ph-test b  1
 ph-test a  1 13
 ph-test b  1
 ph-test a  1 13
 ph-test b  1
 ph-test a  1 12
 ph-test b  1
 ph-test a  1 12
 ph-test b  1
 ph-test a  1 11
 ph-test b  1
 ph-test a  1 11
 ph-test b  1
 ph-test a  1 10
 ph-test b  1
 ph-test a  1 10
 ph-test b  1
 ph-test a  1 9
 ph-test b  1
 ph-test a  1 9
 ph-test b  1
 ph-test a  1 8
 ph-test b  1
 ph-test a  1 8
 ph-test b  1
 ph-test a  1 7
 ph-test b  1
 ph-test a  1 7
 ph-test b  1
 ph-test a  1 6
 ph-test b  1
 ph-test a  1 6
 ph-test b  1
 ph-test a  1 5
 ph-test b  1
 ph-test a  1 5
 ph-test b  1
 ph-test a  1 4
 ph-test b  1
 ph-test a  1 4
 ph-test b  1
 ph-test a  1 3
 ph-test b  1
 ph-test a  1 3
 ph-test b  1
 ph-test a  1 2
 ph-test b  1
 ph-test a  1 2
 ph-test b  1
 ph-test a  1 1
 ph-test b  1
 ph-test a  1 1
 ph-test b  1
time,SST,SSS,fu,fv,Q,E-P,i0,i1,a,b =   1.2960E+05  1.4368E-01  3.4399E+01 -4.0014E-02 -6.3103E-02  2.6516E+02  0.0000E+00    12     1  5.5000E-01  4.5000E-01
time,fu0,fu1,fu =   1.2960E+05 -4.5368E-02 -3.5633E-02 -4.0014E-02  5.500000000000000E-01  4.500000000000000E-01
 cg2d: Sum(rhs),rhsMax =  -1.98868699285981E-14  6.81670284430948E+00
time,SST,SSS,fu,fv,Q,E-P,i0,i1,a,b =   1.7280E+05  1.7385E-01  3.4410E+01 -3.9851E-02 -6.2886E-02  2.6519E+02  0.0000E+00    12     1  5.6667E-01  4.3333E-01
time,fu0,fu1,fu =   1.7280E+05 -4.5368E-02 -3.5633E-02 -3.9851E-02  5.666666666666667E-01  4.333333333333333E-01
 cg2d: Sum(rhs),rhsMax =  -1.35082917074314E-14  6.91786915802128E+00
time,SST,SSS,fu,fv,Q,E-P,i0,i1,a,b =   2.1600E+05  2.0403E-01  3.4422E+01 -3.9689E-02 -6.2670E-02  2.6521E+02  0.0000E+00    12     1  5.8333E-01  4.1667E-01
time,fu0,fu1,fu =   2.1600E+05 -4.5368E-02 -3.5633E-02 -3.9689E-02  5.833333333333334E-01  4.166666666666666E-01
 cg2d: Sum(rhs),rhsMax =  -2.88553902993982E-14  6.87448893655102E+00
time,SST,SSS,fu,fv,Q,E-P,i0,i1,a,b =   2.1600E+05  2.0403E-01  3.4422E+01 -3.9689E-02 -6.2670E-02  2.6521E+02  0.0000E+00    12     1  5.8333E-01  4.1667E-01
time,fu0,fu1,fu =   2.1600E+05 -4.5368E-02 -3.5633E-02 -3.9689E-02  5.833333333333334E-01  4.166666666666666E-01
(PID.TID 0000.0001) // =======================================================
(PID.TID 0000.0001) // Begin MONITOR dynamic field statistics
(PID.TID 0000.0001) // =======================================================
(PID.TID 0000.0001) %MON ad_time_tsnumber             =                     6
(PID.TID 0000.0001) %MON ad_time_secondsf             =   2.5920000000000E+05
(PID.TID 0000.0001) %MON ad_dynstat_adeta_max         =   4.0118279512400E-04
(PID.TID 0000.0001) %MON ad_dynstat_adeta_min         =  -3.1175406600743E-04
(PID.TID 0000.0001) %MON ad_dynstat_adeta_mean        =   1.4431344206458E-08
(PID.TID 0000.0001) %MON ad_dynstat_adeta_sd          =   1.7135543737776E-05
(PID.TID 0000.0001) %MON ad_dynstat_adeta_del2        =   1.3223976440313E-06
(PID.TID 0000.0001) %MON ad_dynstat_aduvel_max        =   4.1929180245059E-03
(PID.TID 0000.0001) %MON ad_dynstat_aduvel_min        =  -1.5183458155326E-03
(PID.TID 0000.0001) %MON ad_dynstat_aduvel_mean       =   5.0335448445103E-06
(PID.TID 0000.0001) %MON ad_dynstat_aduvel_sd         =   1.1966485057539E-04
(PID.TID 0000.0001) %MON ad_dynstat_aduvel_del2       =   6.6991286819052E-06
(PID.TID 0000.0001) %MON ad_dynstat_advvel_max        =   2.0570348419852E-02
(PID.TID 0000.0001) %MON ad_dynstat_advvel_min        =  -1.8504953815287E-02
(PID.TID 0000.0001) %MON ad_dynstat_advvel_mean       =   1.1866095557400E-04
(PID.TID 0000.0001) %MON ad_dynstat_advvel_sd         =   1.0124315229934E-03
(PID.TID 0000.0001) %MON ad_dynstat_advvel_del2       =   7.4270405444743E-05
(PID.TID 0000.0001) %MON ad_dynstat_adwvel_max        =   1.1865274108586E-03
(PID.TID 0000.0001) %MON ad_dynstat_adwvel_min        =  -3.4312467725959E-04
(PID.TID 0000.0001) %MON ad_dynstat_adwvel_mean       =  -5.7572664771389E-07
(PID.TID 0000.0001) %MON ad_dynstat_adwvel_sd         =   1.2405775510492E-05
(PID.TID 0000.0001) %MON ad_dynstat_adwvel_del2       =   9.5123878230890E-07
(PID.TID 0000.0001) %MON ad_dynstat_adtheta_max       =   2.1782012467293E-04
(PID.TID 0000.0001) %MON ad_dynstat_adtheta_min       =  -2.1408685479984E-04
(PID.TID 0000.0001) %MON ad_dynstat_adtheta_mean      =  -1.2985753617825E-07
(PID.TID 0000.0001) %MON ad_dynstat_adtheta_sd        =   1.9356558800979E-05
(PID.TID 0000.0001) %MON ad_dynstat_adtheta_del2      =   1.7289769628286E-06
(PID.TID 0000.0001) %MON ad_dynstat_adsalt_max        =   1.0028932857847E-03
(PID.TID 0000.0001) %MON ad_dynstat_adsalt_min        =  -1.0278629236912E-03
(PID.TID 0000.0001) %MON ad_dynstat_adsalt_mean       =   1.5456984757375E-07
(PID.TID 0000.0001) %MON ad_dynstat_adsalt_sd         =   8.9569972496342E-05
(PID.TID 0000.0001) %MON ad_dynstat_adsalt_del2       =   7.6853581160177E-06
(PID.TID 0000.0001) %MON ad_dynstat_adsst_max         =   5.0255070165880E-05
(PID.TID 0000.0001) %MON ad_dynstat_adsst_min         =  -3.8185146333260E-05
(PID.TID 0000.0001) %MON ad_dynstat_adsst_mean        =  -1.4160741471229E-07
(PID.TID 0000.0001) %MON ad_dynstat_adsst_sd          =   4.0999541073403E-06
(PID.TID 0000.0001) %MON ad_dynstat_adsst_del2        =   2.5568424369974E-07
(PID.TID 0000.0001) %MON ad_dynstat_adsss_max         =   1.0060591109504E-04
(PID.TID 0000.0001) %MON ad_dynstat_adsss_min         =  -1.3906784966749E-04
(PID.TID 0000.0001) %MON ad_dynstat_adsss_mean        =   1.3472010984176E-07
(PID.TID 0000.0001) %MON ad_dynstat_adsss_sd          =   1.1237161176913E-05
(PID.TID 0000.0001) %MON ad_dynstat_adsss_del2        =   7.0086063400042E-07
(PID.TID 0000.0001) %MON ad_extforcing_adqnet_max     =   0.0000000000000E+00
(PID.TID 0000.0001) %MON ad_extforcing_adqnet_min     =   0.0000000000000E+00
(PID.TID 0000.0001) %MON ad_extforcing_adqnet_mean    =   0.0000000000000E+00
(PID.TID 0000.0001) %MON ad_extforcing_adqnet_sd      =   0.0000000000000E+00
(PID.TID 0000.0001) %MON ad_extforcing_adqnet_del2    =   0.0000000000000E+00
(PID.TID 0000.0001) %MON ad_extforcing_adempmr_max    =   4.1483954808842E-03
(PID.TID 0000.0001) %MON ad_extforcing_adempmr_min    =  -3.3571694911308E-03
(PID.TID 0000.0001) %MON ad_extforcing_adempmr_mean   =  -1.4042889129125E-06
(PID.TID 0000.0001) %MON ad_extforcing_adempmr_sd     =   3.6894676274858E-04
(PID.TID 0000.0001) %MON ad_extforcing_adempmr_del2   =   2.5549720945576E-05
(PID.TID 0000.0001) %MON ad_extforcing_adfu_max       =   0.0000000000000E+00
(PID.TID 0000.0001) %MON ad_extforcing_adfu_min       =   0.0000000000000E+00
(PID.TID 0000.0001) %MON ad_extforcing_adfu_mean      =   0.0000000000000E+00
(PID.TID 0000.0001) %MON ad_extforcing_adfu_sd        =   0.0000000000000E+00
(PID.TID 0000.0001) %MON ad_extforcing_adfu_del2      =   0.0000000000000E+00
(PID.TID 0000.0001) %MON ad_extforcing_adfv_max       =   0.0000000000000E+00
(PID.TID 0000.0001) %MON ad_extforcing_adfv_min       =   0.0000000000000E+00
(PID.TID 0000.0001) %MON ad_extforcing_adfv_mean      =   0.0000000000000E+00
(PID.TID 0000.0001) %MON ad_extforcing_adfv_sd        =   0.0000000000000E+00
(PID.TID 0000.0001) %MON ad_extforcing_adfv_del2      =   0.0000000000000E+00
(PID.TID 0000.0001) %MON ad_advcfl_aduvel_max         =   4.7031918595075E-04
(PID.TID 0000.0001) %MON ad_advcfl_advvel_max         =   1.9982443946261E-03
(PID.TID 0000.0001) %MON ad_advcfl_adwvel_max         =   2.0503193659636E+00
(PID.TID 0000.0001) %MON ad_advcfl_adW_hf_max         =   1.5765004299955E-01
(PID.TID 0000.0001) // =======================================================
(PID.TID 0000.0001) // End MONITOR dynamic field statistics
(PID.TID 0000.0001) // =======================================================
 cg2d: Sum(rhs),rhsMax =   1.04772878004780E-14  3.71222016638270E-09
 ph-test a  1 15
 ph-test b  1
 ph-test a  1 15
 ph-test b  1
 ph-test a  1 14
 ph-test b  1
 ph-test a  1 14
 ph-test b  1
 ph-test a  1 13
 ph-test b  1
 ph-test a  1 13
 ph-test b  1
 ph-test a  1 12
 ph-test b  1
 ph-test a  1 12
 ph-test b  1
 ph-test a  1 11
 ph-test b  1
 ph-test a  1 11
 ph-test b  1
 ph-test a  1 10
 ph-test b  1
 ph-test a  1 10
 ph-test b  1
 ph-test a  1 9
 ph-test b  1
 ph-test a  1 9
 ph-test b  1
 ph-test a  1 8
 ph-test b  1
 ph-test a  1 8
 ph-test b  1
 ph-test a  1 7
 ph-test b  1
 ph-test a  1 7
 ph-test b  1
 ph-test a  1 6
 ph-test b  1
 ph-test a  1 6
 ph-test b  1
 ph-test a  1 5
 ph-test b  1
 ph-test a  1 5
 ph-test b  1
 ph-test a  1 4
 ph-test b  1
 ph-test a  1 4
 ph-test b  1
 ph-test a  1 3
 ph-test b  1
 ph-test a  1 3
 ph-test b  1
 ph-test a  1 2
 ph-test b  1
 ph-test a  1 2
 ph-test b  1
 ph-test a  1 1
 ph-test b  1
 ph-test a  1 1
 ph-test b  1
time,SST,SSS,fu,fv,Q,E-P,i0,i1,a,b =   1.7280E+05  1.7385E-01  3.4410E+01 -3.9851E-02 -6.2886E-02  2.6519E+02  0.0000E+00    12     1  5.6667E-01  4.3333E-01
time,fu0,fu1,fu =   1.7280E+05 -4.5368E-02 -3.5633E-02 -3.9851E-02  5.666666666666667E-01  4.333333333333333E-01
(PID.TID 0000.0001) // =======================================================
(PID.TID 0000.0001) // Begin MONITOR dynamic field statistics
(PID.TID 0000.0001) // =======================================================
(PID.TID 0000.0001) %MON ad_time_tsnumber             =                     5
(PID.TID 0000.0001) %MON ad_time_secondsf             =   2.1600000000000E+05
(PID.TID 0000.0001) %MON ad_dynstat_adeta_max         =   5.2764714893873E-04
(PID.TID 0000.0001) %MON ad_dynstat_adeta_min         =  -4.0928972114234E-04
(PID.TID 0000.0001) %MON ad_dynstat_adeta_mean        =   2.6602232386197E-08
(PID.TID 0000.0001) %MON ad_dynstat_adeta_sd          =   2.3704103279658E-05
(PID.TID 0000.0001) %MON ad_dynstat_adeta_del2        =   1.9914966147085E-06
(PID.TID 0000.0001) %MON ad_dynstat_aduvel_max        =   6.6044473384544E-03
(PID.TID 0000.0001) %MON ad_dynstat_aduvel_min        =  -1.8324031137191E-03
(PID.TID 0000.0001) %MON ad_dynstat_aduvel_mean       =   8.1722512961419E-06
(PID.TID 0000.0001) %MON ad_dynstat_aduvel_sd         =   1.7076365118007E-04
(PID.TID 0000.0001) %MON ad_dynstat_aduvel_del2       =   9.5362500226395E-06
(PID.TID 0000.0001) %MON ad_dynstat_advvel_max        =   2.3554825019920E-02
(PID.TID 0000.0001) %MON ad_dynstat_advvel_min        =  -2.4306408783321E-02
(PID.TID 0000.0001) %MON ad_dynstat_advvel_mean       =   1.2931832348291E-04
(PID.TID 0000.0001) %MON ad_dynstat_advvel_sd         =   1.2200888254431E-03
(PID.TID 0000.0001) %MON ad_dynstat_advvel_del2       =   8.9533354801788E-05
(PID.TID 0000.0001) %MON ad_dynstat_adwvel_max        =   1.2441293562616E-03
(PID.TID 0000.0001) %MON ad_dynstat_adwvel_min        =  -3.5443357726566E-04
(PID.TID 0000.0001) %MON ad_dynstat_adwvel_mean       =  -5.7245534706268E-07
(PID.TID 0000.0001) %MON ad_dynstat_adwvel_sd         =   1.2431740395090E-05
(PID.TID 0000.0001) %MON ad_dynstat_adwvel_del2       =   9.7262617765451E-07
(PID.TID 0000.0001) %MON ad_dynstat_adtheta_max       =   3.4931833646875E-04
(PID.TID 0000.0001) %MON ad_dynstat_adtheta_min       =  -3.6175612722154E-04
(PID.TID 0000.0001) %MON ad_dynstat_adtheta_mean      =  -1.5528716887994E-07
(PID.TID 0000.0001) %MON ad_dynstat_adtheta_sd        =   3.1614227443267E-05
(PID.TID 0000.0001) %MON ad_dynstat_adtheta_del2      =   2.7639300312943E-06
(PID.TID 0000.0001) %MON ad_dynstat_adsalt_max        =   1.7523379160288E-03
(PID.TID 0000.0001) %MON ad_dynstat_adsalt_min        =  -1.6740618190134E-03
(PID.TID 0000.0001) %MON ad_dynstat_adsalt_mean       =   1.9654267822840E-07
(PID.TID 0000.0001) %MON ad_dynstat_adsalt_sd         =   1.4666634861737E-04
(PID.TID 0000.0001) %MON ad_dynstat_adsalt_del2       =   1.2326193809790E-05
(PID.TID 0000.0001) %MON ad_dynstat_adsst_max         =   5.4018311648811E-05
(PID.TID 0000.0001) %MON ad_dynstat_adsst_min         =  -4.0468458604625E-05
(PID.TID 0000.0001) %MON ad_dynstat_adsst_mean        =  -1.8464224447085E-07
(PID.TID 0000.0001) %MON ad_dynstat_adsst_sd          =   4.5407324648533E-06
(PID.TID 0000.0001) %MON ad_dynstat_adsst_del2        =   2.4929629990287E-07
(PID.TID 0000.0001) %MON ad_dynstat_adsss_max         =   1.0647914279680E-04
(PID.TID 0000.0001) %MON ad_dynstat_adsss_min         =  -1.5018946648585E-04
(PID.TID 0000.0001) %MON ad_dynstat_adsss_mean        =   1.8532596590776E-07
(PID.TID 0000.0001) %MON ad_dynstat_adsss_sd          =   1.2513260789812E-05
(PID.TID 0000.0001) %MON ad_dynstat_adsss_del2        =   6.8816566935353E-07
(PID.TID 0000.0001) %MON ad_extforcing_adqnet_max     =   0.0000000000000E+00
(PID.TID 0000.0001) %MON ad_extforcing_adqnet_min     =   0.0000000000000E+00
(PID.TID 0000.0001) %MON ad_extforcing_adqnet_mean    =   0.0000000000000E+00
(PID.TID 0000.0001) %MON ad_extforcing_adqnet_sd      =   0.0000000000000E+00
(PID.TID 0000.0001) %MON ad_extforcing_adqnet_del2    =   0.0000000000000E+00
(PID.TID 0000.0001) %MON ad_extforcing_adempmr_max    =   4.7689311282385E-03
(PID.TID 0000.0001) %MON ad_extforcing_adempmr_min    =  -3.6478359528845E-03
(PID.TID 0000.0001) %MON ad_extforcing_adempmr_mean   =  -1.6018337634522E-06
(PID.TID 0000.0001) %MON ad_extforcing_adempmr_sd     =   4.3649692335949E-04
(PID.TID 0000.0001) %MON ad_extforcing_adempmr_del2   =   2.8917423101591E-05
(PID.TID 0000.0001) %MON ad_extforcing_adfu_max       =   0.0000000000000E+00
(PID.TID 0000.0001) %MON ad_extforcing_adfu_min       =   0.0000000000000E+00
(PID.TID 0000.0001) %MON ad_extforcing_adfu_mean      =   0.0000000000000E+00
(PID.TID 0000.0001) %MON ad_extforcing_adfu_sd        =   0.0000000000000E+00
(PID.TID 0000.0001) %MON ad_extforcing_adfu_del2      =   0.0000000000000E+00
(PID.TID 0000.0001) %MON ad_extforcing_adfv_max       =   0.0000000000000E+00
(PID.TID 0000.0001) %MON ad_extforcing_adfv_min       =   0.0000000000000E+00
(PID.TID 0000.0001) %MON ad_extforcing_adfv_mean      =   0.0000000000000E+00
(PID.TID 0000.0001) %MON ad_extforcing_adfv_sd        =   0.0000000000000E+00
(PID.TID 0000.0001) %MON ad_extforcing_adfv_del2      =   0.0000000000000E+00
(PID.TID 0000.0001) %MON ad_advcfl_aduvel_max         =   7.4082018244144E-04
(PID.TID 0000.0001) %MON ad_advcfl_advvel_max         =   2.3611726993349E-03
(PID.TID 0000.0001) %MON ad_advcfl_adwvel_max         =   2.1498555276201E+00
(PID.TID 0000.0001) %MON ad_advcfl_adW_hf_max         =   1.6393461007227E-01
(PID.TID 0000.0001) // =======================================================
(PID.TID 0000.0001) // End MONITOR dynamic field statistics
(PID.TID 0000.0001) // =======================================================
 cg2d: Sum(rhs),rhsMax =  -7.18772856113491E-15  5.91073078120433E-09
 ph-test a  1 15
 ph-test b  1
 ph-test a  1 15
 ph-test b  1
 ph-test a  1 14
 ph-test b  1
 ph-test a  1 14
 ph-test b  1
 ph-test a  1 13
 ph-test b  1
 ph-test a  1 13
 ph-test b  1
 ph-test a  1 12
 ph-test b  1
 ph-test a  1 12
 ph-test b  1
 ph-test a  1 11
 ph-test b  1
 ph-test a  1 11
 ph-test b  1
 ph-test a  1 10
 ph-test b  1
 ph-test a  1 10
 ph-test b  1
 ph-test a  1 9
 ph-test b  1
 ph-test a  1 9
 ph-test b  1
 ph-test a  1 8
 ph-test b  1
 ph-test a  1 8
 ph-test b  1
 ph-test a  1 7
 ph-test b  1
 ph-test a  1 7
 ph-test b  1
 ph-test a  1 6
 ph-test b  1
 ph-test a  1 6
 ph-test b  1
 ph-test a  1 5
 ph-test b  1
 ph-test a  1 5
 ph-test b  1
 ph-test a  1 4
 ph-test b  1
 ph-test a  1 4
 ph-test b  1
 ph-test a  1 3
 ph-test b  1
 ph-test a  1 3
 ph-test b  1
 ph-test a  1 2
 ph-test b  1
 ph-test a  1 2
 ph-test b  1
 ph-test a  1 1
 ph-test b  1
 ph-test a  1 1
 ph-test b  1
time,SST,SSS,fu,fv,Q,E-P,i0,i1,a,b =   1.2960E+05  1.4368E-01  3.4399E+01 -4.0014E-02 -6.3103E-02  2.6516E+02  0.0000E+00    12     1  5.5000E-01  4.5000E-01
time,fu0,fu1,fu =   1.2960E+05 -4.5368E-02 -3.5633E-02 -4.0014E-02  5.500000000000000E-01  4.500000000000000E-01
(PID.TID 0000.0001) // =======================================================
(PID.TID 0000.0001) // Begin MONITOR dynamic field statistics
(PID.TID 0000.0001) // =======================================================
(PID.TID 0000.0001) %MON ad_time_tsnumber             =                     4
(PID.TID 0000.0001) %MON ad_time_secondsf             =   1.7280000000000E+05
(PID.TID 0000.0001) %MON ad_dynstat_adeta_max         =   6.5550411046936E-04
(PID.TID 0000.0001) %MON ad_dynstat_adeta_min         =  -5.1432705167598E-04
(PID.TID 0000.0001) %MON ad_dynstat_adeta_mean        =   4.4121780927848E-08
(PID.TID 0000.0001) %MON ad_dynstat_adeta_sd          =   3.1127930419527E-05
(PID.TID 0000.0001) %MON ad_dynstat_adeta_del2        =   2.8123827838087E-06
(PID.TID 0000.0001) %MON ad_dynstat_aduvel_max        =   8.9382686664372E-03
(PID.TID 0000.0001) %MON ad_dynstat_aduvel_min        =  -2.3583508921361E-03
(PID.TID 0000.0001) %MON ad_dynstat_aduvel_mean       =   1.2196838875943E-05
(PID.TID 0000.0001) %MON ad_dynstat_aduvel_sd         =   2.2080971334646E-04
(PID.TID 0000.0001) %MON ad_dynstat_aduvel_del2       =   1.2092928674120E-05
(PID.TID 0000.0001) %MON ad_dynstat_advvel_max        =   2.6349008696061E-02
(PID.TID 0000.0001) %MON ad_dynstat_advvel_min        =  -2.9708489787165E-02
(PID.TID 0000.0001) %MON ad_dynstat_advvel_mean       =   1.3589620643206E-04
(PID.TID 0000.0001) %MON ad_dynstat_advvel_sd         =   1.4200996474470E-03
(PID.TID 0000.0001) %MON ad_dynstat_advvel_del2       =   1.0338278062790E-04
(PID.TID 0000.0001) %MON ad_dynstat_adwvel_max        =   1.1612910526706E-03
(PID.TID 0000.0001) %MON ad_dynstat_adwvel_min        =  -3.2384906217317E-04
(PID.TID 0000.0001) %MON ad_dynstat_adwvel_mean       =  -4.8692218555573E-07
(PID.TID 0000.0001) %MON ad_dynstat_adwvel_sd         =   1.1180178162359E-05
(PID.TID 0000.0001) %MON ad_dynstat_adwvel_del2       =   8.9401710145137E-07
(PID.TID 0000.0001) %MON ad_dynstat_adtheta_max       =   5.0410877541652E-04
(PID.TID 0000.0001) %MON ad_dynstat_adtheta_min       =  -5.5100946731088E-04
(PID.TID 0000.0001) %MON ad_dynstat_adtheta_mean      =  -1.7422412580333E-07
(PID.TID 0000.0001) %MON ad_dynstat_adtheta_sd        =   4.6164549736025E-05
(PID.TID 0000.0001) %MON ad_dynstat_adtheta_del2      =   3.9673651861518E-06
(PID.TID 0000.0001) %MON ad_dynstat_adsalt_max        =   2.6873689873564E-03
(PID.TID 0000.0001) %MON ad_dynstat_adsalt_min        =  -2.4410887273904E-03
(PID.TID 0000.0001) %MON ad_dynstat_adsalt_mean       =   2.2725395674823E-07
(PID.TID 0000.0001) %MON ad_dynstat_adsalt_sd         =   2.1434050253376E-04
(PID.TID 0000.0001) %MON ad_dynstat_adsalt_del2       =   1.7724202073529E-05
(PID.TID 0000.0001) %MON ad_dynstat_adsst_max         =   5.3188852569410E-05
(PID.TID 0000.0001) %MON ad_dynstat_adsst_min         =  -4.0780526168922E-05
(PID.TID 0000.0001) %MON ad_dynstat_adsst_mean        =  -2.4444574613334E-07
(PID.TID 0000.0001) %MON ad_dynstat_adsst_sd          =   4.8336275346239E-06
(PID.TID 0000.0001) %MON ad_dynstat_adsst_del2        =   2.2670234888646E-07
(PID.TID 0000.0001) %MON ad_dynstat_adsss_max         =   1.0697680204694E-04
(PID.TID 0000.0001) %MON ad_dynstat_adsss_min         =  -1.4841631550051E-04
(PID.TID 0000.0001) %MON ad_dynstat_adsss_mean        =   2.5364594911435E-07
(PID.TID 0000.0001) %MON ad_dynstat_adsss_sd          =   1.3482613807026E-05
(PID.TID 0000.0001) %MON ad_dynstat_adsss_del2        =   6.4050685335992E-07
(PID.TID 0000.0001) %MON ad_extforcing_adqnet_max     =   0.0000000000000E+00
(PID.TID 0000.0001) %MON ad_extforcing_adqnet_min     =   0.0000000000000E+00
(PID.TID 0000.0001) %MON ad_extforcing_adqnet_mean    =   0.0000000000000E+00
(PID.TID 0000.0001) %MON ad_extforcing_adqnet_sd      =   0.0000000000000E+00
(PID.TID 0000.0001) %MON ad_extforcing_adqnet_del2    =   0.0000000000000E+00
(PID.TID 0000.0001) %MON ad_extforcing_adempmr_max    =   5.2024590003548E-03
(PID.TID 0000.0001) %MON ad_extforcing_adempmr_min    =  -3.9367324819412E-03
(PID.TID 0000.0001) %MON ad_extforcing_adempmr_mean   =  -1.6573014040945E-06
(PID.TID 0000.0001) %MON ad_extforcing_adempmr_sd     =   5.1139853889005E-04
(PID.TID 0000.0001) %MON ad_extforcing_adempmr_del2   =   3.5147538452934E-05
(PID.TID 0000.0001) %MON ad_extforcing_adfu_max       =   0.0000000000000E+00
(PID.TID 0000.0001) %MON ad_extforcing_adfu_min       =   0.0000000000000E+00
(PID.TID 0000.0001) %MON ad_extforcing_adfu_mean      =   0.0000000000000E+00
(PID.TID 0000.0001) %MON ad_extforcing_adfu_sd        =   0.0000000000000E+00
(PID.TID 0000.0001) %MON ad_extforcing_adfu_del2      =   0.0000000000000E+00
(PID.TID 0000.0001) %MON ad_extforcing_adfv_max       =   0.0000000000000E+00
(PID.TID 0000.0001) %MON ad_extforcing_adfv_min       =   0.0000000000000E+00
(PID.TID 0000.0001) %MON ad_extforcing_adfv_mean      =   0.0000000000000E+00
(PID.TID 0000.0001) %MON ad_extforcing_adfv_sd        =   0.0000000000000E+00
(PID.TID 0000.0001) %MON ad_extforcing_adfv_del2      =   0.0000000000000E+00
(PID.TID 0000.0001) %MON ad_advcfl_aduvel_max         =   1.0026046820945E-03
(PID.TID 0000.0001) %MON ad_advcfl_advvel_max         =   2.8859415493768E-03
(PID.TID 0000.0001) %MON ad_advcfl_adwvel_max         =   2.0067109390149E+00
(PID.TID 0000.0001) %MON ad_advcfl_adW_hf_max         =   1.5219628719124E-01
(PID.TID 0000.0001) // =======================================================
(PID.TID 0000.0001) // End MONITOR dynamic field statistics
(PID.TID 0000.0001) // =======================================================
 cg2d: Sum(rhs),rhsMax =  -3.73796870447395E-15  7.28685089848787E-09
 ph-test a  1 15
 ph-test b  1
 ph-test a  1 15
 ph-test b  1
 ph-test a  1 14
 ph-test b  1
 ph-test a  1 14
 ph-test b  1
 ph-test a  1 13
 ph-test b  1
 ph-test a  1 13
 ph-test b  1
 ph-test a  1 12
 ph-test b  1
 ph-test a  1 12
 ph-test b  1
 ph-test a  1 11
 ph-test b  1
 ph-test a  1 11
 ph-test b  1
 ph-test a  1 10
 ph-test b  1
 ph-test a  1 10
 ph-test b  1
 ph-test a  1 9
 ph-test b  1
 ph-test a  1 9
 ph-test b  1
 ph-test a  1 8
 ph-test b  1
 ph-test a  1 8
 ph-test b  1
 ph-test a  1 7
 ph-test b  1
 ph-test a  1 7
 ph-test b  1
 ph-test a  1 6
 ph-test b  1
 ph-test a  1 6
 ph-test b  1
 ph-test a  1 5
 ph-test b  1
 ph-test a  1 5
 ph-test b  1
 ph-test a  1 4
 ph-test b  1
 ph-test a  1 4
 ph-test b  1
 ph-test a  1 3
 ph-test b  1
 ph-test a  1 3
 ph-test b  1
 ph-test a  1 2
 ph-test b  1
 ph-test a  1 2
 ph-test b  1
 ph-test a  1 1
 ph-test b  1
 ph-test a  1 1
 ph-test b  1
S/R EXTERNAL_FIELDS_LOAD: Reading new data:   12    1         0  0.000000000000E+00
(PID.TID 0000.0001)  MDS_READ_FIELD: opening global file: trenberth_taux.bin
(PID.TID 0000.0001)  MDS_READ_FIELD: opening global file: trenberth_taux.bin
(PID.TID 0000.0001)  MDS_READ_FIELD: opening global file: trenberth_tauy.bin
(PID.TID 0000.0001)  MDS_READ_FIELD: opening global file: trenberth_tauy.bin
(PID.TID 0000.0001)  MDS_READ_FIELD: opening global file: ncep_qnet.bin
(PID.TID 0000.0001)  MDS_READ_FIELD: opening global file: ncep_qnet.bin
(PID.TID 0000.0001)  MDS_READ_FIELD: opening global file: lev_sst.bin
(PID.TID 0000.0001)  MDS_READ_FIELD: opening global file: lev_sst.bin
(PID.TID 0000.0001)  MDS_READ_FIELD: opening global file: lev_sss.bin
(PID.TID 0000.0001)  MDS_READ_FIELD: opening global file: lev_sss.bin
time,SST,SSS,fu,fv,Q,E-P,i0,i1,a,b =   0.0000E+00  5.3151E-02  3.4364E+01 -4.0500E-02 -6.3753E-02  2.6510E+02  0.0000E+00    12     1  5.0000E-01  5.0000E-01
time,fu0,fu1,fu =   0.0000E+00 -4.5368E-02 -3.5633E-02 -4.0500E-02  5.000000000000000E-01  5.000000000000000E-01
(PID.TID 0000.0001)  MDS_READ_FIELD: opening file: xx_tauu.0000000000.001.001.data
(PID.TID 0000.0001)  MDS_READ_FIELD: opening file: xx_tauv.0000000000.001.001.data
(PID.TID 0000.0001)  MDS_READ_FIELD: opening file: xx_sflux.0000000000.001.001.data
(PID.TID 0000.0001)  MDS_READ_FIELD: opening file: xx_hflux.0000000000.001.001.data
 cg2d: Sum(rhs),rhsMax =   1.05956909912663E-14  2.53674886388737E+00
time,SST,SSS,fu,fv,Q,E-P,i0,i1,a,b =   4.3200E+04  8.3327E-02  3.4375E+01 -4.0338E-02 -6.3536E-02  2.6512E+02  0.0000E+00    12     1  5.1667E-01  4.8333E-01
time,fu0,fu1,fu =   4.3200E+04 -4.5368E-02 -3.5633E-02 -4.0338E-02  5.166666666666667E-01  4.833333333333333E-01
 cg2d: Sum(rhs),rhsMax =  -1.35169653248113E-14  4.94099340918605E+00
time,SST,SSS,fu,fv,Q,E-P,i0,i1,a,b =   8.6400E+04  1.1350E-01  3.4387E+01 -4.0176E-02 -6.3320E-02  2.6514E+02  0.0000E+00    12     1  5.3333E-01  4.6667E-01
time,fu0,fu1,fu =   8.6400E+04 -4.5368E-02 -3.5633E-02 -4.0176E-02  5.333333333333333E-01  4.666666666666667E-01
 cg2d: Sum(rhs),rhsMax =  -3.70189989773451E-15  6.30201510737097E+00
time,SST,SSS,fu,fv,Q,E-P,i0,i1,a,b =   8.6400E+04  1.1350E-01  3.4387E+01 -4.0176E-02 -6.3320E-02  2.6514E+02  0.0000E+00    12     1  5.3333E-01  4.6667E-01
time,fu0,fu1,fu =   8.6400E+04 -4.5368E-02 -3.5633E-02 -4.0176E-02  5.333333333333333E-01  4.666666666666667E-01
(PID.TID 0000.0001) // =======================================================
(PID.TID 0000.0001) // Begin MONITOR dynamic field statistics
(PID.TID 0000.0001) // =======================================================
(PID.TID 0000.0001) %MON ad_time_tsnumber             =                     3
(PID.TID 0000.0001) %MON ad_time_secondsf             =   1.2960000000000E+05
(PID.TID 0000.0001) %MON ad_dynstat_adeta_max         =   7.8396968378205E-04
(PID.TID 0000.0001) %MON ad_dynstat_adeta_min         =  -6.2945995561360E-04
(PID.TID 0000.0001) %MON ad_dynstat_adeta_mean        =   6.7698254781004E-08
(PID.TID 0000.0001) %MON ad_dynstat_adeta_sd          =   3.9362991836913E-05
(PID.TID 0000.0001) %MON ad_dynstat_adeta_del2        =   3.7569826335368E-06
(PID.TID 0000.0001) %MON ad_dynstat_aduvel_max        =   1.0933029763745E-02
(PID.TID 0000.0001) %MON ad_dynstat_aduvel_min        =  -2.7753948974640E-03
(PID.TID 0000.0001) %MON ad_dynstat_aduvel_mean       =   1.7026136077110E-05
(PID.TID 0000.0001) %MON ad_dynstat_aduvel_sd         =   2.6518406814816E-04
(PID.TID 0000.0001) %MON ad_dynstat_aduvel_del2       =   1.4188762783777E-05
(PID.TID 0000.0001) %MON ad_dynstat_advvel_max        =   2.8912972101190E-02
(PID.TID 0000.0001) %MON ad_dynstat_advvel_min        =  -3.4732738972932E-02
(PID.TID 0000.0001) %MON ad_dynstat_advvel_mean       =   1.3895941750923E-04
(PID.TID 0000.0001) %MON ad_dynstat_advvel_sd         =   1.6061641968601E-03
(PID.TID 0000.0001) %MON ad_dynstat_advvel_del2       =   1.1574231995577E-04
(PID.TID 0000.0001) %MON ad_dynstat_adwvel_max        =   9.2972235947399E-04
(PID.TID 0000.0001) %MON ad_dynstat_adwvel_min        =  -2.5341896297811E-04
(PID.TID 0000.0001) %MON ad_dynstat_adwvel_mean       =  -3.2646058600348E-07
(PID.TID 0000.0001) %MON ad_dynstat_adwvel_sd         =   8.7631231682919E-06
(PID.TID 0000.0001) %MON ad_dynstat_adwvel_del2       =   7.1706164428622E-07
(PID.TID 0000.0001) %MON ad_dynstat_adtheta_max       =   6.8986308593223E-04
(PID.TID 0000.0001) %MON ad_dynstat_adtheta_min       =  -7.7372918867659E-04
(PID.TID 0000.0001) %MON ad_dynstat_adtheta_mean      =  -1.8460986213535E-07
(PID.TID 0000.0001) %MON ad_dynstat_adtheta_sd        =   6.2651374149196E-05
(PID.TID 0000.0001) %MON ad_dynstat_adtheta_del2      =   5.3177434076227E-06
(PID.TID 0000.0001) %MON ad_dynstat_adsalt_max        =   3.7873067709769E-03
(PID.TID 0000.0001) %MON ad_dynstat_adsalt_min        =  -3.3495475945457E-03
(PID.TID 0000.0001) %MON ad_dynstat_adsalt_mean       =   2.4245648803337E-07
(PID.TID 0000.0001) %MON ad_dynstat_adsalt_sd         =   2.9094622511596E-04
(PID.TID 0000.0001) %MON ad_dynstat_adsalt_del2       =   2.3774983713656E-05
(PID.TID 0000.0001) %MON ad_dynstat_adsst_max         =   4.9994962051887E-05
(PID.TID 0000.0001) %MON ad_dynstat_adsst_min         =  -4.0479801022331E-05
(PID.TID 0000.0001) %MON ad_dynstat_adsst_mean        =  -2.9767082850127E-07
(PID.TID 0000.0001) %MON ad_dynstat_adsst_sd          =   5.1085981741951E-06
(PID.TID 0000.0001) %MON ad_dynstat_adsst_del2        =   2.0868123058704E-07
(PID.TID 0000.0001) %MON ad_dynstat_adsss_max         =   1.3025929499541E-04
(PID.TID 0000.0001) %MON ad_dynstat_adsss_min         =  -1.4031774590259E-04
(PID.TID 0000.0001) %MON ad_dynstat_adsss_mean        =   3.6873273436440E-07
(PID.TID 0000.0001) %MON ad_dynstat_adsss_sd          =   1.4666824612846E-05
(PID.TID 0000.0001) %MON ad_dynstat_adsss_del2        =   6.4018153573532E-07
(PID.TID 0000.0001) %MON ad_extforcing_adqnet_max     =   0.0000000000000E+00
(PID.TID 0000.0001) %MON ad_extforcing_adqnet_min     =   0.0000000000000E+00
(PID.TID 0000.0001) %MON ad_extforcing_adqnet_mean    =   0.0000000000000E+00
(PID.TID 0000.0001) %MON ad_extforcing_adqnet_sd      =   0.0000000000000E+00
(PID.TID 0000.0001) %MON ad_extforcing_adqnet_del2    =   0.0000000000000E+00
(PID.TID 0000.0001) %MON ad_extforcing_adempmr_max    =   5.6389660663657E-03
(PID.TID 0000.0001) %MON ad_extforcing_adempmr_min    =  -4.8504415277315E-03
(PID.TID 0000.0001) %MON ad_extforcing_adempmr_mean   =  -1.4547726417127E-06
(PID.TID 0000.0001) %MON ad_extforcing_adempmr_sd     =   6.0654163647594E-04
(PID.TID 0000.0001) %MON ad_extforcing_adempmr_del2   =   4.6051274811920E-05
(PID.TID 0000.0001) %MON ad_extforcing_adfu_max       =   0.0000000000000E+00
(PID.TID 0000.0001) %MON ad_extforcing_adfu_min       =   0.0000000000000E+00
(PID.TID 0000.0001) %MON ad_extforcing_adfu_mean      =   0.0000000000000E+00
(PID.TID 0000.0001) %MON ad_extforcing_adfu_sd        =   0.0000000000000E+00
(PID.TID 0000.0001) %MON ad_extforcing_adfu_del2      =   0.0000000000000E+00
(PID.TID 0000.0001) %MON ad_extforcing_adfv_max       =   0.0000000000000E+00
(PID.TID 0000.0001) %MON ad_extforcing_adfv_min       =   0.0000000000000E+00
(PID.TID 0000.0001) %MON ad_extforcing_adfv_mean      =   0.0000000000000E+00
(PID.TID 0000.0001) %MON ad_extforcing_adfv_sd        =   0.0000000000000E+00
(PID.TID 0000.0001) %MON ad_extforcing_adfv_del2      =   0.0000000000000E+00
(PID.TID 0000.0001) %MON ad_advcfl_aduvel_max         =   1.2263568303523E-03
(PID.TID 0000.0001) %MON ad_advcfl_advvel_max         =   3.3740070681394E-03
(PID.TID 0000.0001) %MON ad_advcfl_adwvel_max         =   1.6065602371710E+00
(PID.TID 0000.0001) %MON ad_advcfl_adW_hf_max         =   1.2250043116617E-01
(PID.TID 0000.0001) // =======================================================
(PID.TID 0000.0001) // End MONITOR dynamic field statistics
(PID.TID 0000.0001) // =======================================================
 cg2d: Sum(rhs),rhsMax =  -8.90596503549912E-16  8.26989145806968E-09
 ph-test a  1 15
 ph-test b  1
 ph-test a  1 15
 ph-test b  1
 ph-test a  1 14
 ph-test b  1
 ph-test a  1 14
 ph-test b  1
 ph-test a  1 13
 ph-test b  1
 ph-test a  1 13
 ph-test b  1
 ph-test a  1 12
 ph-test b  1
 ph-test a  1 12
 ph-test b  1
 ph-test a  1 11
 ph-test b  1
 ph-test a  1 11
 ph-test b  1
 ph-test a  1 10
 ph-test b  1
 ph-test a  1 10
 ph-test b  1
 ph-test a  1 9
 ph-test b  1
 ph-test a  1 9
 ph-test b  1
 ph-test a  1 8
 ph-test b  1
 ph-test a  1 8
 ph-test b  1
 ph-test a  1 7
 ph-test b  1
 ph-test a  1 7
 ph-test b  1
 ph-test a  1 6
 ph-test b  1
 ph-test a  1 6
 ph-test b  1
 ph-test a  1 5
 ph-test b  1
 ph-test a  1 5
 ph-test b  1
 ph-test a  1 4
 ph-test b  1
 ph-test a  1 4
 ph-test b  1
 ph-test a  1 3
 ph-test b  1
 ph-test a  1 3
 ph-test b  1
 ph-test a  1 2
 ph-test b  1
 ph-test a  1 2
 ph-test b  1
 ph-test a  1 1
 ph-test b  1
 ph-test a  1 1
 ph-test b  1
time,SST,SSS,fu,fv,Q,E-P,i0,i1,a,b =   4.3200E+04  8.3327E-02  3.4375E+01 -4.0338E-02 -6.3536E-02  2.6512E+02  0.0000E+00    12     1  5.1667E-01  4.8333E-01
time,fu0,fu1,fu =   4.3200E+04 -4.5368E-02 -3.5633E-02 -4.0338E-02  5.166666666666667E-01  4.833333333333333E-01
(PID.TID 0000.0001) // =======================================================
(PID.TID 0000.0001) // Begin MONITOR dynamic field statistics
(PID.TID 0000.0001) // =======================================================
(PID.TID 0000.0001) %MON ad_time_tsnumber             =                     2
(PID.TID 0000.0001) %MON ad_time_secondsf             =   8.6400000000000E+04
(PID.TID 0000.0001) %MON ad_dynstat_adeta_max         =   9.1309170952131E-04
(PID.TID 0000.0001) %MON ad_dynstat_adeta_min         =  -7.5638225733771E-04
(PID.TID 0000.0001) %MON ad_dynstat_adeta_mean        =   9.7859007262622E-08
(PID.TID 0000.0001) %MON ad_dynstat_adeta_sd          =   4.8330199764926E-05
(PID.TID 0000.0001) %MON ad_dynstat_adeta_del2        =   4.8197748724033E-06
(PID.TID 0000.0001) %MON ad_dynstat_aduvel_max        =   1.2530557530381E-02
(PID.TID 0000.0001) %MON ad_dynstat_aduvel_min        =  -3.0875665603213E-03
(PID.TID 0000.0001) %MON ad_dynstat_aduvel_mean       =   2.2463599933529E-05
(PID.TID 0000.0001) %MON ad_dynstat_aduvel_sd         =   3.0208602033573E-04
(PID.TID 0000.0001) %MON ad_dynstat_aduvel_del2       =   1.5824703817774E-05
(PID.TID 0000.0001) %MON ad_dynstat_advvel_max        =   3.1208379411025E-02
(PID.TID 0000.0001) %MON ad_dynstat_advvel_min        =  -3.9394856720770E-02
(PID.TID 0000.0001) %MON ad_dynstat_advvel_mean       =   1.3894199828497E-04
(PID.TID 0000.0001) %MON ad_dynstat_advvel_sd         =   1.7764737595348E-03
(PID.TID 0000.0001) %MON ad_dynstat_advvel_del2       =   1.2639517602386E-04
(PID.TID 0000.0001) %MON ad_dynstat_adwvel_max        =   5.9104617301614E-04
(PID.TID 0000.0001) %MON ad_dynstat_adwvel_min        =  -1.5941305110032E-04
(PID.TID 0000.0001) %MON ad_dynstat_adwvel_mean       =  -1.3618732173726E-07
(PID.TID 0000.0001) %MON ad_dynstat_adwvel_sd         =   5.7555437339410E-06
(PID.TID 0000.0001) %MON ad_dynstat_adwvel_del2       =   4.7566322275620E-07
(PID.TID 0000.0001) %MON ad_dynstat_adtheta_max       =   9.0174280000985E-04
(PID.TID 0000.0001) %MON ad_dynstat_adtheta_min       =  -1.0260132012437E-03
(PID.TID 0000.0001) %MON ad_dynstat_adtheta_mean      =  -1.8632297157974E-07
(PID.TID 0000.0001) %MON ad_dynstat_adtheta_sd        =   8.0847161933356E-05
(PID.TID 0000.0001) %MON ad_dynstat_adtheta_del2      =   6.7996289214557E-06
(PID.TID 0000.0001) %MON ad_dynstat_adsalt_max        =   5.0326059794389E-03
(PID.TID 0000.0001) %MON ad_dynstat_adsalt_min        =  -4.3610687251826E-03
(PID.TID 0000.0001) %MON ad_dynstat_adsalt_mean       =   2.3972872130321E-07
(PID.TID 0000.0001) %MON ad_dynstat_adsalt_sd         =   3.7542874399763E-04
(PID.TID 0000.0001) %MON ad_dynstat_adsalt_del2       =   3.0392373505154E-05
(PID.TID 0000.0001) %MON ad_dynstat_adsst_max         =   4.6795552718617E-05
(PID.TID 0000.0001) %MON ad_dynstat_adsst_min         =  -6.4760828210542E-05
(PID.TID 0000.0001) %MON ad_dynstat_adsst_mean        =  -3.8265636346183E-07
(PID.TID 0000.0001) %MON ad_dynstat_adsst_sd          =   5.5866912167028E-06
(PID.TID 0000.0001) %MON ad_dynstat_adsst_del2        =   2.2254409490344E-07
(PID.TID 0000.0001) %MON ad_dynstat_adsss_max         =   1.7065275119250E-04
(PID.TID 0000.0001) %MON ad_dynstat_adsss_min         =  -1.3224229819772E-04
(PID.TID 0000.0001) %MON ad_dynstat_adsss_mean        =   4.8085702055843E-07
(PID.TID 0000.0001) %MON ad_dynstat_adsss_sd          =   1.5857774720105E-05
(PID.TID 0000.0001) %MON ad_dynstat_adsss_del2        =   6.4168033141250E-07
(PID.TID 0000.0001) %MON ad_extforcing_adqnet_max     =   0.0000000000000E+00
(PID.TID 0000.0001) %MON ad_extforcing_adqnet_min     =   0.0000000000000E+00
(PID.TID 0000.0001) %MON ad_extforcing_adqnet_mean    =   0.0000000000000E+00
(PID.TID 0000.0001) %MON ad_extforcing_adqnet_sd      =   0.0000000000000E+00
(PID.TID 0000.0001) %MON ad_extforcing_adqnet_del2    =   0.0000000000000E+00
(PID.TID 0000.0001) %MON ad_extforcing_adempmr_max    =   6.8863183549821E-03
(PID.TID 0000.0001) %MON ad_extforcing_adempmr_min    =  -6.1554032773280E-03
(PID.TID 0000.0001) %MON ad_extforcing_adempmr_mean   =  -9.4896239652931E-07
(PID.TID 0000.0001) %MON ad_extforcing_adempmr_sd     =   7.3095925718470E-04
(PID.TID 0000.0001) %MON ad_extforcing_adempmr_del2   =   6.1466227857930E-05
(PID.TID 0000.0001) %MON ad_extforcing_adfu_max       =   0.0000000000000E+00
(PID.TID 0000.0001) %MON ad_extforcing_adfu_min       =   0.0000000000000E+00
(PID.TID 0000.0001) %MON ad_extforcing_adfu_mean      =   0.0000000000000E+00
(PID.TID 0000.0001) %MON ad_extforcing_adfu_sd        =   0.0000000000000E+00
(PID.TID 0000.0001) %MON ad_extforcing_adfu_del2      =   0.0000000000000E+00
(PID.TID 0000.0001) %MON ad_extforcing_adfv_max       =   0.0000000000000E+00
(PID.TID 0000.0001) %MON ad_extforcing_adfv_min       =   0.0000000000000E+00
(PID.TID 0000.0001) %MON ad_extforcing_adfv_mean      =   0.0000000000000E+00
(PID.TID 0000.0001) %MON ad_extforcing_adfv_sd        =   0.0000000000000E+00
(PID.TID 0000.0001) %MON ad_extforcing_adfv_del2      =   0.0000000000000E+00
(PID.TID 0000.0001) %MON ad_advcfl_aduvel_max         =   1.4055513565382E-03
(PID.TID 0000.0001) %MON ad_advcfl_advvel_max         =   3.8268944216523E-03
(PID.TID 0000.0001) %MON ad_advcfl_adwvel_max         =   1.0213277869719E+00
(PID.TID 0000.0001) %MON ad_advcfl_adW_hf_max         =   7.9990603692571E-02
(PID.TID 0000.0001) // =======================================================
(PID.TID 0000.0001) // End MONITOR dynamic field statistics
(PID.TID 0000.0001) // =======================================================
 cg2d: Sum(rhs),rhsMax =  -8.89850427996419E-16  9.28104002676815E-09
 ph-test a  1 15
 ph-test b  1
 ph-test a  1 15
 ph-test b  1
 ph-test a  1 14
 ph-test b  1
 ph-test a  1 14
 ph-test b  1
 ph-test a  1 13
 ph-test b  1
 ph-test a  1 13
 ph-test b  1
 ph-test a  1 12
 ph-test b  1
 ph-test a  1 12
 ph-test b  1
 ph-test a  1 11
 ph-test b  1
 ph-test a  1 11
 ph-test b  1
 ph-test a  1 10
 ph-test b  1
 ph-test a  1 10
 ph-test b  1
 ph-test a  1 9
 ph-test b  1
 ph-test a  1 9
 ph-test b  1
 ph-test a  1 8
 ph-test b  1
 ph-test a  1 8
 ph-test b  1
 ph-test a  1 7
 ph-test b  1
 ph-test a  1 7
 ph-test b  1
 ph-test a  1 6
 ph-test b  1
 ph-test a  1 6
 ph-test b  1
 ph-test a  1 5
 ph-test b  1
 ph-test a  1 5
 ph-test b  1
 ph-test a  1 4
 ph-test b  1
 ph-test a  1 4
 ph-test b  1
 ph-test a  1 3
 ph-test b  1
 ph-test a  1 3
 ph-test b  1
 ph-test a  1 2
 ph-test b  1
 ph-test a  1 2
 ph-test b  1
 ph-test a  1 1
 ph-test b  1
 ph-test a  1 1
 ph-test b  1
S/R EXTERNAL_FIELDS_LOAD: Reading new data:   12    1         0  0.000000000000E+00
(PID.TID 0000.0001)  MDS_READ_FIELD: opening global file: trenberth_taux.bin
(PID.TID 0000.0001)  MDS_READ_FIELD: opening global file: trenberth_taux.bin
(PID.TID 0000.0001)  MDS_READ_FIELD: opening global file: trenberth_tauy.bin
(PID.TID 0000.0001)  MDS_READ_FIELD: opening global file: trenberth_tauy.bin
(PID.TID 0000.0001)  MDS_READ_FIELD: opening global file: ncep_qnet.bin
(PID.TID 0000.0001)  MDS_READ_FIELD: opening global file: ncep_qnet.bin
(PID.TID 0000.0001)  MDS_READ_FIELD: opening global file: lev_sst.bin
(PID.TID 0000.0001)  MDS_READ_FIELD: opening global file: lev_sst.bin
(PID.TID 0000.0001)  MDS_READ_FIELD: opening global file: lev_sss.bin
(PID.TID 0000.0001)  MDS_READ_FIELD: opening global file: lev_sss.bin
time,SST,SSS,fu,fv,Q,E-P,i0,i1,a,b =   0.0000E+00  5.3151E-02  3.4364E+01 -4.0500E-02 -6.3753E-02  2.6510E+02  0.0000E+00    12     1  5.0000E-01  5.0000E-01
time,fu0,fu1,fu =   0.0000E+00 -4.5368E-02 -3.5633E-02 -4.0500E-02  5.000000000000000E-01  5.000000000000000E-01
(PID.TID 0000.0001) // =======================================================
(PID.TID 0000.0001) // Begin MONITOR dynamic field statistics
(PID.TID 0000.0001) // =======================================================
(PID.TID 0000.0001) %MON ad_time_tsnumber             =                     1
(PID.TID 0000.0001) %MON ad_time_secondsf             =   4.3200000000000E+04
(PID.TID 0000.0001) %MON ad_dynstat_adeta_max         =   1.0429959807695E-03
(PID.TID 0000.0001) %MON ad_dynstat_adeta_min         =  -8.9521257407958E-04
(PID.TID 0000.0001) %MON ad_dynstat_adeta_mean        =   1.3497303715722E-07
(PID.TID 0000.0001) %MON ad_dynstat_adeta_sd          =   5.7928987513864E-05
(PID.TID 0000.0001) %MON ad_dynstat_adeta_del2        =   6.0009830021246E-06
(PID.TID 0000.0001) %MON ad_dynstat_aduvel_max        =   1.3820826624115E-02
(PID.TID 0000.0001) %MON ad_dynstat_aduvel_min        =  -3.3027450045191E-03
(PID.TID 0000.0001) %MON ad_dynstat_aduvel_mean       =   2.8221080524653E-05
(PID.TID 0000.0001) %MON ad_dynstat_aduvel_sd         =   3.3262949137452E-04
(PID.TID 0000.0001) %MON ad_dynstat_aduvel_del2       =   1.7159684960673E-05
(PID.TID 0000.0001) %MON ad_dynstat_advvel_max        =   3.3210165991850E-02
(PID.TID 0000.0001) %MON ad_dynstat_advvel_min        =  -4.3662479791136E-02
(PID.TID 0000.0001) %MON ad_dynstat_advvel_mean       =   1.3618891619489E-04
(PID.TID 0000.0001) %MON ad_dynstat_advvel_sd         =   1.9300500848543E-03
(PID.TID 0000.0001) %MON ad_dynstat_advvel_del2       =   1.3551360234849E-04
(PID.TID 0000.0001) %MON ad_dynstat_adwvel_max        =   2.4684238534658E-04
(PID.TID 0000.0001) %MON ad_dynstat_adwvel_min        =  -7.0771753425308E-05
(PID.TID 0000.0001) %MON ad_dynstat_adwvel_mean       =   7.0056087057328E-10
(PID.TID 0000.0001) %MON ad_dynstat_adwvel_sd         =   2.9025789675291E-06
(PID.TID 0000.0001) %MON ad_dynstat_adwvel_del2       =   2.2749778602818E-07
(PID.TID 0000.0001) %MON ad_dynstat_adtheta_max       =   1.1349961307797E-03
(PID.TID 0000.0001) %MON ad_dynstat_adtheta_min       =  -1.3040989961069E-03
(PID.TID 0000.0001) %MON ad_dynstat_adtheta_mean      =  -1.8271294554160E-07
(PID.TID 0000.0001) %MON ad_dynstat_adtheta_sd        =   1.0056102513901E-04
(PID.TID 0000.0001) %MON ad_dynstat_adtheta_del2      =   8.3932023140712E-06
(PID.TID 0000.0001) %MON ad_dynstat_adsalt_max        =   6.4040087488502E-03
(PID.TID 0000.0001) %MON ad_dynstat_adsalt_min        =  -5.4688684913030E-03
(PID.TID 0000.0001) %MON ad_dynstat_adsalt_mean       =   2.1779063787686E-07
(PID.TID 0000.0001) %MON ad_dynstat_adsalt_sd         =   4.6690337445455E-04
(PID.TID 0000.0001) %MON ad_dynstat_adsalt_del2       =   3.7525017357352E-05
(PID.TID 0000.0001) %MON ad_dynstat_adsst_max         =   4.5092442485214E-05
(PID.TID 0000.0001) %MON ad_dynstat_adsst_min         =  -7.0989204043362E-05
(PID.TID 0000.0001) %MON ad_dynstat_adsst_mean        =  -4.5070091481914E-07
(PID.TID 0000.0001) %MON ad_dynstat_adsst_sd          =   5.9284906209643E-06
(PID.TID 0000.0001) %MON ad_dynstat_adsst_del2        =   2.2891430920828E-07
(PID.TID 0000.0001) %MON ad_dynstat_adsss_max         =   1.9036790126816E-04
(PID.TID 0000.0001) %MON ad_dynstat_adsss_min         =  -1.2822719836353E-04
(PID.TID 0000.0001) %MON ad_dynstat_adsss_mean        =   5.9096540221149E-07
(PID.TID 0000.0001) %MON ad_dynstat_adsss_sd          =   1.6993120703057E-05
(PID.TID 0000.0001) %MON ad_dynstat_adsss_del2        =   6.7608207189285E-07
(PID.TID 0000.0001) %MON ad_extforcing_adqnet_max     =   0.0000000000000E+00
(PID.TID 0000.0001) %MON ad_extforcing_adqnet_min     =   0.0000000000000E+00
(PID.TID 0000.0001) %MON ad_extforcing_adqnet_mean    =   0.0000000000000E+00
(PID.TID 0000.0001) %MON ad_extforcing_adqnet_sd      =   0.0000000000000E+00
(PID.TID 0000.0001) %MON ad_extforcing_adqnet_del2    =   0.0000000000000E+00
(PID.TID 0000.0001) %MON ad_extforcing_adempmr_max    =   8.7127127259932E-03
(PID.TID 0000.0001) %MON ad_extforcing_adempmr_min    =  -7.8574591028664E-03
(PID.TID 0000.0001) %MON ad_extforcing_adempmr_mean   =   4.3590525839953E-07
(PID.TID 0000.0001) %MON ad_extforcing_adempmr_sd     =   8.8724788429000E-04
(PID.TID 0000.0001) %MON ad_extforcing_adempmr_del2   =   8.0287858575215E-05
(PID.TID 0000.0001) %MON ad_extforcing_adfu_max       =   0.0000000000000E+00
(PID.TID 0000.0001) %MON ad_extforcing_adfu_min       =   0.0000000000000E+00
(PID.TID 0000.0001) %MON ad_extforcing_adfu_mean      =   0.0000000000000E+00
(PID.TID 0000.0001) %MON ad_extforcing_adfu_sd        =   0.0000000000000E+00
(PID.TID 0000.0001) %MON ad_extforcing_adfu_del2      =   0.0000000000000E+00
(PID.TID 0000.0001) %MON ad_extforcing_adfv_max       =   0.0000000000000E+00
(PID.TID 0000.0001) %MON ad_extforcing_adfv_min       =   0.0000000000000E+00
(PID.TID 0000.0001) %MON ad_extforcing_adfv_mean      =   0.0000000000000E+00
(PID.TID 0000.0001) %MON ad_extforcing_adfv_sd        =   0.0000000000000E+00
(PID.TID 0000.0001) %MON ad_extforcing_adfv_del2      =   0.0000000000000E+00
(PID.TID 0000.0001) %MON ad_advcfl_aduvel_max         =   1.5502807088117E-03
(PID.TID 0000.0001) %MON ad_advcfl_advvel_max         =   4.2414597807157E-03
(PID.TID 0000.0001) %MON ad_advcfl_adwvel_max         =   4.2654364187888E-01
(PID.TID 0000.0001) %MON ad_advcfl_adW_hf_max         =   3.5112042869634E-02
(PID.TID 0000.0001) // =======================================================
(PID.TID 0000.0001) // End MONITOR dynamic field statistics
(PID.TID 0000.0001) // =======================================================
 cg2d: Sum(rhs),rhsMax =  -7.30432227083616E-15  1.12133784800701E-08
 ph-test a  1 15
 ph-test b  1
 ph-test a  1 15
 ph-test b  1
 ph-test a  1 14
 ph-test b  1
 ph-test a  1 14
 ph-test b  1
 ph-test a  1 13
 ph-test b  1
 ph-test a  1 13
 ph-test b  1
 ph-test a  1 12
 ph-test b  1
 ph-test a  1 12
 ph-test b  1
 ph-test a  1 11
 ph-test b  1
 ph-test a  1 11
 ph-test b  1
 ph-test a  1 10
 ph-test b  1
 ph-test a  1 10
 ph-test b  1
 ph-test a  1 9
 ph-test b  1
 ph-test a  1 9
 ph-test b  1
 ph-test a  1 8
 ph-test b  1
 ph-test a  1 8
 ph-test b  1
 ph-test a  1 7
 ph-test b  1
 ph-test a  1 7
 ph-test b  1
 ph-test a  1 6
 ph-test b  1
 ph-test a  1 6
 ph-test b  1
 ph-test a  1 5
 ph-test b  1
 ph-test a  1 5
 ph-test b  1
 ph-test a  1 4
 ph-test b  1
 ph-test a  1 4
 ph-test b  1
 ph-test a  1 3
 ph-test b  1
 ph-test a  1 3
 ph-test b  1
 ph-test a  1 2
 ph-test b  1
 ph-test a  1 2
 ph-test b  1
 ph-test a  1 1
 ph-test b  1
 ph-test a  1 1
 ph-test b  1
(PID.TID 0000.0001)  MDS_READ_FIELD: opening file: adxx_hflux.0000000000.001.001.data
(PID.TID 0000.0001)  MDS_READ_FIELD: opening file: adxx_sflux.0000000000.001.001.data
(PID.TID 0000.0001)  MDS_READ_FIELD: opening file: adxx_tauv.0000000000.001.001.data
(PID.TID 0000.0001)  MDS_READ_FIELD: opening file: adxx_tauu.0000000000.001.001.data
(PID.TID 0000.0001)  MDS_READ_FIELD: opening global file: bathymetry.bin
(PID.TID 0000.0001) // =======================================================
(PID.TID 0000.0001) // Field Model R_low (ini_masks_etc) at iteration          1
(PID.TID 0000.0001) // CMIN =         -5.200000000000000E+03
(PID.TID 0000.0001) // CMAX =         -1.200000000000000E+02
(PID.TID 0000.0001) // CINT =          1.881481481481482E+02
(PID.TID 0000.0001) // SYMBOLS (CMIN->CMAX): -abcdefghijklmnopqrstuvwxyz+
(PID.TID 0000.0001) //                  0.0: .
(PID.TID 0000.0001) // RANGE I (Lo:Hi:Step):(  -2:  93:   1)
(PID.TID 0000.0001) // RANGE J (Lo:Hi:Step):(  43:  -2:  -1)
(PID.TID 0000.0001) // RANGE K (Lo:Hi:Step):(   1:   1:   1)
(PID.TID 0000.0001) // =======================================================
(PID.TID 0000.0001) K =   1
(PID.TID 0000.0001) //                I=7       I=17      I=27      I=37      I=47      I=57      I=67      I=77      I=87
(PID.TID 0000.0001) // |--J--|210123456|890123456|890123456|890123456|890123456|890123456|890123456|890123456|890123456|890123
(PID.TID 0000.0001) //     43 ................................................................................................
(PID.TID 0000.0001) //     42 .............................................zyxxmgfeeefefgimnpwwwy..+zyy.....yyyyoiiihhz+......
(PID.TID 0000.0001) //     41 ................................................................................................
(PID.TID 0000.0001) //     40 +qlloqz+.++++zzz++++++..................................................................+++qlloq
(PID.TID 0000.0001) //     39 uslloorzzzzzzzzz+...++.....................................................yxxz........+zvuslloo
(PID.TID 0000.0001) //     38 smqpporzzzzzz+++...........................................................zxxy+......zyyvsmqppo
(PID.TID 0000.0001) //     37 smmmuz..................................................................++...zy+...yttyy.+smmmuz
(PID.TID 0000.0001) //     36 yutt+.........................................mm++....................+++++++znmm.yoowssvuyutt+.
(PID.TID 0000.0001) //     35 w++++.................................+zzz..rrmmkk+...+gghn...........+++....+nmiijlsoopuww++++.
(PID.TID 0000.0001) //     34 +.....................................+vvy.ggqyxv+y.ccdffhim..................+nihhikkihhm+.....
(PID.TID 0000.0001) //     33 w+.....................................uuz---h------aaabdefin+.................zqvddflifffw+....
(PID.TID 0000.0001) //     32 m+.....................................+t----h---------acdfgnn................+++gdffkofffm+....
(PID.TID 0000.0001) //     31 m......................................-----ad--------abddegil..............qbaafccdhqqgddm.....
(PID.TID 0000.0001) //     30 i.....................................f----b--b------------abd............zfbb--fbcdosjfddi.....
(PID.TID 0000.0001) //     29 i...................................tu----e---fjg----------abdf...........eaac--abfmijaadgi.....
(PID.TID 0000.0001) //     28 z.................................+xfl-------------------bdedefi.........qbaa---aemfbbaaejz.....
(PID.TID 0000.0001) //     27 .................xx..............+wfgfpf--------eallc---bbbccefgi...+++x.qb-----akfa---ah.......
(PID.TID 0000.0001) //     26 .................xnn...........+vd---dna------a--aicfna---aabdfghku.++xssuy-----bgca---ci.......
(PID.TID 0000.0001) //     25 .................iiik...oo+...+ivd---doaa-bc--ilglf--aa---aabcghhkll...ssum+xaaacjbaabdjk.......
(PID.TID 0000.0001) //     24 ...............xnheeft.kkk+...uii.aagdm----aa-----a-------bbbcdefjljjju.zummwwbbchba--abi.......
(PID.TID 0000.0001) //     23 ...............xgheefp.iikw...uuw..fihi----fed-----eaaa--bbbbcdfflkjiiiq....zykccefa--abd.......
(PID.TID 0000.0001) //     22 quss...........bbelffslffkk...zz.wqkeeqoheccdfa-----egabaabcdddegghliiiqq......xeeehheehccquss..
(PID.TID 0000.0001) //     21 cbbeir........nbbcdjhqdddiiz.....wqfeelgghmedea-----bibbcddddddefghklnqoo........ieeflhgcccbbeir
(PID.TID 0000.0001) //     20 cbbder.......ldcccdgkccccidd......z.vkkktqqhegg----aaacddddddddefghkiiijl.........nhfa--gfcbbder
(PID.TID 0000.0001) //     19 hcdaaf.......kddosggpaaaibbccx...+z+.....r+nlec---agaaabcddccddefikfgffff...........d---cjhcdaaf
(PID.TID 0000.0001) //     18 hd---d.......kglggvliaaaibbcaaeaiv++...qqzolhecccfdgkaabcdfccdeeikgfgffdd+..........d---djhd---d
(PID.TID 0000.0001) //     17 hc---c.......l.feewlfaaaoaa----aiv.....qqnllslmlofcdbaacceffffhhligfigeddj.........hd---ckhc---c
(PID.TID 0000.0001) //     16 gba--c......tn.ddgnlfdaaqa-----lv.......vnllvllnwv--accivomfffhilhgfffeddjf........re--aeigba--c
(PID.TID 0000.0001) //     15 fb--dpz....+ll.ccdfhmdddlc----av.........otsxoomv---abccddfihgijkhgfffeejfff......+fd---ckfb--dp
(PID.TID 0000.0001) //     14 fc--mcl....weeqbaafilkfend--eagy.........hhstofft----aacdheefijkmjhhjijiffff.....zlfdaaadlfc--mc
(PID.TID 0000.0001) //     13 hcclbbg....nccobaaiddgkffqrqeaal.........eeutqfft------aaceeffhijlkjhhigfffq....+jgfodccflhcclbb
(PID.TID 0000.0001) //     12 hhgaaacw+iiicclemhdddfliigfdcaabfaaaz....ccsurqpc--------abcifffikiiihhggff.....kbbbdfffglhhgaaa
(PID.TID 0000.0001) //     11 kgcaaacbbifccennhbbdefnihgfdccaaaa----..dcccnt.ncab-------aabcdfilhggjiggff....l---abcefjlkgcaaa
(PID.TID 0000.0001) //     10 kfcaaccbdaacfrllfbbdegkmmljhfdddba----d.dcccfx.nyrebaba----abcdgilhfeegijgi..+w--aa-abcfilkfcaac
(PID.TID 0000.0001) //      9 lffcdcccaaaoqsolfdeehikihhlllgfedcccccdmdcccf.vyfaaaaaaaa--abdehmjhfeeefglv.++w-----abcdfklffcdc
(PID.TID 0000.0001) //      8 liffjklcaafddffeeccvznkfffhhhlkjifgjkkfeeddfsyvcaaaaaaccdcccdfgjligedbbceg+.++xffn--cfddefliffjk
(PID.TID 0000.0001) //      7 hmqnnbbkkf--bmbaabbgtykfddeffeeddccdfhlffeelfbaaaaaacddeghgjgjlligeddaaabedfiiiiiisvkfkecchmqnnb
(PID.TID 0000.0001) //      6 cca-------------aabcelttdddedddddccccdfkkiiffbaaaabcdgimmkmefecaaabbbaaabbdfiiiiispmmregifcca---
(PID.TID 0000.0001) //      5 --------a-------aaccehhhiddeddddddcccdfiikomodddefffmlmigedccaaaaaaaababbbdfiijsqgeccccbaa------
(PID.TID 0000.0001) //      4 --ahebaabbbbbeihffgijiiiijpywnnpokkomkiiijmmmolkommmgffeeedccaaaaaabbcccefhmz..yjgeccccbaa--aheb
(PID.TID 0000.0001) //      3 gffhhrpjiiwyy............................yxotmjjjjgfeeeeeeddeffffheddeghjkyy..yqjgeddccdbbgffhhr
(PID.TID 0000.0001) //      2 .............................................zyxxmgfeeefefgimnpwwwy..+zyy.....yyyyoiiihhz+......
(PID.TID 0000.0001) //      1 ................................................................................................
(PID.TID 0000.0001) //      0 +qlloqz+.++++zzz++++++..................................................................+++qlloq
(PID.TID 0000.0001) //     -1 uslloorzzzzzzzzz+...++.....................................................yxxz........+zvuslloo
(PID.TID 0000.0001) //     -2 ................................................................................................
(PID.TID 0000.0001) // =======================================================
(PID.TID 0000.0001) // END OF FIELD                                          =
(PID.TID 0000.0001) // =======================================================
(PID.TID 0000.0001) 
(PID.TID 0000.0001) // =======================================================
(PID.TID 0000.0001) // Field Model Ro_surf (ini_masks_etc) at iteration          1
(PID.TID 0000.0001) // CMIN =          1.000000000000000E+32
(PID.TID 0000.0001) // CMAX =         -1.000000000000000E+32
(PID.TID 0000.0001) // CINT =          0.000000000000000E+00
(PID.TID 0000.0001) // SYMBOLS (CMIN->CMAX): -abcdefghijklmnopqrstuvwxyz+
(PID.TID 0000.0001) //                  0.0: .
(PID.TID 0000.0001) // RANGE I (Lo:Hi:Step):(  -2:  93:   1)
(PID.TID 0000.0001) // RANGE J (Lo:Hi:Step):(  43:  -2:  -1)
(PID.TID 0000.0001) // RANGE K (Lo:Hi:Step):(   1:   1:   1)
(PID.TID 0000.0001) // =======================================================
(PID.TID 0000.0001) // =======================================================
(PID.TID 0000.0001) // END OF FIELD                                          =
(PID.TID 0000.0001) // =======================================================
(PID.TID 0000.0001) 
(PID.TID 0000.0001) // =======================================================
(PID.TID 0000.0001) // Field hFacC at iteration          1
(PID.TID 0000.0001) // CMIN =          1.000000000000000E+00
(PID.TID 0000.0001) // CMAX =          1.000000000000000E+00
(PID.TID 0000.0001) // CINT =          0.000000000000000E+00
(PID.TID 0000.0001) // SYMBOLS (CMIN->CMAX): -abcdefghijklmnopqrstuvwxyz+
(PID.TID 0000.0001) //                  0.0: .
(PID.TID 0000.0001) // RANGE I (Lo:Hi:Step):(  -2:  93:   1)
(PID.TID 0000.0001) // RANGE J (Lo:Hi:Step):(  43:  -2:  -1)
(PID.TID 0000.0001) // RANGE K (Lo:Hi:Step):(   1:   1:   1)
(PID.TID 0000.0001) // =======================================================
(PID.TID 0000.0001) // =======================================================
(PID.TID 0000.0001) // END OF FIELD                                          =
(PID.TID 0000.0001) // =======================================================
(PID.TID 0000.0001) 
(PID.TID 0000.0001) // =======================================================
(PID.TID 0000.0001) // Field hFacW at iteration          1
(PID.TID 0000.0001) // CMIN =          1.000000000000000E+00
(PID.TID 0000.0001) // CMAX =          1.000000000000000E+00
(PID.TID 0000.0001) // CINT =          0.000000000000000E+00
(PID.TID 0000.0001) // SYMBOLS (CMIN->CMAX): -abcdefghijklmnopqrstuvwxyz+
(PID.TID 0000.0001) //                  0.0: .
(PID.TID 0000.0001) // RANGE I (Lo:Hi:Step):(  -2:  93:   1)
(PID.TID 0000.0001) // RANGE J (Lo:Hi:Step):(  43:  -2:  -1)
(PID.TID 0000.0001) // RANGE K (Lo:Hi:Step):(   1:   1:   1)
(PID.TID 0000.0001) // =======================================================
(PID.TID 0000.0001) // =======================================================
(PID.TID 0000.0001) // END OF FIELD                                          =
(PID.TID 0000.0001) // =======================================================
(PID.TID 0000.0001) 
(PID.TID 0000.0001) // =======================================================
(PID.TID 0000.0001) // Field hFacS at iteration          1
(PID.TID 0000.0001) // CMIN =          1.000000000000000E+00
(PID.TID 0000.0001) // CMAX =          1.000000000000000E+00
(PID.TID 0000.0001) // CINT =          0.000000000000000E+00
(PID.TID 0000.0001) // SYMBOLS (CMIN->CMAX): -abcdefghijklmnopqrstuvwxyz+
(PID.TID 0000.0001) //                  0.0: .
(PID.TID 0000.0001) // RANGE I (Lo:Hi:Step):(  -2:  93:   1)
(PID.TID 0000.0001) // RANGE J (Lo:Hi:Step):(  43:  -2:  -1)
(PID.TID 0000.0001) // RANGE K (Lo:Hi:Step):(   1:   1:   1)
(PID.TID 0000.0001) // =======================================================
(PID.TID 0000.0001) // =======================================================
(PID.TID 0000.0001) // END OF FIELD                                          =
(PID.TID 0000.0001) // =======================================================
(PID.TID 0000.0001) 
(PID.TID 0000.0001)  MDS_READ_FIELD: opening global file: lev_t.bin
(PID.TID 0000.0001) // =======================================================
(PID.TID 0000.0001) // Field Initial Temperature at iteration          1
(PID.TID 0000.0001) // CMIN =         -1.900000000000000E+00
(PID.TID 0000.0001) // CMAX =          2.973338890075684E+01
(PID.TID 0000.0001) // CINT =          1.171606996324327E+00
(PID.TID 0000.0001) // SYMBOLS (CMIN->CMAX): -abcdefghijklmnopqrstuvwxyz+
(PID.TID 0000.0001) //                  0.0: .
(PID.TID 0000.0001) // RANGE I (Lo:Hi:Step):(   1:  90:   1)
(PID.TID 0000.0001) // RANGE J (Lo:Hi:Step):(  40:   1:  -1)
(PID.TID 0000.0001) // RANGE K (Lo:Hi:Step):(   1:   1:   1)
(PID.TID 0000.0001) // =======================================================
(PID.TID 0000.0001) K =   1
(PID.TID 0000.0001)                I=10      I=20      I=30      I=40      I=50      I=60      I=70      I=80      I=90
(PID.TID 0000.0001) |--J--|123456789|123456789|123456789|123456789|123456789|123456789|123456789|123456789|123456789|
(PID.TID 0000.0001)     40 bccdd.baa----abdedd..................................................................bbbbb
(PID.TID 0000.0001)     39 ccdddddccbbbaa...ed.....................................................----........bbbbbb
(PID.TID 0000.0001)     38 fffgfedeedddc...........................................................-----......cbbbcde
(PID.TID 0000.0001)     37 ghh..................................................................bc...bbc...edeed.defg
(PID.TID 0000.0001)     36 hh.........................................ddcb....................dcccbabccdd.eefghhihhih
(PID.TID 0000.0001)     35 hh.................................aaab..dddeddd...ffggg...........ccc....ddeeeffghijjjjih
(PID.TID 0000.0001)     34 ...................................babb.deeeeeee.ffffgghh..................ccdffghijkkkj..
(PID.TID 0000.0001)     33 ....................................accdddeeeeefffffgghhiii.................bcfijkkllllkk.
(PID.TID 0000.0001)     32 ....................................bdddeffgffgghhhhhiiijjj................dccglmnmmmmlll.
(PID.TID 0000.0001)     31 ....................................fghiiiijjjjjjkkkkklllkk..............ikkjjmooooonnmm..
(PID.TID 0000.0001)     30 ...................................mmmnmmmmmmmmmmmmmnnnnnmm............moqrrrqrqqqpppooo..
(PID.TID 0000.0001)     29 .................................pqqqqqpppppppppoppoppppponm...........ssssssrrrrrqqqqpp..
(PID.TID 0000.0001)     28 ...............................prssssrrrsssrrrrrrrrrrrrrqqpoo.........uttssstssrssrrrqqq..
(PID.TID 0000.0001)     27 ..............vv..............stuttuuuuutuuuuuuuuuuttttssrrqqq...stuu.vvvuuuuutttttsss....
(PID.TID 0000.0001)     26 ..............vvv...........uuvvvvvwwwwwwwwvvvvvvvvvuuutttsssttv.uuvxxwwwwwwvvvvuuttsr....
(PID.TID 0000.0001)     25 ..............wwwx...xxx...vvvxxxxxyyxxxxxxxxxwwwwwvvvvvuuuuuvwwx...xxxxxxwwwwwwvvutsr....
(PID.TID 0000.0001)     24 ............wwwwxyy.xxyy...wxx.yyyyyyyyyyyxxxxxxxxwwwwwwwvvwwxxyywww.xxxxxxxxxxwwwvvur....
(PID.TID 0000.0001)     23 ............xxxyyyz.xyyy...xxx..yyyyzzyyyyyyyyxxxxxxxxxwwwwwxxxwwwwwx....vwxxxxwwwwwvu....
(PID.TID 0000.0001)     22 w...........xxyyyzyyyyyz...xx.yyzzzzzzzzzzzzzyyzyyyyyyxxwwxxxxwvvvwwxw......yyyyxxxxxxwxxw
(PID.TID 0000.0001)     21 xxx........xxxxyyzzzzzzz+.....zyzzzzzzz++zzzzyyyyyyyyxxwvvwwwwvvvvvvvu........yyyyyyyyyxxx
(PID.TID 0000.0001)     20 xww.......xyyyyxyyzzzzzz+......z.zzzzz+++zzzzzzyyyyyxxxxwvwxwvuuuuuuut.........yyyyxxxxwww
(PID.TID 0000.0001)     19 vvv.......yyyyxwwxyzyyzzzzz...zzz.....++++++z++z+zzzyyyyxxxxwwvvvvvvvu...........yyxxxwwww
(PID.TID 0000.0001)     18 uut.......zzyyywwxyzyyyyzzyzzzzzz...z+z++++zz+++++++zzzyyyyxxwwwvvvvvtt..........yyxxwvvwv
(PID.TID 0000.0001)     17 uus.......z.yyyyyyxyzzyyyyyyyzz.....yzzzzzzzzzzzzzzzzzzyyyyxxwwvuuvvuut.........yyyxxwttvu
(PID.TID 0000.0001)     16 utr......yy.zyyyyxxxxxxxwxxxxy.......yyyyyyyyyyyyyyyyyyyyyyyxxwvvvuuutts........xyyyxwvuuu
(PID.TID 0000.0001)     15 ttrr....xxx.xxxwxwwwwvwwvvvww.........xwxxxxxxxxxxxxxxxxxyyyxwwwvvuttssrr......wxxxxxwwvuu
(PID.TID 0000.0001)     14 ttsq....xyxwwxwvwwwvutuuuuuuu.........wwvwwwwvwvvwwwvwvvwwwwwwvvvuuutssrr.....vwwwwwwwvvvu
(PID.TID 0000.0001)     13 tttr....wwwvvvtttuuuutttssttt.........vvvuuuuuuutttttuuuuuvwwwuuuttttssrr....uvvvvvvvvvvut
(PID.TID 0000.0001)     12 sssssstttutssssrrrrrstrqqrrssqqrrq....uuttssssrrrrrrrrrrrstttssssrssrrqp.....uuuttssttssss
(PID.TID 0000.0001)     11 poprsssrqqqqqrqppooopqpoppppppppppp..sssrrr.rqpppqqqqppppqqqoppqqqqrqqpp....prsrqqqqqppppq
(PID.TID 0000.0001)     10 lllmoooonmnnmnnnnmmmmmmlmmlllmnnnnon.qqqppp.ppppppooooooooonmnnnonnooooo..nmoponnmnnnnnmll
(PID.TID 0000.0001)      9 ihhiiiihhhhhhiiihiiiiihhhiiiijjkkmnllnnnnn.mmmmnnnnmmmmnnmmlklllllklllll.mllmmllkjiijjihhi
(PID.TID 0000.0001)      8 eeeeeeeedefgggffeeffggffffggghiiiijjijklklkkkkkkkklllkkkkjjiiijkjjjjjjkj.kkjjiihggffffedde
(PID.TID 0000.0001)      7 cccccddeedddefeddddddddddefeefffffgggghiiiiiijjjihhgggghhhhhghhhhhhhiiiihiihhgfeddddddcccc
(PID.TID 0000.0001)      6 abbcccddcccccdddddccdddddddccddddddeeeeffggggghhgeddddddeeeeeeefggggghggggffeedccbbbbbbbba
(PID.TID 0000.0001)      5 bbbcccccccccccccccccccccbbccccdddddddcccddeeddeedcbbbbbbccccccdddeeeeeddddddccbbbbaaaaaaab
(PID.TID 0000.0001)      4 bbbbbbbaaabbbbbbbbbbbbaabbabbbbcbbbbbbbbbbbbbbbbbbbabbaaabbbbbbbbbbbbbbbbb..a--aaabbbaaabb
(PID.TID 0000.0001)      3 bbbbaaa-a-............................bbaaaaaaaaaaaaaaaaaaaaaaaaaaaaaaaab..aaaaaaaabbbaaaa
(PID.TID 0000.0001)      2 ..........................................baaaaaaaaaaaa-------aa..aaaa.....aaaaaaaaaaaa...
(PID.TID 0000.0001)      1 ..........................................................................................
(PID.TID 0000.0001) // =======================================================
(PID.TID 0000.0001) // END OF FIELD                                          =
(PID.TID 0000.0001) // =======================================================
(PID.TID 0000.0001) 
(PID.TID 0000.0001)  MDS_READ_FIELD: opening global file: lev_s.bin
(PID.TID 0000.0001) // =======================================================
(PID.TID 0000.0001) // Field Initial Salinity at iteration          1
(PID.TID 0000.0001) // CMIN =          2.975276947021484E+01
(PID.TID 0000.0001) // CMAX =          3.747562789916992E+01
(PID.TID 0000.0001) // CINT =          2.860317936650029E-01
(PID.TID 0000.0001) // SYMBOLS (CMIN->CMAX): -abcdefghijklmnopqrstuvwxyz+
(PID.TID 0000.0001) //                  0.0: .
(PID.TID 0000.0001) // RANGE I (Lo:Hi:Step):(   1:  90:   1)
(PID.TID 0000.0001) // RANGE J (Lo:Hi:Step):(  40:   1:  -1)
(PID.TID 0000.0001) // RANGE K (Lo:Hi:Step):(   1:   1:   1)
(PID.TID 0000.0001) // =======================================================
(PID.TID 0000.0001) K =   1
(PID.TID 0000.0001)                I=10      I=20      I=30      I=40      I=50      I=60      I=70      I=80      I=90
(PID.TID 0000.0001) |--J--|123456789|123456789|123456789|123456789|123456789|123456789|123456789|123456789|123456789|
(PID.TID 0000.0001)     40 qrrrr.oonnooopqtutt..................................................................mnnop
(PID.TID 0000.0001)     39 rssrrrrrrrqqpn...ut.....................................................mmmm........opqqqr
(PID.TID 0000.0001)     38 ssrrqqqqrrqpo...........................................................lkkll......onoqrrs
(PID.TID 0000.0001)     37 ssr..................................................................hg...lln...qppqr.rrrs
(PID.TID 0000.0001)     36 rr.........................................lkji....................feeegikmoop.pqrssssssss
(PID.TID 0000.0001)     35 rr.................................kkkk..lllllki...jijjj...........aa-....opqrrrrrrrssttss
(PID.TID 0000.0001)     34 ...................................jlll.kklllllk.ijkkkjih..................hlpqrqrrsstts..
(PID.TID 0000.0001)     33 ....................................iklkkkkkkkkkjkkjjjjjjii.................jmprrsstttttt.
(PID.TID 0000.0001)     32 ....................................iklllkllllllllkkkkkkkji................gilpstuuttuuut.
(PID.TID 0000.0001)     31 ....................................lmnonnnnoooonnmmmmllkjj..............loopqtvvvuuuuuu..
(PID.TID 0000.0001)     30 ...................................pppppppqqqqpppoooonnmlkk............ptvxwwvvwvvvvvvvu..
(PID.TID 0000.0001)     29 .................................pqqrqqqqqqrrrqqppqqqpponmll...........vxxxxxxwwwwwxwwxw..
(PID.TID 0000.0001)     28 ...............................prrrrrqqrrrrrsrrsrssssssrqonmm.........wxxxxxxxyyyyyyyyxx..
(PID.TID 0000.0001)     27 ..............xx..............prrrrrrrrrssssssstttssssssrqpoop...uwww.wwxxxyyy++zzzzyy....
(PID.TID 0000.0001)     26 ..............wxx...........ppqrrrrrrsssrrstsstttssrrrrrrrqppqqp.wwwvvwwwwwxyy+++zzyxw....
(PID.TID 0000.0001)     25 ..............wxxv...kkk...ooopqrrrrrssrrrrrrrssssqqpppppppppppoo...vvutuuvvwxyyyxxvvu....
(PID.TID 0000.0001)     24 ............uvvwwur.lmlk...nmm.pqqqqrrrrrqqqqrrqqrpppppooooonmmmnooo.uuuuuuttuvvvuvuut....
(PID.TID 0000.0001)     23 ............vvuvtqp.lmml...mln..ppppqpqppppppqpppppppppqppponnnnnoopm....xvuuuvvvvuuut....
(PID.TID 0000.0001)     22 r...........vuttsqqpnppn...mm.oppqqrrqqqqqqppppqqrrrqqqrrppppoopooomjj......uuvvvvvuttssrr
(PID.TID 0000.0001)     21 qmm........ttsssssssrsqon.....opqqqqqqqrrrrqqqssssssrrrrrrrrpqqqppomll........tvvvvuttssrr
(PID.TID 0000.0001)     20 sqq.......sttssrrsrrrrpol......p.qrqpqrrrrrrrstttttsssrrsssrqrrrrqqqpo.........wwwvvvuuutt
(PID.TID 0000.0001)     19 tsr.......ssssrrrrpppppnmmm...oqq.....qrqqsrrstttuuuttssttssrrssrrrrqq...........wwwvuvvvv
(PID.TID 0000.0001)     18 wut.......ssrrrrrqppppppppoooorrr...poqqqprrrttttuuutuuuuuutttttttutsss..........yyxwwxwxx
(PID.TID 0000.0001)     17 wwu.......s.rrrrrrqppppqqqqqqqr.....rrsrqrsssuusrtuuuvvvwwvvvuuuuutttss.........xyzyyyyxxx
(PID.TID 0000.0001)     16 vvt......ss.qrrssrqrqpqrrrrrrr.......ssrrstsstusrsuuuvwwwwxxwwvvvuttttsr........yz+zzzxwww
(PID.TID 0000.0001)     15 utss....stt.rrssstttsrrsrstsr.........ssstttssttsuuttuvvvvwxwwwwwuttsssrr......xyyyyxyyxwv
(PID.TID 0000.0001)     14 utts....sstrrssstuuuuuuuuuutt.........stttuutttttttuttttttuvvvvvvutsrqrrr.....vxxwwwwxwvwv
(PID.TID 0000.0001)     13 uuut....ttttttttuuuuuvtuuuuuu.........ttttuutttttttuutsssstttttstsqrqqppp....uwwwvuvvvutvv
(PID.TID 0000.0001)     12 ttttttttttttttttttttttssuuuuutuuut....tttttttttttsssssrrrrrrrqqqqqppppoo.....rvvuuttttttuu
(PID.TID 0000.0001)     11 rqsttttttttuuttttsssssrrstttttttsss..ttttts.tsssrrrrqqqqqppppoonnooooooo....oruttttsssrqrs
(PID.TID 0000.0001)     10 pppqrssrqqrqpqrssrrqqqqqqrrrrrrrrrrs.sssssr.rssrrqqpppppppooooonnnoooonn..moqrrrqqqqqqqqqq
(PID.TID 0000.0001)      9 oonooooooooonnnooooooooooppppppqqqqqrrrqrq.pppqqqqqppppppppppoooooooooll.lmoqqqqppooooopoo
(PID.TID 0000.0001)      8 nnnoonooooooonnnnnnnoooonoonoooppopqqqqqqqppopppqqqpppppppppppppppooopon.lnopppoooonnnnooo
(PID.TID 0000.0001)      7 ooooooooooopponnnooooooonnnnnonnooooooooopppppppoooooooooopppppppppoopqnnmnoooonnnonnnnnno
(PID.TID 0000.0001)      6 oooonnoonnnnooooooooooooonnnnnnnnnnnnnnnnoooopppooooooooooooooppppppppppoooooooonnnnnmnnnn
(PID.TID 0000.0001)      5 oooonnnnnnnnnnnnnnnnnoooooonnnnnnonnnnnnnnnoooooooooooonnnnnnooooooopoooonoooonnnnnnnooooo
(PID.TID 0000.0001)      4 oooonnnooonnnnnnnnnnnnnnoooooonnnooooonnnooooooooppponnnnmmmnnnnmnnoonnnnn..nnnooooooooooo
(PID.TID 0000.0001)      3 ooonnnnnnn............................nnoooooonnooooonnnnnnnoonnnnnnnnmmm..ooopooooooooooo
(PID.TID 0000.0001)      2 ..........................................pppooooonnnnnnoooppppo..nnnn.....qqqpppoooooo...
(PID.TID 0000.0001)      1 ..........................................................................................
(PID.TID 0000.0001) // =======================================================
(PID.TID 0000.0001) // END OF FIELD                                          =
(PID.TID 0000.0001) // =======================================================
(PID.TID 0000.0001) 
(PID.TID 0000.0001) Start initial hydrostatic pressure computation
(PID.TID 0000.0001) Pressure is predetermined for buoyancyRelation OCEANIC
(PID.TID 0000.0001) 
(PID.TID 0000.0001) // =======================================================
(PID.TID 0000.0001) // Begin MONITOR dynamic field statistics
(PID.TID 0000.0001) // =======================================================
(PID.TID 0000.0001) %MON ad_time_tsnumber             =                     0
(PID.TID 0000.0001) %MON ad_time_secondsf             =   0.0000000000000E+00
(PID.TID 0000.0001) %MON ad_dynstat_adeta_max         =   1.1734255337777E-03
(PID.TID 0000.0001) %MON ad_dynstat_adeta_min         =  -1.0445594339014E-03
(PID.TID 0000.0001) %MON ad_dynstat_adeta_mean        =   1.7922280110172E-07
(PID.TID 0000.0001) %MON ad_dynstat_adeta_sd          =   6.8053479658056E-05
(PID.TID 0000.0001) %MON ad_dynstat_adeta_del2        =   7.2781766405293E-06
(PID.TID 0000.0001) %MON ad_dynstat_aduvel_max        =   1.4953614517766E-02
(PID.TID 0000.0001) %MON ad_dynstat_aduvel_min        =  -3.4028764005348E-03
(PID.TID 0000.0001) %MON ad_dynstat_aduvel_mean       =   3.3953671809970E-05
(PID.TID 0000.0001) %MON ad_dynstat_aduvel_sd         =   3.5976576523363E-04
(PID.TID 0000.0001) %MON ad_dynstat_aduvel_del2       =   1.8398301445135E-05
(PID.TID 0000.0001) %MON ad_dynstat_advvel_max        =   2.9543891424746E-02
(PID.TID 0000.0001) %MON ad_dynstat_advvel_min        =  -4.7459924419803E-02
(PID.TID 0000.0001) %MON ad_dynstat_advvel_mean       =   1.0090546549345E-04
(PID.TID 0000.0001) %MON ad_dynstat_advvel_sd         =   2.0721560729975E-03
(PID.TID 0000.0001) %MON ad_dynstat_advvel_del2       =   1.3513538259394E-04
(PID.TID 0000.0001) %MON ad_dynstat_adwvel_max        =   0.0000000000000E+00
(PID.TID 0000.0001) %MON ad_dynstat_adwvel_min        =   0.0000000000000E+00
(PID.TID 0000.0001) %MON ad_dynstat_adwvel_mean       =   0.0000000000000E+00
(PID.TID 0000.0001) %MON ad_dynstat_adwvel_sd         =   0.0000000000000E+00
(PID.TID 0000.0001) %MON ad_dynstat_adwvel_del2       =   0.0000000000000E+00
(PID.TID 0000.0001) %MON ad_dynstat_adtheta_max       =   1.3884542253713E-03
(PID.TID 0000.0001) %MON ad_dynstat_adtheta_min       =  -1.6043775082550E-03
(PID.TID 0000.0001) %MON ad_dynstat_adtheta_mean      =  -1.7842495884328E-07
(PID.TID 0000.0001) %MON ad_dynstat_adtheta_sd        =   1.2158065813796E-04
(PID.TID 0000.0001) %MON ad_dynstat_adtheta_del2      =   1.0083405359713E-05
(PID.TID 0000.0001) %MON ad_dynstat_adsalt_max        =   7.8828436430198E-03
(PID.TID 0000.0001) %MON ad_dynstat_adsalt_min        =  -6.6676172045165E-03
(PID.TID 0000.0001) %MON ad_dynstat_adsalt_mean       =   1.7322866721919E-07
(PID.TID 0000.0001) %MON ad_dynstat_adsalt_sd         =   5.6439485217662E-04
(PID.TID 0000.0001) %MON ad_dynstat_adsalt_del2       =   4.5095966109300E-05
(PID.TID 0000.0001) %MON ad_dynstat_adsst_max         =   4.5331108162373E-05
(PID.TID 0000.0001) %MON ad_dynstat_adsst_min         =  -3.9754873897674E-05
(PID.TID 0000.0001) %MON ad_dynstat_adsst_mean        =  -4.8144150847282E-07
(PID.TID 0000.0001) %MON ad_dynstat_adsst_sd          =   6.0310510465784E-06
(PID.TID 0000.0001) %MON ad_dynstat_adsst_del2        =   2.2855511816338E-07
(PID.TID 0000.0001) %MON ad_dynstat_adsss_max         =   1.1420576585860E-04
(PID.TID 0000.0001) %MON ad_dynstat_adsss_min         =  -1.3384606666233E-04
(PID.TID 0000.0001) %MON ad_dynstat_adsss_mean        =   5.9027096913855E-07
(PID.TID 0000.0001) %MON ad_dynstat_adsss_sd          =   1.7514213197711E-05
(PID.TID 0000.0001) %MON ad_dynstat_adsss_del2        =   6.8735293714290E-07
(PID.TID 0000.0001) %MON ad_extforcing_adqnet_max     =   0.0000000000000E+00
(PID.TID 0000.0001) %MON ad_extforcing_adqnet_min     =   0.0000000000000E+00
(PID.TID 0000.0001) %MON ad_extforcing_adqnet_mean    =   0.0000000000000E+00
(PID.TID 0000.0001) %MON ad_extforcing_adqnet_sd      =   0.0000000000000E+00
(PID.TID 0000.0001) %MON ad_extforcing_adqnet_del2    =   0.0000000000000E+00
(PID.TID 0000.0001) %MON ad_extforcing_adempmr_max    =   1.0946710999953E-02
(PID.TID 0000.0001) %MON ad_extforcing_adempmr_min    =  -9.9605077262505E-03
(PID.TID 0000.0001) %MON ad_extforcing_adempmr_mean   =   2.6344831566246E-06
(PID.TID 0000.0001) %MON ad_extforcing_adempmr_sd     =   1.0794904824148E-03
(PID.TID 0000.0001) %MON ad_extforcing_adempmr_del2   =   1.0260693860274E-04
(PID.TID 0000.0001) %MON ad_extforcing_adfu_max       =   0.0000000000000E+00
(PID.TID 0000.0001) %MON ad_extforcing_adfu_min       =   0.0000000000000E+00
(PID.TID 0000.0001) %MON ad_extforcing_adfu_mean      =   0.0000000000000E+00
(PID.TID 0000.0001) %MON ad_extforcing_adfu_sd        =   0.0000000000000E+00
(PID.TID 0000.0001) %MON ad_extforcing_adfu_del2      =   0.0000000000000E+00
(PID.TID 0000.0001) %MON ad_extforcing_adfv_max       =   0.0000000000000E+00
(PID.TID 0000.0001) %MON ad_extforcing_adfv_min       =   0.0000000000000E+00
(PID.TID 0000.0001) %MON ad_extforcing_adfv_mean      =   0.0000000000000E+00
(PID.TID 0000.0001) %MON ad_extforcing_adfv_sd        =   0.0000000000000E+00
(PID.TID 0000.0001) %MON ad_extforcing_adfv_del2      =   0.0000000000000E+00
(PID.TID 0000.0001) %MON ad_advcfl_aduvel_max         =   1.6773454109792E-03
(PID.TID 0000.0001) %MON ad_advcfl_advvel_max         =   4.6103510745460E-03
(PID.TID 0000.0001) %MON ad_advcfl_adwvel_max         =   0.0000000000000E+00
(PID.TID 0000.0001) %MON ad_advcfl_adW_hf_max         =   0.0000000000000E+00
(PID.TID 0000.0001) // =======================================================
(PID.TID 0000.0001) // End MONITOR dynamic field statistics
(PID.TID 0000.0001) // =======================================================
(PID.TID 0000.0001)  MDS_READ_FIELD: opening file: xx_theta.0000000000.001.001.data
(PID.TID 0000.0001)  MDS_READ_FIELD: opening file: adxx_kapgm.0000000000.001.001.data
(PID.TID 0000.0001)  MDS_READ_FIELD: opening file: adxx_diffkr.0000000000.001.001.data
(PID.TID 0000.0001)  MDS_READ_FIELD: opening file: adxx_salt.0000000000.001.001.data
(PID.TID 0000.0001)  MDS_READ_FIELD: opening file: adxx_theta.0000000000.001.001.data
 ph-pack: packing ecco_cost
(PID.TID 0000.0001)  MDSREADFIELD_GL: opening file: maskCtrlC.001.001.data
(PID.TID 0000.0001)  MDSREADFIELD_GL: opening file: adxx_theta.0000000000.001.001.data
(PID.TID 0000.0001)  MDSREADFIELD_GL: opening file: maskCtrlC.001.001.data
(PID.TID 0000.0001)  MDSREADFIELD_GL: opening file: adxx_salt.0000000000.001.001.data
(PID.TID 0000.0001)  MDSREADFIELD_GL: opening file: maskCtrlC.001.001.data
(PID.TID 0000.0001)  MDSREADFIELD_GL: opening file: adxx_hflux.0000000000.001.001.data
(PID.TID 0000.0001)  MDSREADFIELD_GL: opening file: maskCtrlC.001.001.data
(PID.TID 0000.0001)  MDSREADFIELD_GL: opening file: adxx_sflux.0000000000.001.001.data
(PID.TID 0000.0001)  MDSREADFIELD_GL: opening file: maskCtrlW.001.001.data
(PID.TID 0000.0001)  MDSREADFIELD_GL: opening file: adxx_tauu.0000000000.001.001.data
(PID.TID 0000.0001)  MDSREADFIELD_GL: opening file: maskCtrlS.001.001.data
(PID.TID 0000.0001)  MDSREADFIELD_GL: opening file: adxx_tauv.0000000000.001.001.data
(PID.TID 0000.0001)  MDSREADFIELD_GL: opening file: maskCtrlC.001.001.data
(PID.TID 0000.0001)  MDSREADFIELD_GL: opening file: adxx_diffkr.0000000000.001.001.data
(PID.TID 0000.0001)  MDSREADFIELD_GL: opening file: maskCtrlC.001.001.data
(PID.TID 0000.0001)  MDSREADFIELD_GL: opening file: adxx_kapgm.0000000000.001.001.data
 ph-pack: packing ecco_ctrl
(PID.TID 0000.0001)  MDSREADFIELD_GL: opening file: maskCtrlC.001.001.data
(PID.TID 0000.0001)  MDSREADFIELD_GL: opening file: xx_theta.0000000000.001.001.data
(PID.TID 0000.0001)  MDSREADFIELD_GL: opening file: maskCtrlC.001.001.data
(PID.TID 0000.0001)  MDSREADFIELD_GL: opening file: xx_salt.0000000000.001.001.data
(PID.TID 0000.0001)  MDSREADFIELD_GL: opening file: maskCtrlC.001.001.data
(PID.TID 0000.0001)  MDSREADFIELD_GL: opening file: xx_hflux.0000000000.001.001.data
(PID.TID 0000.0001)  MDSREADFIELD_GL: opening file: maskCtrlC.001.001.data
(PID.TID 0000.0001)  MDSREADFIELD_GL: opening file: xx_sflux.0000000000.001.001.data
(PID.TID 0000.0001)  MDSREADFIELD_GL: opening file: maskCtrlW.001.001.data
(PID.TID 0000.0001)  MDSREADFIELD_GL: opening file: xx_tauu.0000000000.001.001.data
(PID.TID 0000.0001)  MDSREADFIELD_GL: opening file: maskCtrlS.001.001.data
(PID.TID 0000.0001)  MDSREADFIELD_GL: opening file: xx_tauv.0000000000.001.001.data
(PID.TID 0000.0001)  MDSREADFIELD_GL: opening file: maskCtrlC.001.001.data
(PID.TID 0000.0001)  MDSREADFIELD_GL: opening file: xx_diffkr.0000000000.001.001.data
(PID.TID 0000.0001)  MDSREADFIELD_GL: opening file: maskCtrlC.001.001.data
(PID.TID 0000.0001)  MDSREADFIELD_GL: opening file: xx_kapgm.0000000000.001.001.data
 ph-check entering grdchk_main 
 ph-check fcref =  -0.0456642956
grad-res -------------------------------
 grad-res  proc    #    i    j    k   bi   bj iobc               fc ref           fc + eps           fc - eps
 grad-res  proc    #    i    j    k   bi   bj iobc             adj grad            fd grad         1 - fd/adj
 grad-res exact position met: 
 grad-res     0 1872   76   27    1    1    1
 ph-grd -->hit<--  76 27 1 1
(PID.TID 0000.0001)  MDS_READ_FIELD: opening file: adxx_theta.0000000000.001.001.data
(PID.TID 0000.0001)  MDS_READ_FIELD: opening file: xx_theta.0000000000.001.001.data
(PID.TID 0000.0001)  MDS_READ_FIELD: opening global file: bathymetry.bin
(PID.TID 0000.0001) // =======================================================
(PID.TID 0000.0001) // Field Model R_low (ini_masks_etc) at iteration          1
(PID.TID 0000.0001) // CMIN =         -5.200000000000000E+03
(PID.TID 0000.0001) // CMAX =         -1.200000000000000E+02
(PID.TID 0000.0001) // CINT =          1.881481481481482E+02
(PID.TID 0000.0001) // SYMBOLS (CMIN->CMAX): -abcdefghijklmnopqrstuvwxyz+
(PID.TID 0000.0001) //                  0.0: .
(PID.TID 0000.0001) // RANGE I (Lo:Hi:Step):(  -2:  93:   1)
(PID.TID 0000.0001) // RANGE J (Lo:Hi:Step):(  43:  -2:  -1)
(PID.TID 0000.0001) // RANGE K (Lo:Hi:Step):(   1:   1:   1)
(PID.TID 0000.0001) // =======================================================
(PID.TID 0000.0001) K =   1
(PID.TID 0000.0001) //                I=7       I=17      I=27      I=37      I=47      I=57      I=67      I=77      I=87
(PID.TID 0000.0001) // |--J--|210123456|890123456|890123456|890123456|890123456|890123456|890123456|890123456|890123456|890123
(PID.TID 0000.0001) //     43 ................................................................................................
(PID.TID 0000.0001) //     42 .............................................zyxxmgfeeefefgimnpwwwy..+zyy.....yyyyoiiihhz+......
(PID.TID 0000.0001) //     41 ................................................................................................
(PID.TID 0000.0001) //     40 +qlloqz+.++++zzz++++++..................................................................+++qlloq
(PID.TID 0000.0001) //     39 uslloorzzzzzzzzz+...++.....................................................yxxz........+zvuslloo
(PID.TID 0000.0001) //     38 smqpporzzzzzz+++...........................................................zxxy+......zyyvsmqppo
(PID.TID 0000.0001) //     37 smmmuz..................................................................++...zy+...yttyy.+smmmuz
(PID.TID 0000.0001) //     36 yutt+.........................................mm++....................+++++++znmm.yoowssvuyutt+.
(PID.TID 0000.0001) //     35 w++++.................................+zzz..rrmmkk+...+gghn...........+++....+nmiijlsoopuww++++.
(PID.TID 0000.0001) //     34 +.....................................+vvy.ggqyxv+y.ccdffhim..................+nihhikkihhm+.....
(PID.TID 0000.0001) //     33 w+.....................................uuz---h------aaabdefin+.................zqvddflifffw+....
(PID.TID 0000.0001) //     32 m+.....................................+t----h---------acdfgnn................+++gdffkofffm+....
(PID.TID 0000.0001) //     31 m......................................-----ad--------abddegil..............qbaafccdhqqgddm.....
(PID.TID 0000.0001) //     30 i.....................................f----b--b------------abd............zfbb--fbcdosjfddi.....
(PID.TID 0000.0001) //     29 i...................................tu----e---fjg----------abdf...........eaac--abfmijaadgi.....
(PID.TID 0000.0001) //     28 z.................................+xfl-------------------bdedefi.........qbaa---aemfbbaaejz.....
(PID.TID 0000.0001) //     27 .................xx..............+wfgfpf--------eallc---bbbccefgi...+++x.qb-----akfa---ah.......
(PID.TID 0000.0001) //     26 .................xnn...........+vd---dna------a--aicfna---aabdfghku.++xssuy-----bgca---ci.......
(PID.TID 0000.0001) //     25 .................iiik...oo+...+ivd---doaa-bc--ilglf--aa---aabcghhkll...ssum+xaaacjbaabdjk.......
(PID.TID 0000.0001) //     24 ...............xnheeft.kkk+...uii.aagdm----aa-----a-------bbbcdefjljjju.zummwwbbchba--abi.......
(PID.TID 0000.0001) //     23 ...............xgheefp.iikw...uuw..fihi----fed-----eaaa--bbbbcdfflkjiiiq....zykccefa--abd.......
(PID.TID 0000.0001) //     22 quss...........bbelffslffkk...zz.wqkeeqoheccdfa-----egabaabcdddegghliiiqq......xeeehheehccquss..
(PID.TID 0000.0001) //     21 cbbeir........nbbcdjhqdddiiz.....wqfeelgghmedea-----bibbcddddddefghklnqoo........ieeflhgcccbbeir
(PID.TID 0000.0001) //     20 cbbder.......ldcccdgkccccidd......z.vkkktqqhegg----aaacddddddddefghkiiijl.........nhfa--gfcbbder
(PID.TID 0000.0001) //     19 hcdaaf.......kddosggpaaaibbccx...+z+.....r+nlec---agaaabcddccddefikfgffff...........d---cjhcdaaf
(PID.TID 0000.0001) //     18 hd---d.......kglggvliaaaibbcaaeaiv++...qqzolhecccfdgkaabcdfccdeeikgfgffdd+..........d---djhd---d
(PID.TID 0000.0001) //     17 hc---c.......l.feewlfaaaoaa----aiv.....qqnllslmlofcdbaacceffffhhligfigeddj.........hd---ckhc---c
(PID.TID 0000.0001) //     16 gba--c......tn.ddgnlfdaaqa-----lv.......vnllvllnwv--accivomfffhilhgfffeddjf........re--aeigba--c
(PID.TID 0000.0001) //     15 fb--dpz....+ll.ccdfhmdddlc----av.........otsxoomv---abccddfihgijkhgfffeejfff......+fd---ckfb--dp
(PID.TID 0000.0001) //     14 fc--mcl....weeqbaafilkfend--eagy.........hhstofft----aacdheefijkmjhhjijiffff.....zlfdaaadlfc--mc
(PID.TID 0000.0001) //     13 hcclbbg....nccobaaiddgkffqrqeaal.........eeutqfft------aaceeffhijlkjhhigfffq....+jgfodccflhcclbb
(PID.TID 0000.0001) //     12 hhgaaacw+iiicclemhdddfliigfdcaabfaaaz....ccsurqpc--------abcifffikiiihhggff.....kbbbdfffglhhgaaa
(PID.TID 0000.0001) //     11 kgcaaacbbifccennhbbdefnihgfdccaaaa----..dcccnt.ncab-------aabcdfilhggjiggff....l---abcefjlkgcaaa
(PID.TID 0000.0001) //     10 kfcaaccbdaacfrllfbbdegkmmljhfdddba----d.dcccfx.nyrebaba----abcdgilhfeegijgi..+w--aa-abcfilkfcaac
(PID.TID 0000.0001) //      9 lffcdcccaaaoqsolfdeehikihhlllgfedcccccdmdcccf.vyfaaaaaaaa--abdehmjhfeeefglv.++w-----abcdfklffcdc
(PID.TID 0000.0001) //      8 liffjklcaafddffeeccvznkfffhhhlkjifgjkkfeeddfsyvcaaaaaaccdcccdfgjligedbbceg+.++xffn--cfddefliffjk
(PID.TID 0000.0001) //      7 hmqnnbbkkf--bmbaabbgtykfddeffeeddccdfhlffeelfbaaaaaacddeghgjgjlligeddaaabedfiiiiiisvkfkecchmqnnb
(PID.TID 0000.0001) //      6 cca-------------aabcelttdddedddddccccdfkkiiffbaaaabcdgimmkmefecaaabbbaaabbdfiiiiispmmregifcca---
(PID.TID 0000.0001) //      5 --------a-------aaccehhhiddeddddddcccdfiikomodddefffmlmigedccaaaaaaaababbbdfiijsqgeccccbaa------
(PID.TID 0000.0001) //      4 --ahebaabbbbbeihffgijiiiijpywnnpokkomkiiijmmmolkommmgffeeedccaaaaaabbcccefhmz..yjgeccccbaa--aheb
(PID.TID 0000.0001) //      3 gffhhrpjiiwyy............................yxotmjjjjgfeeeeeeddeffffheddeghjkyy..yqjgeddccdbbgffhhr
(PID.TID 0000.0001) //      2 .............................................zyxxmgfeeefefgimnpwwwy..+zyy.....yyyyoiiihhz+......
(PID.TID 0000.0001) //      1 ................................................................................................
(PID.TID 0000.0001) //      0 +qlloqz+.++++zzz++++++..................................................................+++qlloq
(PID.TID 0000.0001) //     -1 uslloorzzzzzzzzz+...++.....................................................yxxz........+zvuslloo
(PID.TID 0000.0001) //     -2 ................................................................................................
(PID.TID 0000.0001) // =======================================================
(PID.TID 0000.0001) // END OF FIELD                                          =
(PID.TID 0000.0001) // =======================================================
(PID.TID 0000.0001) 
(PID.TID 0000.0001) // =======================================================
(PID.TID 0000.0001) // Field Model Ro_surf (ini_masks_etc) at iteration          1
(PID.TID 0000.0001) // CMIN =          1.000000000000000E+32
(PID.TID 0000.0001) // CMAX =         -1.000000000000000E+32
(PID.TID 0000.0001) // CINT =          0.000000000000000E+00
(PID.TID 0000.0001) // SYMBOLS (CMIN->CMAX): -abcdefghijklmnopqrstuvwxyz+
(PID.TID 0000.0001) //                  0.0: .
(PID.TID 0000.0001) // RANGE I (Lo:Hi:Step):(  -2:  93:   1)
(PID.TID 0000.0001) // RANGE J (Lo:Hi:Step):(  43:  -2:  -1)
(PID.TID 0000.0001) // RANGE K (Lo:Hi:Step):(   1:   1:   1)
(PID.TID 0000.0001) // =======================================================
(PID.TID 0000.0001) // =======================================================
(PID.TID 0000.0001) // END OF FIELD                                          =
(PID.TID 0000.0001) // =======================================================
(PID.TID 0000.0001) 
(PID.TID 0000.0001) // =======================================================
(PID.TID 0000.0001) // Field hFacC at iteration          1
(PID.TID 0000.0001) // CMIN =          1.000000000000000E+00
(PID.TID 0000.0001) // CMAX =          1.000000000000000E+00
(PID.TID 0000.0001) // CINT =          0.000000000000000E+00
(PID.TID 0000.0001) // SYMBOLS (CMIN->CMAX): -abcdefghijklmnopqrstuvwxyz+
(PID.TID 0000.0001) //                  0.0: .
(PID.TID 0000.0001) // RANGE I (Lo:Hi:Step):(  -2:  93:   1)
(PID.TID 0000.0001) // RANGE J (Lo:Hi:Step):(  43:  -2:  -1)
(PID.TID 0000.0001) // RANGE K (Lo:Hi:Step):(   1:   1:   1)
(PID.TID 0000.0001) // =======================================================
(PID.TID 0000.0001) // =======================================================
(PID.TID 0000.0001) // END OF FIELD                                          =
(PID.TID 0000.0001) // =======================================================
(PID.TID 0000.0001) 
(PID.TID 0000.0001) // =======================================================
(PID.TID 0000.0001) // Field hFacW at iteration          1
(PID.TID 0000.0001) // CMIN =          1.000000000000000E+00
(PID.TID 0000.0001) // CMAX =          1.000000000000000E+00
(PID.TID 0000.0001) // CINT =          0.000000000000000E+00
(PID.TID 0000.0001) // SYMBOLS (CMIN->CMAX): -abcdefghijklmnopqrstuvwxyz+
(PID.TID 0000.0001) //                  0.0: .
(PID.TID 0000.0001) // RANGE I (Lo:Hi:Step):(  -2:  93:   1)
(PID.TID 0000.0001) // RANGE J (Lo:Hi:Step):(  43:  -2:  -1)
(PID.TID 0000.0001) // RANGE K (Lo:Hi:Step):(   1:   1:   1)
(PID.TID 0000.0001) // =======================================================
(PID.TID 0000.0001) // =======================================================
(PID.TID 0000.0001) // END OF FIELD                                          =
(PID.TID 0000.0001) // =======================================================
(PID.TID 0000.0001) 
(PID.TID 0000.0001) // =======================================================
(PID.TID 0000.0001) // Field hFacS at iteration          1
(PID.TID 0000.0001) // CMIN =          1.000000000000000E+00
(PID.TID 0000.0001) // CMAX =          1.000000000000000E+00
(PID.TID 0000.0001) // CINT =          0.000000000000000E+00
(PID.TID 0000.0001) // SYMBOLS (CMIN->CMAX): -abcdefghijklmnopqrstuvwxyz+
(PID.TID 0000.0001) //                  0.0: .
(PID.TID 0000.0001) // RANGE I (Lo:Hi:Step):(  -2:  93:   1)
(PID.TID 0000.0001) // RANGE J (Lo:Hi:Step):(  43:  -2:  -1)
(PID.TID 0000.0001) // RANGE K (Lo:Hi:Step):(   1:   1:   1)
(PID.TID 0000.0001) // =======================================================
(PID.TID 0000.0001) // =======================================================
(PID.TID 0000.0001) // END OF FIELD                                          =
(PID.TID 0000.0001) // =======================================================
(PID.TID 0000.0001) 
(PID.TID 0000.0001) %MON ad_advcflfCori_max           =   1.4226580169407E-04
(PID.TID 0000.0001) %MON ad_advcflfCori_min           =  -1.4226580169407E-04
(PID.TID 0000.0001) %MON ad_advcflfCori_mean          =   7.5291817533716E-23
(PID.TID 0000.0001) %MON ad_advcflfCori_sd            =   9.6335367303778E-05
(PID.TID 0000.0001) %MON ad_advcflfCoriG_max          =   1.4112379284621E-04
(PID.TID 0000.0001) %MON ad_advcflfCoriG_min          =  -1.4323448157692E-04
(PID.TID 0000.0001) %MON ad_advcflfCoriG_mean         =  -3.5808620394229E-06
(PID.TID 0000.0001) %MON ad_advcflfCoriG_sd           =   9.6285194120965E-05
(PID.TID 0000.0001) %MON ad_advcflfCoriCos_max        =   1.4535550371427E-04
(PID.TID 0000.0001) %MON ad_advcflfCoriCos_min        =   3.0239529651320E-05
(PID.TID 0000.0001) %MON ad_advcflfCoriCos_mean       =   1.0260497651149E-04
(PID.TID 0000.0001) %MON ad_advcflfCoriCos_sd         =   3.6683828681187E-05
(PID.TID 0000.0001) INI_CG2D: CG2D normalisation factor =  6.5682677425711703E-05
(PID.TID 0000.0001) 
(PID.TID 0000.0001)  MDS_READ_FIELD: opening global file: lev_t.bin
(PID.TID 0000.0001) // =======================================================
(PID.TID 0000.0001) // Field Initial Temperature at iteration          1
(PID.TID 0000.0001) // CMIN =         -1.900000000000000E+00
(PID.TID 0000.0001) // CMAX =          2.973338890075684E+01
(PID.TID 0000.0001) // CINT =          1.171606996324327E+00
(PID.TID 0000.0001) // SYMBOLS (CMIN->CMAX): -abcdefghijklmnopqrstuvwxyz+
(PID.TID 0000.0001) //                  0.0: .
(PID.TID 0000.0001) // RANGE I (Lo:Hi:Step):(   1:  90:   1)
(PID.TID 0000.0001) // RANGE J (Lo:Hi:Step):(  40:   1:  -1)
(PID.TID 0000.0001) // RANGE K (Lo:Hi:Step):(   1:   1:   1)
(PID.TID 0000.0001) // =======================================================
(PID.TID 0000.0001) K =   1
(PID.TID 0000.0001)                I=10      I=20      I=30      I=40      I=50      I=60      I=70      I=80      I=90
(PID.TID 0000.0001) |--J--|123456789|123456789|123456789|123456789|123456789|123456789|123456789|123456789|123456789|
(PID.TID 0000.0001)     40 bccdd.baa----abdedd..................................................................bbbbb
(PID.TID 0000.0001)     39 ccdddddccbbbaa...ed.....................................................----........bbbbbb
(PID.TID 0000.0001)     38 fffgfedeedddc...........................................................-----......cbbbcde
(PID.TID 0000.0001)     37 ghh..................................................................bc...bbc...edeed.defg
(PID.TID 0000.0001)     36 hh.........................................ddcb....................dcccbabccdd.eefghhihhih
(PID.TID 0000.0001)     35 hh.................................aaab..dddeddd...ffggg...........ccc....ddeeeffghijjjjih
(PID.TID 0000.0001)     34 ...................................babb.deeeeeee.ffffgghh..................ccdffghijkkkj..
(PID.TID 0000.0001)     33 ....................................accdddeeeeefffffgghhiii.................bcfijkkllllkk.
(PID.TID 0000.0001)     32 ....................................bdddeffgffgghhhhhiiijjj................dccglmnmmmmlll.
(PID.TID 0000.0001)     31 ....................................fghiiiijjjjjjkkkkklllkk..............ikkjjmooooonnmm..
(PID.TID 0000.0001)     30 ...................................mmmnmmmmmmmmmmmmmnnnnnmm............moqrrrqrqqqpppooo..
(PID.TID 0000.0001)     29 .................................pqqqqqpppppppppoppoppppponm...........ssssssrrrrrqqqqpp..
(PID.TID 0000.0001)     28 ...............................prssssrrrsssrrrrrrrrrrrrrqqpoo.........uttssstssrssrrrqqq..
(PID.TID 0000.0001)     27 ..............vv..............stuttuuuuutuuuuuuuuuuttttssrrqqq...stuu.vvvuuuuutttttsss....
(PID.TID 0000.0001)     26 ..............vvv...........uuvvvvvwwwwwwwwvvvvvvvvvuuutttsssttv.uuvxxwwwwwwvvvvuuttsr....
(PID.TID 0000.0001)     25 ..............wwwx...xxx...vvvxxxxxyyxxxxxxxxxwwwwwvvvvvuuuuuvwwx...xxxxxxwwwwwwvvutsr....
(PID.TID 0000.0001)     24 ............wwwwxyy.xxyy...wxx.yyyyyyyyyyyxxxxxxxxwwwwwwwvvwwxxyywww.xxxxxxxxxxwwwvvur....
(PID.TID 0000.0001)     23 ............xxxyyyz.xyyy...xxx..yyyyzzyyyyyyyyxxxxxxxxxwwwwwxxxwwwwwx....vwxxxxwwwwwvu....
(PID.TID 0000.0001)     22 w...........xxyyyzyyyyyz...xx.yyzzzzzzzzzzzzzyyzyyyyyyxxwwxxxxwvvvwwxw......yyyyxxxxxxwxxw
(PID.TID 0000.0001)     21 xxx........xxxxyyzzzzzzz+.....zyzzzzzzz++zzzzyyyyyyyyxxwvvwwwwvvvvvvvu........yyyyyyyyyxxx
(PID.TID 0000.0001)     20 xww.......xyyyyxyyzzzzzz+......z.zzzzz+++zzzzzzyyyyyxxxxwvwxwvuuuuuuut.........yyyyxxxxwww
(PID.TID 0000.0001)     19 vvv.......yyyyxwwxyzyyzzzzz...zzz.....++++++z++z+zzzyyyyxxxxwwvvvvvvvu...........yyxxxwwww
(PID.TID 0000.0001)     18 uut.......zzyyywwxyzyyyyzzyzzzzzz...z+z++++zz+++++++zzzyyyyxxwwwvvvvvtt..........yyxxwvvwv
(PID.TID 0000.0001)     17 uus.......z.yyyyyyxyzzyyyyyyyzz.....yzzzzzzzzzzzzzzzzzzyyyyxxwwvuuvvuut.........yyyxxwttvu
(PID.TID 0000.0001)     16 utr......yy.zyyyyxxxxxxxwxxxxy.......yyyyyyyyyyyyyyyyyyyyyyyxxwvvvuuutts........xyyyxwvuuu
(PID.TID 0000.0001)     15 ttrr....xxx.xxxwxwwwwvwwvvvww.........xwxxxxxxxxxxxxxxxxxyyyxwwwvvuttssrr......wxxxxxwwvuu
(PID.TID 0000.0001)     14 ttsq....xyxwwxwvwwwvutuuuuuuu.........wwvwwwwvwvvwwwvwvvwwwwwwvvvuuutssrr.....vwwwwwwwvvvu
(PID.TID 0000.0001)     13 tttr....wwwvvvtttuuuutttssttt.........vvvuuuuuuutttttuuuuuvwwwuuuttttssrr....uvvvvvvvvvvut
(PID.TID 0000.0001)     12 sssssstttutssssrrrrrstrqqrrssqqrrq....uuttssssrrrrrrrrrrrstttssssrssrrqp.....uuuttssttssss
(PID.TID 0000.0001)     11 poprsssrqqqqqrqppooopqpoppppppppppp..sssrrr.rqpppqqqqppppqqqoppqqqqrqqpp....prsrqqqqqppppq
(PID.TID 0000.0001)     10 lllmoooonmnnmnnnnmmmmmmlmmlllmnnnnon.qqqppp.ppppppooooooooonmnnnonnooooo..nmoponnmnnnnnmll
(PID.TID 0000.0001)      9 ihhiiiihhhhhhiiihiiiiihhhiiiijjkkmnllnnnnn.mmmmnnnnmmmmnnmmlklllllklllll.mllmmllkjiijjihhi
(PID.TID 0000.0001)      8 eeeeeeeedefgggffeeffggffffggghiiiijjijklklkkkkkkkklllkkkkjjiiijkjjjjjjkj.kkjjiihggffffedde
(PID.TID 0000.0001)      7 cccccddeedddefeddddddddddefeefffffgggghiiiiiijjjihhgggghhhhhghhhhhhhiiiihiihhgfeddddddcccc
(PID.TID 0000.0001)      6 abbcccddcccccdddddccdddddddccddddddeeeeffggggghhgeddddddeeeeeeefggggghggggffeedccbbbbbbbba
(PID.TID 0000.0001)      5 bbbcccccccccccccccccccccbbccccdddddddcccddeeddeedcbbbbbbccccccdddeeeeeddddddccbbbbaaaaaaab
(PID.TID 0000.0001)      4 bbbbbbbaaabbbbbbbbbbbbaabbabbbbcbbbbbbbbbbbbbbbbbbbabbaaabbbbbbbbbbbbbbbbb..a--aaabbbaaabb
(PID.TID 0000.0001)      3 bbbbaaa-a-............................bbaaaaaaaaaaaaaaaaaaaaaaaaaaaaaaaab..aaaaaaaabbbaaaa
(PID.TID 0000.0001)      2 ..........................................baaaaaaaaaaaa-------aa..aaaa.....aaaaaaaaaaaa...
(PID.TID 0000.0001)      1 ..........................................................................................
(PID.TID 0000.0001) // =======================================================
(PID.TID 0000.0001) // END OF FIELD                                          =
(PID.TID 0000.0001) // =======================================================
(PID.TID 0000.0001) 
(PID.TID 0000.0001)  MDS_READ_FIELD: opening global file: lev_s.bin
(PID.TID 0000.0001) // =======================================================
(PID.TID 0000.0001) // Field Initial Salinity at iteration          1
(PID.TID 0000.0001) // CMIN =          2.975276947021484E+01
(PID.TID 0000.0001) // CMAX =          3.747562789916992E+01
(PID.TID 0000.0001) // CINT =          2.860317936650029E-01
(PID.TID 0000.0001) // SYMBOLS (CMIN->CMAX): -abcdefghijklmnopqrstuvwxyz+
(PID.TID 0000.0001) //                  0.0: .
(PID.TID 0000.0001) // RANGE I (Lo:Hi:Step):(   1:  90:   1)
(PID.TID 0000.0001) // RANGE J (Lo:Hi:Step):(  40:   1:  -1)
(PID.TID 0000.0001) // RANGE K (Lo:Hi:Step):(   1:   1:   1)
(PID.TID 0000.0001) // =======================================================
(PID.TID 0000.0001) K =   1
(PID.TID 0000.0001)                I=10      I=20      I=30      I=40      I=50      I=60      I=70      I=80      I=90
(PID.TID 0000.0001) |--J--|123456789|123456789|123456789|123456789|123456789|123456789|123456789|123456789|123456789|
(PID.TID 0000.0001)     40 qrrrr.oonnooopqtutt..................................................................mnnop
(PID.TID 0000.0001)     39 rssrrrrrrrqqpn...ut.....................................................mmmm........opqqqr
(PID.TID 0000.0001)     38 ssrrqqqqrrqpo...........................................................lkkll......onoqrrs
(PID.TID 0000.0001)     37 ssr..................................................................hg...lln...qppqr.rrrs
(PID.TID 0000.0001)     36 rr.........................................lkji....................feeegikmoop.pqrssssssss
(PID.TID 0000.0001)     35 rr.................................kkkk..lllllki...jijjj...........aa-....opqrrrrrrrssttss
(PID.TID 0000.0001)     34 ...................................jlll.kklllllk.ijkkkjih..................hlpqrqrrsstts..
(PID.TID 0000.0001)     33 ....................................iklkkkkkkkkkjkkjjjjjjii.................jmprrsstttttt.
(PID.TID 0000.0001)     32 ....................................iklllkllllllllkkkkkkkji................gilpstuuttuuut.
(PID.TID 0000.0001)     31 ....................................lmnonnnnoooonnmmmmllkjj..............loopqtvvvuuuuuu..
(PID.TID 0000.0001)     30 ...................................pppppppqqqqpppoooonnmlkk............ptvxwwvvwvvvvvvvu..
(PID.TID 0000.0001)     29 .................................pqqrqqqqqqrrrqqppqqqpponmll...........vxxxxxxwwwwwxwwxw..
(PID.TID 0000.0001)     28 ...............................prrrrrqqrrrrrsrrsrssssssrqonmm.........wxxxxxxxyyyyyyyyxx..
(PID.TID 0000.0001)     27 ..............xx..............prrrrrrrrrssssssstttssssssrqpoop...uwww.wwxxxyyy++zzzzyy....
(PID.TID 0000.0001)     26 ..............wxx...........ppqrrrrrrsssrrstsstttssrrrrrrrqppqqp.wwwvvwwwwwxyy+++zzyxw....
(PID.TID 0000.0001)     25 ..............wxxv...kkk...ooopqrrrrrssrrrrrrrssssqqpppppppppppoo...vvutuuvvwxyyyxxvvu....
(PID.TID 0000.0001)     24 ............uvvwwur.lmlk...nmm.pqqqqrrrrrqqqqrrqqrpppppooooonmmmnooo.uuuuuuttuvvvuvuut....
(PID.TID 0000.0001)     23 ............vvuvtqp.lmml...mln..ppppqpqppppppqpppppppppqppponnnnnoopm....xvuuuvvvvuuut....
(PID.TID 0000.0001)     22 r...........vuttsqqpnppn...mm.oppqqrrqqqqqqppppqqrrrqqqrrppppoopooomjj......uuvvvvvuttssrr
(PID.TID 0000.0001)     21 qmm........ttsssssssrsqon.....opqqqqqqqrrrrqqqssssssrrrrrrrrpqqqppomll........tvvvvuttssrr
(PID.TID 0000.0001)     20 sqq.......sttssrrsrrrrpol......p.qrqpqrrrrrrrstttttsssrrsssrqrrrrqqqpo.........wwwvvvuuutt
(PID.TID 0000.0001)     19 tsr.......ssssrrrrpppppnmmm...oqq.....qrqqsrrstttuuuttssttssrrssrrrrqq...........wwwvuvvvv
(PID.TID 0000.0001)     18 wut.......ssrrrrrqppppppppoooorrr...poqqqprrrttttuuutuuuuuutttttttutsss..........yyxwwxwxx
(PID.TID 0000.0001)     17 wwu.......s.rrrrrrqppppqqqqqqqr.....rrsrqrsssuusrtuuuvvvwwvvvuuuuutttss.........xyzyyyyxxx
(PID.TID 0000.0001)     16 vvt......ss.qrrssrqrqpqrrrrrrr.......ssrrstsstusrsuuuvwwwwxxwwvvvuttttsr........yz+zzzxwww
(PID.TID 0000.0001)     15 utss....stt.rrssstttsrrsrstsr.........ssstttssttsuuttuvvvvwxwwwwwuttsssrr......xyyyyxyyxwv
(PID.TID 0000.0001)     14 utts....sstrrssstuuuuuuuuuutt.........stttuutttttttuttttttuvvvvvvutsrqrrr.....vxxwwwwxwvwv
(PID.TID 0000.0001)     13 uuut....ttttttttuuuuuvtuuuuuu.........ttttuutttttttuutsssstttttstsqrqqppp....uwwwvuvvvutvv
(PID.TID 0000.0001)     12 ttttttttttttttttttttttssuuuuutuuut....tttttttttttsssssrrrrrrrqqqqqppppoo.....rvvuuttttttuu
(PID.TID 0000.0001)     11 rqsttttttttuuttttsssssrrstttttttsss..ttttts.tsssrrrrqqqqqppppoonnooooooo....oruttttsssrqrs
(PID.TID 0000.0001)     10 pppqrssrqqrqpqrssrrqqqqqqrrrrrrrrrrs.sssssr.rssrrqqpppppppooooonnnoooonn..moqrrrqqqqqqqqqq
(PID.TID 0000.0001)      9 oonooooooooonnnooooooooooppppppqqqqqrrrqrq.pppqqqqqppppppppppoooooooooll.lmoqqqqppooooopoo
(PID.TID 0000.0001)      8 nnnoonooooooonnnnnnnoooonoonoooppopqqqqqqqppopppqqqpppppppppppppppooopon.lnopppoooonnnnooo
(PID.TID 0000.0001)      7 ooooooooooopponnnooooooonnnnnonnooooooooopppppppoooooooooopppppppppoopqnnmnoooonnnonnnnnno
(PID.TID 0000.0001)      6 oooonnoonnnnooooooooooooonnnnnnnnnnnnnnnnoooopppooooooooooooooppppppppppoooooooonnnnnmnnnn
(PID.TID 0000.0001)      5 oooonnnnnnnnnnnnnnnnnoooooonnnnnnonnnnnnnnnoooooooooooonnnnnnooooooopoooonoooonnnnnnnooooo
(PID.TID 0000.0001)      4 oooonnnooonnnnnnnnnnnnnnoooooonnnooooonnnooooooooppponnnnmmmnnnnmnnoonnnnn..nnnooooooooooo
(PID.TID 0000.0001)      3 ooonnnnnnn............................nnoooooonnooooonnnnnnnoonnnnnnnnmmm..ooopooooooooooo
(PID.TID 0000.0001)      2 ..........................................pppooooonnnnnnoooppppo..nnnn.....qqqpppoooooo...
(PID.TID 0000.0001)      1 ..........................................................................................
(PID.TID 0000.0001) // =======================================================
(PID.TID 0000.0001) // END OF FIELD                                          =
(PID.TID 0000.0001) // =======================================================
(PID.TID 0000.0001) 
(PID.TID 0000.0001) Start initial hydrostatic pressure computation
(PID.TID 0000.0001) Pressure is predetermined for buoyancyRelation OCEANIC
(PID.TID 0000.0001) 
(PID.TID 0000.0001)  MDS_READ_FIELD: opening global file: trenberth_taux.bin
(PID.TID 0000.0001)  MDS_READ_FIELD: opening global file: trenberth_tauy.bin
(PID.TID 0000.0001)  MDS_READ_FIELD: opening global file: ncep_qnet.bin
(PID.TID 0000.0001)  MDS_READ_FIELD: opening global file: lev_sst.bin
(PID.TID 0000.0001)  MDS_READ_FIELD: opening global file: lev_sss.bin
(PID.TID 0000.0001)  MDS_READ_FIELD: opening file: xx_theta.0000000000.001.001.data
(PID.TID 0000.0001)  MDS_READ_FIELD: opening file: xx_salt.0000000000.001.001.data
(PID.TID 0000.0001)  MDS_READ_FIELD: opening file: xx_diffkr.0000000000.001.001.data
(PID.TID 0000.0001)  MDS_READ_FIELD: opening file: xx_kapgm.0000000000.001.001.data
(PID.TID 0000.0001) // =======================================================
(PID.TID 0000.0001) // Model current state
(PID.TID 0000.0001) // =======================================================
(PID.TID 0000.0001) 
S/R EXTERNAL_FIELDS_LOAD: Reading new data:   12    1         0  0.000000000000E+00
(PID.TID 0000.0001)  MDS_READ_FIELD: opening global file: trenberth_taux.bin
(PID.TID 0000.0001)  MDS_READ_FIELD: opening global file: trenberth_taux.bin
(PID.TID 0000.0001)  MDS_READ_FIELD: opening global file: trenberth_tauy.bin
(PID.TID 0000.0001)  MDS_READ_FIELD: opening global file: trenberth_tauy.bin
(PID.TID 0000.0001)  MDS_READ_FIELD: opening global file: ncep_qnet.bin
(PID.TID 0000.0001)  MDS_READ_FIELD: opening global file: ncep_qnet.bin
(PID.TID 0000.0001)  MDS_READ_FIELD: opening global file: lev_sst.bin
(PID.TID 0000.0001)  MDS_READ_FIELD: opening global file: lev_sst.bin
(PID.TID 0000.0001)  MDS_READ_FIELD: opening global file: lev_sss.bin
(PID.TID 0000.0001)  MDS_READ_FIELD: opening global file: lev_sss.bin
time,SST,SSS,fu,fv,Q,E-P,i0,i1,a,b =   0.0000E+00  5.3151E-02  3.4364E+01 -4.0500E-02 -6.3753E-02  2.6510E+02  0.0000E+00    12     1  5.0000E-01  5.0000E-01
time,fu0,fu1,fu =   0.0000E+00 -4.5368E-02 -3.5633E-02 -4.0500E-02  5.000000000000000E-01  5.000000000000000E-01
(PID.TID 0000.0001)  MDS_READ_FIELD: opening file: xx_tauu.0000000000.001.001.data
(PID.TID 0000.0001)  MDS_READ_FIELD: opening file: xx_tauv.0000000000.001.001.data
(PID.TID 0000.0001)  MDS_READ_FIELD: opening file: xx_sflux.0000000000.001.001.data
(PID.TID 0000.0001)  MDS_READ_FIELD: opening file: xx_hflux.0000000000.001.001.data
 ph-test a  1 1
 ph-test b  1
 ph-test a  1 2
 ph-test b  1
 ph-test a  1 3
 ph-test b  1
 ph-test a  1 4
 ph-test b  1
 ph-test a  1 5
 ph-test b  1
 ph-test a  1 6
 ph-test b  1
 ph-test a  1 7
 ph-test b  1
 ph-test a  1 8
 ph-test b  1
 ph-test a  1 9
 ph-test b  1
 ph-test a  1 10
 ph-test b  1
 ph-test a  1 11
 ph-test b  1
 ph-test a  1 12
 ph-test b  1
 ph-test a  1 13
 ph-test b  1
 ph-test a  1 14
 ph-test b  1
 ph-test a  1 15
 ph-test b  1
 cg2d: Sum(rhs),rhsMax =   8.81933415186609E-15  2.53674886388737E+00
time,SST,SSS,fu,fv,Q,E-P,i0,i1,a,b =   4.3200E+04  8.3327E-02  3.4375E+01 -4.0338E-02 -6.3536E-02  2.6512E+02  0.0000E+00    12     1  5.1667E-01  4.8333E-01
time,fu0,fu1,fu =   4.3200E+04 -4.5368E-02 -3.5633E-02 -4.0338E-02  5.166666666666667E-01  4.833333333333333E-01
 ph-test a  1 1
 ph-test b  1
 ph-test a  1 2
 ph-test b  1
 ph-test a  1 3
 ph-test b  1
 ph-test a  1 4
 ph-test b  1
 ph-test a  1 5
 ph-test b  1
 ph-test a  1 6
 ph-test b  1
 ph-test a  1 7
 ph-test b  1
 ph-test a  1 8
 ph-test b  1
 ph-test a  1 9
 ph-test b  1
 ph-test a  1 10
 ph-test b  1
 ph-test a  1 11
 ph-test b  1
 ph-test a  1 12
 ph-test b  1
 ph-test a  1 13
 ph-test b  1
 ph-test a  1 14
 ph-test b  1
 ph-test a  1 15
 ph-test b  1
 cg2d: Sum(rhs),rhsMax =  -1.52169943312686E-14  4.94099340918605E+00
time,SST,SSS,fu,fv,Q,E-P,i0,i1,a,b =   8.6400E+04  1.1350E-01  3.4387E+01 -4.0176E-02 -6.3320E-02  2.6514E+02  0.0000E+00    12     1  5.3333E-01  4.6667E-01
time,fu0,fu1,fu =   8.6400E+04 -4.5368E-02 -3.5633E-02 -4.0176E-02  5.333333333333333E-01  4.666666666666667E-01
 ph-test a  1 1
 ph-test b  1
 ph-test a  1 2
 ph-test b  1
 ph-test a  1 3
 ph-test b  1
 ph-test a  1 4
 ph-test b  1
 ph-test a  1 5
 ph-test b  1
 ph-test a  1 6
 ph-test b  1
 ph-test a  1 7
 ph-test b  1
 ph-test a  1 8
 ph-test b  1
 ph-test a  1 9
 ph-test b  1
 ph-test a  1 10
 ph-test b  1
 ph-test a  1 11
 ph-test b  1
 ph-test a  1 12
 ph-test b  1
 ph-test a  1 13
 ph-test b  1
 ph-test a  1 14
 ph-test b  1
 ph-test a  1 15
 ph-test b  1
 cg2d: Sum(rhs),rhsMax =   1.22575560812521E-14  6.30201510737097E+00
time,SST,SSS,fu,fv,Q,E-P,i0,i1,a,b =   1.2960E+05  1.4368E-01  3.4399E+01 -4.0014E-02 -6.3103E-02  2.6516E+02  0.0000E+00    12     1  5.5000E-01  4.5000E-01
time,fu0,fu1,fu =   1.2960E+05 -4.5368E-02 -3.5633E-02 -4.0014E-02  5.500000000000000E-01  4.500000000000000E-01
 ph-test a  1 1
 ph-test b  1
 ph-test a  1 2
 ph-test b  1
 ph-test a  1 3
 ph-test b  1
 ph-test a  1 4
 ph-test b  1
 ph-test a  1 5
 ph-test b  1
 ph-test a  1 6
 ph-test b  1
 ph-test a  1 7
 ph-test b  1
 ph-test a  1 8
 ph-test b  1
 ph-test a  1 9
 ph-test b  1
 ph-test a  1 10
 ph-test b  1
 ph-test a  1 11
 ph-test b  1
 ph-test a  1 12
 ph-test b  1
 ph-test a  1 13
 ph-test b  1
 ph-test a  1 14
 ph-test b  1
 ph-test a  1 15
 ph-test b  1
 cg2d: Sum(rhs),rhsMax =  -7.17828574359203E-15  6.81670284430948E+00
time,SST,SSS,fu,fv,Q,E-P,i0,i1,a,b =   1.7280E+05  1.7385E-01  3.4410E+01 -3.9851E-02 -6.2886E-02  2.6519E+02  0.0000E+00    12     1  5.6667E-01  4.3333E-01
time,fu0,fu1,fu =   1.7280E+05 -4.5368E-02 -3.5633E-02 -3.9851E-02  5.666666666666667E-01  4.333333333333333E-01
 ph-test a  1 1
 ph-test b  1
 ph-test a  1 2
 ph-test b  1
 ph-test a  1 3
 ph-test b  1
 ph-test a  1 4
 ph-test b  1
 ph-test a  1 5
 ph-test b  1
 ph-test a  1 6
 ph-test b  1
 ph-test a  1 7
 ph-test b  1
 ph-test a  1 8
 ph-test b  1
 ph-test a  1 9
 ph-test b  1
 ph-test a  1 10
 ph-test b  1
 ph-test a  1 11
 ph-test b  1
 ph-test a  1 12
 ph-test b  1
 ph-test a  1 13
 ph-test b  1
 ph-test a  1 14
 ph-test b  1
 ph-test a  1 15
 ph-test b  1
 cg2d: Sum(rhs),rhsMax =  -3.39971106821935E-14  6.91786915802128E+00
time,SST,SSS,fu,fv,Q,E-P,i0,i1,a,b =   2.1600E+05  2.0403E-01  3.4422E+01 -3.9689E-02 -6.2670E-02  2.6521E+02  0.0000E+00    12     1  5.8333E-01  4.1667E-01
time,fu0,fu1,fu =   2.1600E+05 -4.5368E-02 -3.5633E-02 -3.9689E-02  5.833333333333334E-01  4.166666666666666E-01
 ph-test a  1 1
 ph-test b  1
 ph-test a  1 2
 ph-test b  1
 ph-test a  1 3
 ph-test b  1
 ph-test a  1 4
 ph-test b  1
 ph-test a  1 5
 ph-test b  1
 ph-test a  1 6
 ph-test b  1
 ph-test a  1 7
 ph-test b  1
 ph-test a  1 8
 ph-test b  1
 ph-test a  1 9
 ph-test b  1
 ph-test a  1 10
 ph-test b  1
 ph-test a  1 11
 ph-test b  1
 ph-test a  1 12
 ph-test b  1
 ph-test a  1 13
 ph-test b  1
 ph-test a  1 14
 ph-test b  1
 ph-test a  1 15
 ph-test b  1
 cg2d: Sum(rhs),rhsMax =   8.98066343513193E-14  6.87448893655102E+00
time,SST,SSS,fu,fv,Q,E-P,i0,i1,a,b =   2.5920E+05  2.3421E-01  3.4434E+01 -3.9527E-02 -6.2453E-02  2.6523E+02  0.0000E+00    12     1  6.0000E-01  4.0000E-01
time,fu0,fu1,fu =   2.5920E+05 -4.5368E-02 -3.5633E-02 -3.9527E-02  6.000000000000000E-01  4.000000000000000E-01
 ph-test a  1 1
 ph-test b  1
 ph-test a  1 2
 ph-test b  1
 ph-test a  1 3
 ph-test b  1
 ph-test a  1 4
 ph-test b  1
 ph-test a  1 5
 ph-test b  1
 ph-test a  1 6
 ph-test b  1
 ph-test a  1 7
 ph-test b  1
 ph-test a  1 8
 ph-test b  1
 ph-test a  1 9
 ph-test b  1
 ph-test a  1 10
 ph-test b  1
 ph-test a  1 11
 ph-test b  1
 ph-test a  1 12
 ph-test b  1
 ph-test a  1 13
 ph-test b  1
 ph-test a  1 14
 ph-test b  1
 ph-test a  1 15
 ph-test b  1
 cg2d: Sum(rhs),rhsMax =   5.24510990196347E-14  7.24604825999479E+00
time,SST,SSS,fu,fv,Q,E-P,i0,i1,a,b =   3.0240E+05  2.6438E-01  3.4446E+01 -3.9365E-02 -6.2237E-02  2.6525E+02  0.0000E+00    12     1  6.1667E-01  3.8333E-01
time,fu0,fu1,fu =   3.0240E+05 -4.5368E-02 -3.5633E-02 -3.9365E-02  6.166666666666667E-01  3.833333333333333E-01
 ph-test a  1 1
 ph-test b  1
 ph-test a  1 2
 ph-test b  1
 ph-test a  1 3
 ph-test b  1
 ph-test a  1 4
 ph-test b  1
 ph-test a  1 5
 ph-test b  1
 ph-test a  1 6
 ph-test b  1
 ph-test a  1 7
 ph-test b  1
 ph-test a  1 8
 ph-test b  1
 ph-test a  1 9
 ph-test b  1
 ph-test a  1 10
 ph-test b  1
 ph-test a  1 11
 ph-test b  1
 ph-test a  1 12
 ph-test b  1
 ph-test a  1 13
 ph-test b  1
 ph-test a  1 14
 ph-test b  1
 ph-test a  1 15
 ph-test b  1
 cg2d: Sum(rhs),rhsMax =  -3.25499176223598E-14  7.86362075184324E+00
time,SST,SSS,fu,fv,Q,E-P,i0,i1,a,b =   3.4560E+05  2.9456E-01  3.4457E+01 -3.9202E-02 -6.2020E-02  2.6528E+02  0.0000E+00    12     1  6.3333E-01  3.6667E-01
time,fu0,fu1,fu =   3.4560E+05 -4.5368E-02 -3.5633E-02 -3.9202E-02  6.333333333333333E-01  3.666666666666667E-01
 ph-test a  1 1
 ph-test b  1
 ph-test a  1 2
 ph-test b  1
 ph-test a  1 3
 ph-test b  1
 ph-test a  1 4
 ph-test b  1
 ph-test a  1 5
 ph-test b  1
 ph-test a  1 6
 ph-test b  1
 ph-test a  1 7
 ph-test b  1
 ph-test a  1 8
 ph-test b  1
 ph-test a  1 9
 ph-test b  1
 ph-test a  1 10
 ph-test b  1
 ph-test a  1 11
 ph-test b  1
 ph-test a  1 12
 ph-test b  1
 ph-test a  1 13
 ph-test b  1
 ph-test a  1 14
 ph-test b  1
 ph-test a  1 15
 ph-test b  1
 cg2d: Sum(rhs),rhsMax =   1.85538433575272E-14  8.20455160636556E+00
time,SST,SSS,fu,fv,Q,E-P,i0,i1,a,b =   3.8880E+05  3.2473E-01  3.4469E+01 -3.9040E-02 -6.1804E-02  2.6530E+02  0.0000E+00    12     1  6.5000E-01  3.5000E-01
time,fu0,fu1,fu =   3.8880E+05 -4.5368E-02 -3.5633E-02 -3.9040E-02  6.500000000000000E-01  3.500000000000000E-01
 ph-test a  1 1
 ph-test b  1
 ph-test a  1 2
 ph-test b  1
 ph-test a  1 3
 ph-test b  1
 ph-test a  1 4
 ph-test b  1
 ph-test a  1 5
 ph-test b  1
 ph-test a  1 6
 ph-test b  1
 ph-test a  1 7
 ph-test b  1
 ph-test a  1 8
 ph-test b  1
 ph-test a  1 9
 ph-test b  1
 ph-test a  1 10
 ph-test b  1
 ph-test a  1 11
 ph-test b  1
 ph-test a  1 12
 ph-test b  1
 ph-test a  1 13
 ph-test b  1
 ph-test a  1 14
 ph-test b  1
 ph-test a  1 15
 ph-test b  1
 cg2d: Sum(rhs),rhsMax =   2.66237335996844E-13  8.29866218269600E+00
(PID.TID 0000.0001) %CHECKPOINT        10 ckptA
 --> objf_test(bi,bj)   =  0.000000000000000E+00
 --> objf_tracer(bi,bj) =  0.000000000000000E+00
 --> objf_atl(bi,bj)    = -0.456644412506841E-01
  local fc = -0.456644412506841E-01
 global fc = -0.456644412506841E-01
 ph-check fcpertplus =  -0.0456644413
(PID.TID 0000.0001)  MDS_READ_FIELD: opening file: xx_theta.0000000000.001.001.data
 ph-check fcpertminus =  -0.0456642956
(PID.TID 0000.0001)  MDS_READ_FIELD: opening file: xx_theta.0000000000.001.001.data
(PID.TID 0000.0001)  MDS_READ_FIELD: opening global file: bathymetry.bin
(PID.TID 0000.0001) // =======================================================
(PID.TID 0000.0001) // Field Model R_low (ini_masks_etc) at iteration          1
(PID.TID 0000.0001) // CMIN =         -5.200000000000000E+03
(PID.TID 0000.0001) // CMAX =         -1.200000000000000E+02
(PID.TID 0000.0001) // CINT =          1.881481481481482E+02
(PID.TID 0000.0001) // SYMBOLS (CMIN->CMAX): -abcdefghijklmnopqrstuvwxyz+
(PID.TID 0000.0001) //                  0.0: .
(PID.TID 0000.0001) // RANGE I (Lo:Hi:Step):(  -2:  93:   1)
(PID.TID 0000.0001) // RANGE J (Lo:Hi:Step):(  43:  -2:  -1)
(PID.TID 0000.0001) // RANGE K (Lo:Hi:Step):(   1:   1:   1)
(PID.TID 0000.0001) // =======================================================
(PID.TID 0000.0001) K =   1
(PID.TID 0000.0001) //                I=7       I=17      I=27      I=37      I=47      I=57      I=67      I=77      I=87
(PID.TID 0000.0001) // |--J--|210123456|890123456|890123456|890123456|890123456|890123456|890123456|890123456|890123456|890123
(PID.TID 0000.0001) //     43 ................................................................................................
(PID.TID 0000.0001) //     42 .............................................zyxxmgfeeefefgimnpwwwy..+zyy.....yyyyoiiihhz+......
(PID.TID 0000.0001) //     41 ................................................................................................
(PID.TID 0000.0001) //     40 +qlloqz+.++++zzz++++++..................................................................+++qlloq
(PID.TID 0000.0001) //     39 uslloorzzzzzzzzz+...++.....................................................yxxz........+zvuslloo
(PID.TID 0000.0001) //     38 smqpporzzzzzz+++...........................................................zxxy+......zyyvsmqppo
(PID.TID 0000.0001) //     37 smmmuz..................................................................++...zy+...yttyy.+smmmuz
(PID.TID 0000.0001) //     36 yutt+.........................................mm++....................+++++++znmm.yoowssvuyutt+.
(PID.TID 0000.0001) //     35 w++++.................................+zzz..rrmmkk+...+gghn...........+++....+nmiijlsoopuww++++.
(PID.TID 0000.0001) //     34 +.....................................+vvy.ggqyxv+y.ccdffhim..................+nihhikkihhm+.....
(PID.TID 0000.0001) //     33 w+.....................................uuz---h------aaabdefin+.................zqvddflifffw+....
(PID.TID 0000.0001) //     32 m+.....................................+t----h---------acdfgnn................+++gdffkofffm+....
(PID.TID 0000.0001) //     31 m......................................-----ad--------abddegil..............qbaafccdhqqgddm.....
(PID.TID 0000.0001) //     30 i.....................................f----b--b------------abd............zfbb--fbcdosjfddi.....
(PID.TID 0000.0001) //     29 i...................................tu----e---fjg----------abdf...........eaac--abfmijaadgi.....
(PID.TID 0000.0001) //     28 z.................................+xfl-------------------bdedefi.........qbaa---aemfbbaaejz.....
(PID.TID 0000.0001) //     27 .................xx..............+wfgfpf--------eallc---bbbccefgi...+++x.qb-----akfa---ah.......
(PID.TID 0000.0001) //     26 .................xnn...........+vd---dna------a--aicfna---aabdfghku.++xssuy-----bgca---ci.......
(PID.TID 0000.0001) //     25 .................iiik...oo+...+ivd---doaa-bc--ilglf--aa---aabcghhkll...ssum+xaaacjbaabdjk.......
(PID.TID 0000.0001) //     24 ...............xnheeft.kkk+...uii.aagdm----aa-----a-------bbbcdefjljjju.zummwwbbchba--abi.......
(PID.TID 0000.0001) //     23 ...............xgheefp.iikw...uuw..fihi----fed-----eaaa--bbbbcdfflkjiiiq....zykccefa--abd.......
(PID.TID 0000.0001) //     22 quss...........bbelffslffkk...zz.wqkeeqoheccdfa-----egabaabcdddegghliiiqq......xeeehheehccquss..
(PID.TID 0000.0001) //     21 cbbeir........nbbcdjhqdddiiz.....wqfeelgghmedea-----bibbcddddddefghklnqoo........ieeflhgcccbbeir
(PID.TID 0000.0001) //     20 cbbder.......ldcccdgkccccidd......z.vkkktqqhegg----aaacddddddddefghkiiijl.........nhfa--gfcbbder
(PID.TID 0000.0001) //     19 hcdaaf.......kddosggpaaaibbccx...+z+.....r+nlec---agaaabcddccddefikfgffff...........d---cjhcdaaf
(PID.TID 0000.0001) //     18 hd---d.......kglggvliaaaibbcaaeaiv++...qqzolhecccfdgkaabcdfccdeeikgfgffdd+..........d---djhd---d
(PID.TID 0000.0001) //     17 hc---c.......l.feewlfaaaoaa----aiv.....qqnllslmlofcdbaacceffffhhligfigeddj.........hd---ckhc---c
(PID.TID 0000.0001) //     16 gba--c......tn.ddgnlfdaaqa-----lv.......vnllvllnwv--accivomfffhilhgfffeddjf........re--aeigba--c
(PID.TID 0000.0001) //     15 fb--dpz....+ll.ccdfhmdddlc----av.........otsxoomv---abccddfihgijkhgfffeejfff......+fd---ckfb--dp
(PID.TID 0000.0001) //     14 fc--mcl....weeqbaafilkfend--eagy.........hhstofft----aacdheefijkmjhhjijiffff.....zlfdaaadlfc--mc
(PID.TID 0000.0001) //     13 hcclbbg....nccobaaiddgkffqrqeaal.........eeutqfft------aaceeffhijlkjhhigfffq....+jgfodccflhcclbb
(PID.TID 0000.0001) //     12 hhgaaacw+iiicclemhdddfliigfdcaabfaaaz....ccsurqpc--------abcifffikiiihhggff.....kbbbdfffglhhgaaa
(PID.TID 0000.0001) //     11 kgcaaacbbifccennhbbdefnihgfdccaaaa----..dcccnt.ncab-------aabcdfilhggjiggff....l---abcefjlkgcaaa
(PID.TID 0000.0001) //     10 kfcaaccbdaacfrllfbbdegkmmljhfdddba----d.dcccfx.nyrebaba----abcdgilhfeegijgi..+w--aa-abcfilkfcaac
(PID.TID 0000.0001) //      9 lffcdcccaaaoqsolfdeehikihhlllgfedcccccdmdcccf.vyfaaaaaaaa--abdehmjhfeeefglv.++w-----abcdfklffcdc
(PID.TID 0000.0001) //      8 liffjklcaafddffeeccvznkfffhhhlkjifgjkkfeeddfsyvcaaaaaaccdcccdfgjligedbbceg+.++xffn--cfddefliffjk
(PID.TID 0000.0001) //      7 hmqnnbbkkf--bmbaabbgtykfddeffeeddccdfhlffeelfbaaaaaacddeghgjgjlligeddaaabedfiiiiiisvkfkecchmqnnb
(PID.TID 0000.0001) //      6 cca-------------aabcelttdddedddddccccdfkkiiffbaaaabcdgimmkmefecaaabbbaaabbdfiiiiispmmregifcca---
(PID.TID 0000.0001) //      5 --------a-------aaccehhhiddeddddddcccdfiikomodddefffmlmigedccaaaaaaaababbbdfiijsqgeccccbaa------
(PID.TID 0000.0001) //      4 --ahebaabbbbbeihffgijiiiijpywnnpokkomkiiijmmmolkommmgffeeedccaaaaaabbcccefhmz..yjgeccccbaa--aheb
(PID.TID 0000.0001) //      3 gffhhrpjiiwyy............................yxotmjjjjgfeeeeeeddeffffheddeghjkyy..yqjgeddccdbbgffhhr
(PID.TID 0000.0001) //      2 .............................................zyxxmgfeeefefgimnpwwwy..+zyy.....yyyyoiiihhz+......
(PID.TID 0000.0001) //      1 ................................................................................................
(PID.TID 0000.0001) //      0 +qlloqz+.++++zzz++++++..................................................................+++qlloq
(PID.TID 0000.0001) //     -1 uslloorzzzzzzzzz+...++.....................................................yxxz........+zvuslloo
(PID.TID 0000.0001) //     -2 ................................................................................................
(PID.TID 0000.0001) // =======================================================
(PID.TID 0000.0001) // END OF FIELD                                          =
(PID.TID 0000.0001) // =======================================================
(PID.TID 0000.0001) 
(PID.TID 0000.0001) // =======================================================
(PID.TID 0000.0001) // Field Model Ro_surf (ini_masks_etc) at iteration          1
(PID.TID 0000.0001) // CMIN =          1.000000000000000E+32
(PID.TID 0000.0001) // CMAX =         -1.000000000000000E+32
(PID.TID 0000.0001) // CINT =          0.000000000000000E+00
(PID.TID 0000.0001) // SYMBOLS (CMIN->CMAX): -abcdefghijklmnopqrstuvwxyz+
(PID.TID 0000.0001) //                  0.0: .
(PID.TID 0000.0001) // RANGE I (Lo:Hi:Step):(  -2:  93:   1)
(PID.TID 0000.0001) // RANGE J (Lo:Hi:Step):(  43:  -2:  -1)
(PID.TID 0000.0001) // RANGE K (Lo:Hi:Step):(   1:   1:   1)
(PID.TID 0000.0001) // =======================================================
(PID.TID 0000.0001) // =======================================================
(PID.TID 0000.0001) // END OF FIELD                                          =
(PID.TID 0000.0001) // =======================================================
(PID.TID 0000.0001) 
(PID.TID 0000.0001) // =======================================================
(PID.TID 0000.0001) // Field hFacC at iteration          1
(PID.TID 0000.0001) // CMIN =          1.000000000000000E+00
(PID.TID 0000.0001) // CMAX =          1.000000000000000E+00
(PID.TID 0000.0001) // CINT =          0.000000000000000E+00
(PID.TID 0000.0001) // SYMBOLS (CMIN->CMAX): -abcdefghijklmnopqrstuvwxyz+
(PID.TID 0000.0001) //                  0.0: .
(PID.TID 0000.0001) // RANGE I (Lo:Hi:Step):(  -2:  93:   1)
(PID.TID 0000.0001) // RANGE J (Lo:Hi:Step):(  43:  -2:  -1)
(PID.TID 0000.0001) // RANGE K (Lo:Hi:Step):(   1:   1:   1)
(PID.TID 0000.0001) // =======================================================
(PID.TID 0000.0001) // =======================================================
(PID.TID 0000.0001) // END OF FIELD                                          =
(PID.TID 0000.0001) // =======================================================
(PID.TID 0000.0001) 
(PID.TID 0000.0001) // =======================================================
(PID.TID 0000.0001) // Field hFacW at iteration          1
(PID.TID 0000.0001) // CMIN =          1.000000000000000E+00
(PID.TID 0000.0001) // CMAX =          1.000000000000000E+00
(PID.TID 0000.0001) // CINT =          0.000000000000000E+00
(PID.TID 0000.0001) // SYMBOLS (CMIN->CMAX): -abcdefghijklmnopqrstuvwxyz+
(PID.TID 0000.0001) //                  0.0: .
(PID.TID 0000.0001) // RANGE I (Lo:Hi:Step):(  -2:  93:   1)
(PID.TID 0000.0001) // RANGE J (Lo:Hi:Step):(  43:  -2:  -1)
(PID.TID 0000.0001) // RANGE K (Lo:Hi:Step):(   1:   1:   1)
(PID.TID 0000.0001) // =======================================================
(PID.TID 0000.0001) // =======================================================
(PID.TID 0000.0001) // END OF FIELD                                          =
(PID.TID 0000.0001) // =======================================================
(PID.TID 0000.0001) 
(PID.TID 0000.0001) // =======================================================
(PID.TID 0000.0001) // Field hFacS at iteration          1
(PID.TID 0000.0001) // CMIN =          1.000000000000000E+00
(PID.TID 0000.0001) // CMAX =          1.000000000000000E+00
(PID.TID 0000.0001) // CINT =          0.000000000000000E+00
(PID.TID 0000.0001) // SYMBOLS (CMIN->CMAX): -abcdefghijklmnopqrstuvwxyz+
(PID.TID 0000.0001) //                  0.0: .
(PID.TID 0000.0001) // RANGE I (Lo:Hi:Step):(  -2:  93:   1)
(PID.TID 0000.0001) // RANGE J (Lo:Hi:Step):(  43:  -2:  -1)
(PID.TID 0000.0001) // RANGE K (Lo:Hi:Step):(   1:   1:   1)
(PID.TID 0000.0001) // =======================================================
(PID.TID 0000.0001) // =======================================================
(PID.TID 0000.0001) // END OF FIELD                                          =
(PID.TID 0000.0001) // =======================================================
(PID.TID 0000.0001) 
(PID.TID 0000.0001) %MON ad_advcflfCori_max           =   1.4226580169407E-04
(PID.TID 0000.0001) %MON ad_advcflfCori_min           =  -1.4226580169407E-04
(PID.TID 0000.0001) %MON ad_advcflfCori_mean          =   7.5291817533716E-23
(PID.TID 0000.0001) %MON ad_advcflfCori_sd            =   9.6335367303778E-05
(PID.TID 0000.0001) %MON ad_advcflfCoriG_max          =   1.4112379284621E-04
(PID.TID 0000.0001) %MON ad_advcflfCoriG_min          =  -1.4323448157692E-04
(PID.TID 0000.0001) %MON ad_advcflfCoriG_mean         =  -3.5808620394229E-06
(PID.TID 0000.0001) %MON ad_advcflfCoriG_sd           =   9.6285194120965E-05
(PID.TID 0000.0001) %MON ad_advcflfCoriCos_max        =   1.4535550371427E-04
(PID.TID 0000.0001) %MON ad_advcflfCoriCos_min        =   3.0239529651320E-05
(PID.TID 0000.0001) %MON ad_advcflfCoriCos_mean       =   1.0260497651149E-04
(PID.TID 0000.0001) %MON ad_advcflfCoriCos_sd         =   3.6683828681187E-05
(PID.TID 0000.0001) INI_CG2D: CG2D normalisation factor =  6.5682677425711703E-05
(PID.TID 0000.0001) 
(PID.TID 0000.0001)  MDS_READ_FIELD: opening global file: lev_t.bin
(PID.TID 0000.0001) // =======================================================
(PID.TID 0000.0001) // Field Initial Temperature at iteration          1
(PID.TID 0000.0001) // CMIN =         -1.900000000000000E+00
(PID.TID 0000.0001) // CMAX =          2.973338890075684E+01
(PID.TID 0000.0001) // CINT =          1.171606996324327E+00
(PID.TID 0000.0001) // SYMBOLS (CMIN->CMAX): -abcdefghijklmnopqrstuvwxyz+
(PID.TID 0000.0001) //                  0.0: .
(PID.TID 0000.0001) // RANGE I (Lo:Hi:Step):(   1:  90:   1)
(PID.TID 0000.0001) // RANGE J (Lo:Hi:Step):(  40:   1:  -1)
(PID.TID 0000.0001) // RANGE K (Lo:Hi:Step):(   1:   1:   1)
(PID.TID 0000.0001) // =======================================================
(PID.TID 0000.0001) K =   1
(PID.TID 0000.0001)                I=10      I=20      I=30      I=40      I=50      I=60      I=70      I=80      I=90
(PID.TID 0000.0001) |--J--|123456789|123456789|123456789|123456789|123456789|123456789|123456789|123456789|123456789|
(PID.TID 0000.0001)     40 bccdd.baa----abdedd..................................................................bbbbb
(PID.TID 0000.0001)     39 ccdddddccbbbaa...ed.....................................................----........bbbbbb
(PID.TID 0000.0001)     38 fffgfedeedddc...........................................................-----......cbbbcde
(PID.TID 0000.0001)     37 ghh..................................................................bc...bbc...edeed.defg
(PID.TID 0000.0001)     36 hh.........................................ddcb....................dcccbabccdd.eefghhihhih
(PID.TID 0000.0001)     35 hh.................................aaab..dddeddd...ffggg...........ccc....ddeeeffghijjjjih
(PID.TID 0000.0001)     34 ...................................babb.deeeeeee.ffffgghh..................ccdffghijkkkj..
(PID.TID 0000.0001)     33 ....................................accdddeeeeefffffgghhiii.................bcfijkkllllkk.
(PID.TID 0000.0001)     32 ....................................bdddeffgffgghhhhhiiijjj................dccglmnmmmmlll.
(PID.TID 0000.0001)     31 ....................................fghiiiijjjjjjkkkkklllkk..............ikkjjmooooonnmm..
(PID.TID 0000.0001)     30 ...................................mmmnmmmmmmmmmmmmmnnnnnmm............moqrrrqrqqqpppooo..
(PID.TID 0000.0001)     29 .................................pqqqqqpppppppppoppoppppponm...........ssssssrrrrrqqqqpp..
(PID.TID 0000.0001)     28 ...............................prssssrrrsssrrrrrrrrrrrrrqqpoo.........uttssstssrssrrrqqq..
(PID.TID 0000.0001)     27 ..............vv..............stuttuuuuutuuuuuuuuuuttttssrrqqq...stuu.vvvuuuuutttttsss....
(PID.TID 0000.0001)     26 ..............vvv...........uuvvvvvwwwwwwwwvvvvvvvvvuuutttsssttv.uuvxxwwwwwwvvvvuuttsr....
(PID.TID 0000.0001)     25 ..............wwwx...xxx...vvvxxxxxyyxxxxxxxxxwwwwwvvvvvuuuuuvwwx...xxxxxxwwwwwwvvutsr....
(PID.TID 0000.0001)     24 ............wwwwxyy.xxyy...wxx.yyyyyyyyyyyxxxxxxxxwwwwwwwvvwwxxyywww.xxxxxxxxxxwwwvvur....
(PID.TID 0000.0001)     23 ............xxxyyyz.xyyy...xxx..yyyyzzyyyyyyyyxxxxxxxxxwwwwwxxxwwwwwx....vwxxxxwwwwwvu....
(PID.TID 0000.0001)     22 w...........xxyyyzyyyyyz...xx.yyzzzzzzzzzzzzzyyzyyyyyyxxwwxxxxwvvvwwxw......yyyyxxxxxxwxxw
(PID.TID 0000.0001)     21 xxx........xxxxyyzzzzzzz+.....zyzzzzzzz++zzzzyyyyyyyyxxwvvwwwwvvvvvvvu........yyyyyyyyyxxx
(PID.TID 0000.0001)     20 xww.......xyyyyxyyzzzzzz+......z.zzzzz+++zzzzzzyyyyyxxxxwvwxwvuuuuuuut.........yyyyxxxxwww
(PID.TID 0000.0001)     19 vvv.......yyyyxwwxyzyyzzzzz...zzz.....++++++z++z+zzzyyyyxxxxwwvvvvvvvu...........yyxxxwwww
(PID.TID 0000.0001)     18 uut.......zzyyywwxyzyyyyzzyzzzzzz...z+z++++zz+++++++zzzyyyyxxwwwvvvvvtt..........yyxxwvvwv
(PID.TID 0000.0001)     17 uus.......z.yyyyyyxyzzyyyyyyyzz.....yzzzzzzzzzzzzzzzzzzyyyyxxwwvuuvvuut.........yyyxxwttvu
(PID.TID 0000.0001)     16 utr......yy.zyyyyxxxxxxxwxxxxy.......yyyyyyyyyyyyyyyyyyyyyyyxxwvvvuuutts........xyyyxwvuuu
(PID.TID 0000.0001)     15 ttrr....xxx.xxxwxwwwwvwwvvvww.........xwxxxxxxxxxxxxxxxxxyyyxwwwvvuttssrr......wxxxxxwwvuu
(PID.TID 0000.0001)     14 ttsq....xyxwwxwvwwwvutuuuuuuu.........wwvwwwwvwvvwwwvwvvwwwwwwvvvuuutssrr.....vwwwwwwwvvvu
(PID.TID 0000.0001)     13 tttr....wwwvvvtttuuuutttssttt.........vvvuuuuuuutttttuuuuuvwwwuuuttttssrr....uvvvvvvvvvvut
(PID.TID 0000.0001)     12 sssssstttutssssrrrrrstrqqrrssqqrrq....uuttssssrrrrrrrrrrrstttssssrssrrqp.....uuuttssttssss
(PID.TID 0000.0001)     11 poprsssrqqqqqrqppooopqpoppppppppppp..sssrrr.rqpppqqqqppppqqqoppqqqqrqqpp....prsrqqqqqppppq
(PID.TID 0000.0001)     10 lllmoooonmnnmnnnnmmmmmmlmmlllmnnnnon.qqqppp.ppppppooooooooonmnnnonnooooo..nmoponnmnnnnnmll
(PID.TID 0000.0001)      9 ihhiiiihhhhhhiiihiiiiihhhiiiijjkkmnllnnnnn.mmmmnnnnmmmmnnmmlklllllklllll.mllmmllkjiijjihhi
(PID.TID 0000.0001)      8 eeeeeeeedefgggffeeffggffffggghiiiijjijklklkkkkkkkklllkkkkjjiiijkjjjjjjkj.kkjjiihggffffedde
(PID.TID 0000.0001)      7 cccccddeedddefeddddddddddefeefffffgggghiiiiiijjjihhgggghhhhhghhhhhhhiiiihiihhgfeddddddcccc
(PID.TID 0000.0001)      6 abbcccddcccccdddddccdddddddccddddddeeeeffggggghhgeddddddeeeeeeefggggghggggffeedccbbbbbbbba
(PID.TID 0000.0001)      5 bbbcccccccccccccccccccccbbccccdddddddcccddeeddeedcbbbbbbccccccdddeeeeeddddddccbbbbaaaaaaab
(PID.TID 0000.0001)      4 bbbbbbbaaabbbbbbbbbbbbaabbabbbbcbbbbbbbbbbbbbbbbbbbabbaaabbbbbbbbbbbbbbbbb..a--aaabbbaaabb
(PID.TID 0000.0001)      3 bbbbaaa-a-............................bbaaaaaaaaaaaaaaaaaaaaaaaaaaaaaaaab..aaaaaaaabbbaaaa
(PID.TID 0000.0001)      2 ..........................................baaaaaaaaaaaa-------aa..aaaa.....aaaaaaaaaaaa...
(PID.TID 0000.0001)      1 ..........................................................................................
(PID.TID 0000.0001) // =======================================================
(PID.TID 0000.0001) // END OF FIELD                                          =
(PID.TID 0000.0001) // =======================================================
(PID.TID 0000.0001) 
(PID.TID 0000.0001)  MDS_READ_FIELD: opening global file: lev_s.bin
(PID.TID 0000.0001) // =======================================================
(PID.TID 0000.0001) // Field Initial Salinity at iteration          1
(PID.TID 0000.0001) // CMIN =          2.975276947021484E+01
(PID.TID 0000.0001) // CMAX =          3.747562789916992E+01
(PID.TID 0000.0001) // CINT =          2.860317936650029E-01
(PID.TID 0000.0001) // SYMBOLS (CMIN->CMAX): -abcdefghijklmnopqrstuvwxyz+
(PID.TID 0000.0001) //                  0.0: .
(PID.TID 0000.0001) // RANGE I (Lo:Hi:Step):(   1:  90:   1)
(PID.TID 0000.0001) // RANGE J (Lo:Hi:Step):(  40:   1:  -1)
(PID.TID 0000.0001) // RANGE K (Lo:Hi:Step):(   1:   1:   1)
(PID.TID 0000.0001) // =======================================================
(PID.TID 0000.0001) K =   1
(PID.TID 0000.0001)                I=10      I=20      I=30      I=40      I=50      I=60      I=70      I=80      I=90
(PID.TID 0000.0001) |--J--|123456789|123456789|123456789|123456789|123456789|123456789|123456789|123456789|123456789|
(PID.TID 0000.0001)     40 qrrrr.oonnooopqtutt..................................................................mnnop
(PID.TID 0000.0001)     39 rssrrrrrrrqqpn...ut.....................................................mmmm........opqqqr
(PID.TID 0000.0001)     38 ssrrqqqqrrqpo...........................................................lkkll......onoqrrs
(PID.TID 0000.0001)     37 ssr..................................................................hg...lln...qppqr.rrrs
(PID.TID 0000.0001)     36 rr.........................................lkji....................feeegikmoop.pqrssssssss
(PID.TID 0000.0001)     35 rr.................................kkkk..lllllki...jijjj...........aa-....opqrrrrrrrssttss
(PID.TID 0000.0001)     34 ...................................jlll.kklllllk.ijkkkjih..................hlpqrqrrsstts..
(PID.TID 0000.0001)     33 ....................................iklkkkkkkkkkjkkjjjjjjii.................jmprrsstttttt.
(PID.TID 0000.0001)     32 ....................................iklllkllllllllkkkkkkkji................gilpstuuttuuut.
(PID.TID 0000.0001)     31 ....................................lmnonnnnoooonnmmmmllkjj..............loopqtvvvuuuuuu..
(PID.TID 0000.0001)     30 ...................................pppppppqqqqpppoooonnmlkk............ptvxwwvvwvvvvvvvu..
(PID.TID 0000.0001)     29 .................................pqqrqqqqqqrrrqqppqqqpponmll...........vxxxxxxwwwwwxwwxw..
(PID.TID 0000.0001)     28 ...............................prrrrrqqrrrrrsrrsrssssssrqonmm.........wxxxxxxxyyyyyyyyxx..
(PID.TID 0000.0001)     27 ..............xx..............prrrrrrrrrssssssstttssssssrqpoop...uwww.wwxxxyyy++zzzzyy....
(PID.TID 0000.0001)     26 ..............wxx...........ppqrrrrrrsssrrstsstttssrrrrrrrqppqqp.wwwvvwwwwwxyy+++zzyxw....
(PID.TID 0000.0001)     25 ..............wxxv...kkk...ooopqrrrrrssrrrrrrrssssqqpppppppppppoo...vvutuuvvwxyyyxxvvu....
(PID.TID 0000.0001)     24 ............uvvwwur.lmlk...nmm.pqqqqrrrrrqqqqrrqqrpppppooooonmmmnooo.uuuuuuttuvvvuvuut....
(PID.TID 0000.0001)     23 ............vvuvtqp.lmml...mln..ppppqpqppppppqpppppppppqppponnnnnoopm....xvuuuvvvvuuut....
(PID.TID 0000.0001)     22 r...........vuttsqqpnppn...mm.oppqqrrqqqqqqppppqqrrrqqqrrppppoopooomjj......uuvvvvvuttssrr
(PID.TID 0000.0001)     21 qmm........ttsssssssrsqon.....opqqqqqqqrrrrqqqssssssrrrrrrrrpqqqppomll........tvvvvuttssrr
(PID.TID 0000.0001)     20 sqq.......sttssrrsrrrrpol......p.qrqpqrrrrrrrstttttsssrrsssrqrrrrqqqpo.........wwwvvvuuutt
(PID.TID 0000.0001)     19 tsr.......ssssrrrrpppppnmmm...oqq.....qrqqsrrstttuuuttssttssrrssrrrrqq...........wwwvuvvvv
(PID.TID 0000.0001)     18 wut.......ssrrrrrqppppppppoooorrr...poqqqprrrttttuuutuuuuuutttttttutsss..........yyxwwxwxx
(PID.TID 0000.0001)     17 wwu.......s.rrrrrrqppppqqqqqqqr.....rrsrqrsssuusrtuuuvvvwwvvvuuuuutttss.........xyzyyyyxxx
(PID.TID 0000.0001)     16 vvt......ss.qrrssrqrqpqrrrrrrr.......ssrrstsstusrsuuuvwwwwxxwwvvvuttttsr........yz+zzzxwww
(PID.TID 0000.0001)     15 utss....stt.rrssstttsrrsrstsr.........ssstttssttsuuttuvvvvwxwwwwwuttsssrr......xyyyyxyyxwv
(PID.TID 0000.0001)     14 utts....sstrrssstuuuuuuuuuutt.........stttuutttttttuttttttuvvvvvvutsrqrrr.....vxxwwwwxwvwv
(PID.TID 0000.0001)     13 uuut....ttttttttuuuuuvtuuuuuu.........ttttuutttttttuutsssstttttstsqrqqppp....uwwwvuvvvutvv
(PID.TID 0000.0001)     12 ttttttttttttttttttttttssuuuuutuuut....tttttttttttsssssrrrrrrrqqqqqppppoo.....rvvuuttttttuu
(PID.TID 0000.0001)     11 rqsttttttttuuttttsssssrrstttttttsss..ttttts.tsssrrrrqqqqqppppoonnooooooo....oruttttsssrqrs
(PID.TID 0000.0001)     10 pppqrssrqqrqpqrssrrqqqqqqrrrrrrrrrrs.sssssr.rssrrqqpppppppooooonnnoooonn..moqrrrqqqqqqqqqq
(PID.TID 0000.0001)      9 oonooooooooonnnooooooooooppppppqqqqqrrrqrq.pppqqqqqppppppppppoooooooooll.lmoqqqqppooooopoo
(PID.TID 0000.0001)      8 nnnoonooooooonnnnnnnoooonoonoooppopqqqqqqqppopppqqqpppppppppppppppooopon.lnopppoooonnnnooo
(PID.TID 0000.0001)      7 ooooooooooopponnnooooooonnnnnonnooooooooopppppppoooooooooopppppppppoopqnnmnoooonnnonnnnnno
(PID.TID 0000.0001)      6 oooonnoonnnnooooooooooooonnnnnnnnnnnnnnnnoooopppooooooooooooooppppppppppoooooooonnnnnmnnnn
(PID.TID 0000.0001)      5 oooonnnnnnnnnnnnnnnnnoooooonnnnnnonnnnnnnnnoooooooooooonnnnnnooooooopoooonoooonnnnnnnooooo
(PID.TID 0000.0001)      4 oooonnnooonnnnnnnnnnnnnnoooooonnnooooonnnooooooooppponnnnmmmnnnnmnnoonnnnn..nnnooooooooooo
(PID.TID 0000.0001)      3 ooonnnnnnn............................nnoooooonnooooonnnnnnnoonnnnnnnnmmm..ooopooooooooooo
(PID.TID 0000.0001)      2 ..........................................pppooooonnnnnnoooppppo..nnnn.....qqqpppoooooo...
(PID.TID 0000.0001)      1 ..........................................................................................
(PID.TID 0000.0001) // =======================================================
(PID.TID 0000.0001) // END OF FIELD                                          =
(PID.TID 0000.0001) // =======================================================
(PID.TID 0000.0001) 
(PID.TID 0000.0001) Start initial hydrostatic pressure computation
(PID.TID 0000.0001) Pressure is predetermined for buoyancyRelation OCEANIC
(PID.TID 0000.0001) 
(PID.TID 0000.0001)  MDS_READ_FIELD: opening global file: trenberth_taux.bin
(PID.TID 0000.0001)  MDS_READ_FIELD: opening global file: trenberth_tauy.bin
(PID.TID 0000.0001)  MDS_READ_FIELD: opening global file: ncep_qnet.bin
(PID.TID 0000.0001)  MDS_READ_FIELD: opening global file: lev_sst.bin
(PID.TID 0000.0001)  MDS_READ_FIELD: opening global file: lev_sss.bin
(PID.TID 0000.0001)  MDS_READ_FIELD: opening file: xx_theta.0000000000.001.001.data
(PID.TID 0000.0001)  MDS_READ_FIELD: opening file: xx_salt.0000000000.001.001.data
(PID.TID 0000.0001)  MDS_READ_FIELD: opening file: xx_diffkr.0000000000.001.001.data
(PID.TID 0000.0001)  MDS_READ_FIELD: opening file: xx_kapgm.0000000000.001.001.data
(PID.TID 0000.0001) // =======================================================
(PID.TID 0000.0001) // Model current state
(PID.TID 0000.0001) // =======================================================
(PID.TID 0000.0001) 
S/R EXTERNAL_FIELDS_LOAD: Reading new data:   12    1         0  0.000000000000E+00
(PID.TID 0000.0001)  MDS_READ_FIELD: opening global file: trenberth_taux.bin
(PID.TID 0000.0001)  MDS_READ_FIELD: opening global file: trenberth_taux.bin
(PID.TID 0000.0001)  MDS_READ_FIELD: opening global file: trenberth_tauy.bin
(PID.TID 0000.0001)  MDS_READ_FIELD: opening global file: trenberth_tauy.bin
(PID.TID 0000.0001)  MDS_READ_FIELD: opening global file: ncep_qnet.bin
(PID.TID 0000.0001)  MDS_READ_FIELD: opening global file: ncep_qnet.bin
(PID.TID 0000.0001)  MDS_READ_FIELD: opening global file: lev_sst.bin
(PID.TID 0000.0001)  MDS_READ_FIELD: opening global file: lev_sst.bin
(PID.TID 0000.0001)  MDS_READ_FIELD: opening global file: lev_sss.bin
(PID.TID 0000.0001)  MDS_READ_FIELD: opening global file: lev_sss.bin
time,SST,SSS,fu,fv,Q,E-P,i0,i1,a,b =   0.0000E+00  5.3151E-02  3.4364E+01 -4.0500E-02 -6.3753E-02  2.6510E+02  0.0000E+00    12     1  5.0000E-01  5.0000E-01
time,fu0,fu1,fu =   0.0000E+00 -4.5368E-02 -3.5633E-02 -4.0500E-02  5.000000000000000E-01  5.000000000000000E-01
(PID.TID 0000.0001)  MDS_READ_FIELD: opening file: xx_tauu.0000000000.001.001.data
(PID.TID 0000.0001)  MDS_READ_FIELD: opening file: xx_tauv.0000000000.001.001.data
(PID.TID 0000.0001)  MDS_READ_FIELD: opening file: xx_sflux.0000000000.001.001.data
(PID.TID 0000.0001)  MDS_READ_FIELD: opening file: xx_hflux.0000000000.001.001.data
 ph-test a  1 1
 ph-test b  1
 ph-test a  1 2
 ph-test b  1
 ph-test a  1 3
 ph-test b  1
 ph-test a  1 4
 ph-test b  1
 ph-test a  1 5
 ph-test b  1
 ph-test a  1 6
 ph-test b  1
 ph-test a  1 7
 ph-test b  1
 ph-test a  1 8
 ph-test b  1
 ph-test a  1 9
 ph-test b  1
 ph-test a  1 10
 ph-test b  1
 ph-test a  1 11
 ph-test b  1
 ph-test a  1 12
 ph-test b  1
 ph-test a  1 13
 ph-test b  1
 ph-test a  1 14
 ph-test b  1
 ph-test a  1 15
 ph-test b  1
 cg2d: Sum(rhs),rhsMax =   1.05956909912663E-14  2.53674886388737E+00
time,SST,SSS,fu,fv,Q,E-P,i0,i1,a,b =   4.3200E+04  8.3327E-02  3.4375E+01 -4.0338E-02 -6.3536E-02  2.6512E+02  0.0000E+00    12     1  5.1667E-01  4.8333E-01
time,fu0,fu1,fu =   4.3200E+04 -4.5368E-02 -3.5633E-02 -4.0338E-02  5.166666666666667E-01  4.833333333333333E-01
 ph-test a  1 1
 ph-test b  1
 ph-test a  1 2
 ph-test b  1
 ph-test a  1 3
 ph-test b  1
 ph-test a  1 4
 ph-test b  1
 ph-test a  1 5
 ph-test b  1
 ph-test a  1 6
 ph-test b  1
 ph-test a  1 7
 ph-test b  1
 ph-test a  1 8
 ph-test b  1
 ph-test a  1 9
 ph-test b  1
 ph-test a  1 10
 ph-test b  1
 ph-test a  1 11
 ph-test b  1
 ph-test a  1 12
 ph-test b  1
 ph-test a  1 13
 ph-test b  1
 ph-test a  1 14
 ph-test b  1
 ph-test a  1 15
 ph-test b  1
 cg2d: Sum(rhs),rhsMax =  -2.24611995669477E-14  4.94099340918605E+00
time,SST,SSS,fu,fv,Q,E-P,i0,i1,a,b =   8.6400E+04  1.1350E-01  3.4387E+01 -4.0176E-02 -6.3320E-02  2.6514E+02  0.0000E+00    12     1  5.3333E-01  4.6667E-01
time,fu0,fu1,fu =   8.6400E+04 -4.5368E-02 -3.5633E-02 -4.0176E-02  5.333333333333333E-01  4.666666666666667E-01
 ph-test a  1 1
 ph-test b  1
 ph-test a  1 2
 ph-test b  1
 ph-test a  1 3
 ph-test b  1
 ph-test a  1 4
 ph-test b  1
 ph-test a  1 5
 ph-test b  1
 ph-test a  1 6
 ph-test b  1
 ph-test a  1 7
 ph-test b  1
 ph-test a  1 8
 ph-test b  1
 ph-test a  1 9
 ph-test b  1
 ph-test a  1 10
 ph-test b  1
 ph-test a  1 11
 ph-test b  1
 ph-test a  1 12
 ph-test b  1
 ph-test a  1 13
 ph-test b  1
 ph-test a  1 14
 ph-test b  1
 ph-test a  1 15
 ph-test b  1
 cg2d: Sum(rhs),rhsMax =   7.64319163515381E-15  6.30201510737097E+00
time,SST,SSS,fu,fv,Q,E-P,i0,i1,a,b =   1.2960E+05  1.4368E-01  3.4399E+01 -4.0014E-02 -6.3103E-02  2.6516E+02  0.0000E+00    12     1  5.5000E-01  4.5000E-01
time,fu0,fu1,fu =   1.2960E+05 -4.5368E-02 -3.5633E-02 -4.0014E-02  5.500000000000000E-01  4.500000000000000E-01
 ph-test a  1 1
 ph-test b  1
 ph-test a  1 2
 ph-test b  1
 ph-test a  1 3
 ph-test b  1
 ph-test a  1 4
 ph-test b  1
 ph-test a  1 5
 ph-test b  1
 ph-test a  1 6
 ph-test b  1
 ph-test a  1 7
 ph-test b  1
 ph-test a  1 8
 ph-test b  1
 ph-test a  1 9
 ph-test b  1
 ph-test a  1 10
 ph-test b  1
 ph-test a  1 11
 ph-test b  1
 ph-test a  1 12
 ph-test b  1
 ph-test a  1 13
 ph-test b  1
 ph-test a  1 14
 ph-test b  1
 ph-test a  1 15
 ph-test b  1
 cg2d: Sum(rhs),rhsMax =  -8.45851166886291E-15  6.81670284430948E+00
time,SST,SSS,fu,fv,Q,E-P,i0,i1,a,b =   1.7280E+05  1.7385E-01  3.4410E+01 -3.9851E-02 -6.2886E-02  2.6519E+02  0.0000E+00    12     1  5.6667E-01  4.3333E-01
time,fu0,fu1,fu =   1.7280E+05 -4.5368E-02 -3.5633E-02 -3.9851E-02  5.666666666666667E-01  4.333333333333333E-01
 ph-test a  1 1
 ph-test b  1
 ph-test a  1 2
 ph-test b  1
 ph-test a  1 3
 ph-test b  1
 ph-test a  1 4
 ph-test b  1
 ph-test a  1 5
 ph-test b  1
 ph-test a  1 6
 ph-test b  1
 ph-test a  1 7
 ph-test b  1
 ph-test a  1 8
 ph-test b  1
 ph-test a  1 9
 ph-test b  1
 ph-test a  1 10
 ph-test b  1
 ph-test a  1 11
 ph-test b  1
 ph-test a  1 12
 ph-test b  1
 ph-test a  1 13
 ph-test b  1
 ph-test a  1 14
 ph-test b  1
 ph-test a  1 15
 ph-test b  1
 cg2d: Sum(rhs),rhsMax =  -3.35668992601512E-14  6.91786915802128E+00
time,SST,SSS,fu,fv,Q,E-P,i0,i1,a,b =   2.1600E+05  2.0403E-01  3.4422E+01 -3.9689E-02 -6.2670E-02  2.6521E+02  0.0000E+00    12     1  5.8333E-01  4.1667E-01
time,fu0,fu1,fu =   2.1600E+05 -4.5368E-02 -3.5633E-02 -3.9689E-02  5.833333333333334E-01  4.166666666666666E-01
 ph-test a  1 1
 ph-test b  1
 ph-test a  1 2
 ph-test b  1
 ph-test a  1 3
 ph-test b  1
 ph-test a  1 4
 ph-test b  1
 ph-test a  1 5
 ph-test b  1
 ph-test a  1 6
 ph-test b  1
 ph-test a  1 7
 ph-test b  1
 ph-test a  1 8
 ph-test b  1
 ph-test a  1 9
 ph-test b  1
 ph-test a  1 10
 ph-test b  1
 ph-test a  1 11
 ph-test b  1
 ph-test a  1 12
 ph-test b  1
 ph-test a  1 13
 ph-test b  1
 ph-test a  1 14
 ph-test b  1
 ph-test a  1 15
 ph-test b  1
 cg2d: Sum(rhs),rhsMax =   6.61328630746638E-14  6.87448893655102E+00
time,SST,SSS,fu,fv,Q,E-P,i0,i1,a,b =   2.5920E+05  2.3421E-01  3.4434E+01 -3.9527E-02 -6.2453E-02  2.6523E+02  0.0000E+00    12     1  6.0000E-01  4.0000E-01
time,fu0,fu1,fu =   2.5920E+05 -4.5368E-02 -3.5633E-02 -3.9527E-02  6.000000000000000E-01  4.000000000000000E-01
 ph-test a  1 1
 ph-test b  1
 ph-test a  1 2
 ph-test b  1
 ph-test a  1 3
 ph-test b  1
 ph-test a  1 4
 ph-test b  1
 ph-test a  1 5
 ph-test b  1
 ph-test a  1 6
 ph-test b  1
 ph-test a  1 7
 ph-test b  1
 ph-test a  1 8
 ph-test b  1
 ph-test a  1 9
 ph-test b  1
 ph-test a  1 10
 ph-test b  1
 ph-test a  1 11
 ph-test b  1
 ph-test a  1 12
 ph-test b  1
 ph-test a  1 13
 ph-test b  1
 ph-test a  1 14
 ph-test b  1
 ph-test a  1 15
 ph-test b  1
 cg2d: Sum(rhs),rhsMax =   9.17937600930507E-14  7.24604825999479E+00
time,SST,SSS,fu,fv,Q,E-P,i0,i1,a,b =   3.0240E+05  2.6438E-01  3.4446E+01 -3.9365E-02 -6.2237E-02  2.6525E+02  0.0000E+00    12     1  6.1667E-01  3.8333E-01
time,fu0,fu1,fu =   3.0240E+05 -4.5368E-02 -3.5633E-02 -3.9365E-02  6.166666666666667E-01  3.833333333333333E-01
 ph-test a  1 1
 ph-test b  1
 ph-test a  1 2
 ph-test b  1
 ph-test a  1 3
 ph-test b  1
 ph-test a  1 4
 ph-test b  1
 ph-test a  1 5
 ph-test b  1
 ph-test a  1 6
 ph-test b  1
 ph-test a  1 7
 ph-test b  1
 ph-test a  1 8
 ph-test b  1
 ph-test a  1 9
 ph-test b  1
 ph-test a  1 10
 ph-test b  1
 ph-test a  1 11
 ph-test b  1
 ph-test a  1 12
 ph-test b  1
 ph-test a  1 13
 ph-test b  1
 ph-test a  1 14
 ph-test b  1
 ph-test a  1 15
 ph-test b  1
 cg2d: Sum(rhs),rhsMax =  -9.04367726539679E-14  7.86362075184325E+00
time,SST,SSS,fu,fv,Q,E-P,i0,i1,a,b =   3.4560E+05  2.9456E-01  3.4457E+01 -3.9202E-02 -6.2020E-02  2.6528E+02  0.0000E+00    12     1  6.3333E-01  3.6667E-01
time,fu0,fu1,fu =   3.4560E+05 -4.5368E-02 -3.5633E-02 -3.9202E-02  6.333333333333333E-01  3.666666666666667E-01
 ph-test a  1 1
 ph-test b  1
 ph-test a  1 2
 ph-test b  1
 ph-test a  1 3
 ph-test b  1
 ph-test a  1 4
 ph-test b  1
 ph-test a  1 5
 ph-test b  1
 ph-test a  1 6
 ph-test b  1
 ph-test a  1 7
 ph-test b  1
 ph-test a  1 8
 ph-test b  1
 ph-test a  1 9
 ph-test b  1
 ph-test a  1 10
 ph-test b  1
 ph-test a  1 11
 ph-test b  1
 ph-test a  1 12
 ph-test b  1
 ph-test a  1 13
 ph-test b  1
 ph-test a  1 14
 ph-test b  1
 ph-test a  1 15
 ph-test b  1
 cg2d: Sum(rhs),rhsMax =   1.60242912689013E-13  8.20455160636556E+00
time,SST,SSS,fu,fv,Q,E-P,i0,i1,a,b =   3.8880E+05  3.2473E-01  3.4469E+01 -3.9040E-02 -6.1804E-02  2.6530E+02  0.0000E+00    12     1  6.5000E-01  3.5000E-01
time,fu0,fu1,fu =   3.8880E+05 -4.5368E-02 -3.5633E-02 -3.9040E-02  6.500000000000000E-01  3.500000000000000E-01
 ph-test a  1 1
 ph-test b  1
 ph-test a  1 2
 ph-test b  1
 ph-test a  1 3
 ph-test b  1
 ph-test a  1 4
 ph-test b  1
 ph-test a  1 5
 ph-test b  1
 ph-test a  1 6
 ph-test b  1
 ph-test a  1 7
 ph-test b  1
 ph-test a  1 8
 ph-test b  1
 ph-test a  1 9
 ph-test b  1
 ph-test a  1 10
 ph-test b  1
 ph-test a  1 11
 ph-test b  1
 ph-test a  1 12
 ph-test b  1
 ph-test a  1 13
 ph-test b  1
 ph-test a  1 14
 ph-test b  1
 ph-test a  1 15
 ph-test b  1
 cg2d: Sum(rhs),rhsMax =   7.03337128121762E-14  8.29866218269599E+00
(PID.TID 0000.0001) %CHECKPOINT        10 ckptB
 --> objf_test(bi,bj)   =  0.000000000000000E+00
 --> objf_tracer(bi,bj) =  0.000000000000000E+00
 --> objf_atl(bi,bj)    = -0.456641498987491E-01
  local fc = -0.456641498987491E-01
 global fc = -0.456641498987491E-01
(PID.TID 0000.0001)  MDS_READ_FIELD: opening file: xx_theta.0000000000.001.001.data
grad-res -------------------------------
 grad-res     0    1   76   27    1    1    1    1   -.456642955874E-01 -.456644412507E-01 -.456641498987E-01
 grad-res     0    1    1 1872 2315    1    1    1   -.145655201129E-04 -.145675967504E-04 -.142572149741E-03
(PID.TID 0000.0001)   ADM  precision_derivative_cost =   -4.56642955874078E-02
(PID.TID 0000.0001)   ADM  precision_derivative_grad =   -1.45655201129054E-05
 ph-grd  ierr ---------------------------
 ph-grd  ierr =  0, icomp =  1872, ichknum =  1
 ph-grd -->hit<--  77 27 1 1
(PID.TID 0000.0001)  MDS_READ_FIELD: opening file: adxx_theta.0000000000.001.001.data
(PID.TID 0000.0001)  MDS_READ_FIELD: opening file: xx_theta.0000000000.001.001.data
(PID.TID 0000.0001)  MDS_READ_FIELD: opening global file: bathymetry.bin
(PID.TID 0000.0001) // =======================================================
(PID.TID 0000.0001) // Field Model R_low (ini_masks_etc) at iteration          1
(PID.TID 0000.0001) // CMIN =         -5.200000000000000E+03
(PID.TID 0000.0001) // CMAX =         -1.200000000000000E+02
(PID.TID 0000.0001) // CINT =          1.881481481481482E+02
(PID.TID 0000.0001) // SYMBOLS (CMIN->CMAX): -abcdefghijklmnopqrstuvwxyz+
(PID.TID 0000.0001) //                  0.0: .
(PID.TID 0000.0001) // RANGE I (Lo:Hi:Step):(  -2:  93:   1)
(PID.TID 0000.0001) // RANGE J (Lo:Hi:Step):(  43:  -2:  -1)
(PID.TID 0000.0001) // RANGE K (Lo:Hi:Step):(   1:   1:   1)
(PID.TID 0000.0001) // =======================================================
(PID.TID 0000.0001) K =   1
(PID.TID 0000.0001) //                I=7       I=17      I=27      I=37      I=47      I=57      I=67      I=77      I=87
(PID.TID 0000.0001) // |--J--|210123456|890123456|890123456|890123456|890123456|890123456|890123456|890123456|890123456|890123
(PID.TID 0000.0001) //     43 ................................................................................................
(PID.TID 0000.0001) //     42 .............................................zyxxmgfeeefefgimnpwwwy..+zyy.....yyyyoiiihhz+......
(PID.TID 0000.0001) //     41 ................................................................................................
(PID.TID 0000.0001) //     40 +qlloqz+.++++zzz++++++..................................................................+++qlloq
(PID.TID 0000.0001) //     39 uslloorzzzzzzzzz+...++.....................................................yxxz........+zvuslloo
(PID.TID 0000.0001) //     38 smqpporzzzzzz+++...........................................................zxxy+......zyyvsmqppo
(PID.TID 0000.0001) //     37 smmmuz..................................................................++...zy+...yttyy.+smmmuz
(PID.TID 0000.0001) //     36 yutt+.........................................mm++....................+++++++znmm.yoowssvuyutt+.
(PID.TID 0000.0001) //     35 w++++.................................+zzz..rrmmkk+...+gghn...........+++....+nmiijlsoopuww++++.
(PID.TID 0000.0001) //     34 +.....................................+vvy.ggqyxv+y.ccdffhim..................+nihhikkihhm+.....
(PID.TID 0000.0001) //     33 w+.....................................uuz---h------aaabdefin+.................zqvddflifffw+....
(PID.TID 0000.0001) //     32 m+.....................................+t----h---------acdfgnn................+++gdffkofffm+....
(PID.TID 0000.0001) //     31 m......................................-----ad--------abddegil..............qbaafccdhqqgddm.....
(PID.TID 0000.0001) //     30 i.....................................f----b--b------------abd............zfbb--fbcdosjfddi.....
(PID.TID 0000.0001) //     29 i...................................tu----e---fjg----------abdf...........eaac--abfmijaadgi.....
(PID.TID 0000.0001) //     28 z.................................+xfl-------------------bdedefi.........qbaa---aemfbbaaejz.....
(PID.TID 0000.0001) //     27 .................xx..............+wfgfpf--------eallc---bbbccefgi...+++x.qb-----akfa---ah.......
(PID.TID 0000.0001) //     26 .................xnn...........+vd---dna------a--aicfna---aabdfghku.++xssuy-----bgca---ci.......
(PID.TID 0000.0001) //     25 .................iiik...oo+...+ivd---doaa-bc--ilglf--aa---aabcghhkll...ssum+xaaacjbaabdjk.......
(PID.TID 0000.0001) //     24 ...............xnheeft.kkk+...uii.aagdm----aa-----a-------bbbcdefjljjju.zummwwbbchba--abi.......
(PID.TID 0000.0001) //     23 ...............xgheefp.iikw...uuw..fihi----fed-----eaaa--bbbbcdfflkjiiiq....zykccefa--abd.......
(PID.TID 0000.0001) //     22 quss...........bbelffslffkk...zz.wqkeeqoheccdfa-----egabaabcdddegghliiiqq......xeeehheehccquss..
(PID.TID 0000.0001) //     21 cbbeir........nbbcdjhqdddiiz.....wqfeelgghmedea-----bibbcddddddefghklnqoo........ieeflhgcccbbeir
(PID.TID 0000.0001) //     20 cbbder.......ldcccdgkccccidd......z.vkkktqqhegg----aaacddddddddefghkiiijl.........nhfa--gfcbbder
(PID.TID 0000.0001) //     19 hcdaaf.......kddosggpaaaibbccx...+z+.....r+nlec---agaaabcddccddefikfgffff...........d---cjhcdaaf
(PID.TID 0000.0001) //     18 hd---d.......kglggvliaaaibbcaaeaiv++...qqzolhecccfdgkaabcdfccdeeikgfgffdd+..........d---djhd---d
(PID.TID 0000.0001) //     17 hc---c.......l.feewlfaaaoaa----aiv.....qqnllslmlofcdbaacceffffhhligfigeddj.........hd---ckhc---c
(PID.TID 0000.0001) //     16 gba--c......tn.ddgnlfdaaqa-----lv.......vnllvllnwv--accivomfffhilhgfffeddjf........re--aeigba--c
(PID.TID 0000.0001) //     15 fb--dpz....+ll.ccdfhmdddlc----av.........otsxoomv---abccddfihgijkhgfffeejfff......+fd---ckfb--dp
(PID.TID 0000.0001) //     14 fc--mcl....weeqbaafilkfend--eagy.........hhstofft----aacdheefijkmjhhjijiffff.....zlfdaaadlfc--mc
(PID.TID 0000.0001) //     13 hcclbbg....nccobaaiddgkffqrqeaal.........eeutqfft------aaceeffhijlkjhhigfffq....+jgfodccflhcclbb
(PID.TID 0000.0001) //     12 hhgaaacw+iiicclemhdddfliigfdcaabfaaaz....ccsurqpc--------abcifffikiiihhggff.....kbbbdfffglhhgaaa
(PID.TID 0000.0001) //     11 kgcaaacbbifccennhbbdefnihgfdccaaaa----..dcccnt.ncab-------aabcdfilhggjiggff....l---abcefjlkgcaaa
(PID.TID 0000.0001) //     10 kfcaaccbdaacfrllfbbdegkmmljhfdddba----d.dcccfx.nyrebaba----abcdgilhfeegijgi..+w--aa-abcfilkfcaac
(PID.TID 0000.0001) //      9 lffcdcccaaaoqsolfdeehikihhlllgfedcccccdmdcccf.vyfaaaaaaaa--abdehmjhfeeefglv.++w-----abcdfklffcdc
(PID.TID 0000.0001) //      8 liffjklcaafddffeeccvznkfffhhhlkjifgjkkfeeddfsyvcaaaaaaccdcccdfgjligedbbceg+.++xffn--cfddefliffjk
(PID.TID 0000.0001) //      7 hmqnnbbkkf--bmbaabbgtykfddeffeeddccdfhlffeelfbaaaaaacddeghgjgjlligeddaaabedfiiiiiisvkfkecchmqnnb
(PID.TID 0000.0001) //      6 cca-------------aabcelttdddedddddccccdfkkiiffbaaaabcdgimmkmefecaaabbbaaabbdfiiiiispmmregifcca---
(PID.TID 0000.0001) //      5 --------a-------aaccehhhiddeddddddcccdfiikomodddefffmlmigedccaaaaaaaababbbdfiijsqgeccccbaa------
(PID.TID 0000.0001) //      4 --ahebaabbbbbeihffgijiiiijpywnnpokkomkiiijmmmolkommmgffeeedccaaaaaabbcccefhmz..yjgeccccbaa--aheb
(PID.TID 0000.0001) //      3 gffhhrpjiiwyy............................yxotmjjjjgfeeeeeeddeffffheddeghjkyy..yqjgeddccdbbgffhhr
(PID.TID 0000.0001) //      2 .............................................zyxxmgfeeefefgimnpwwwy..+zyy.....yyyyoiiihhz+......
(PID.TID 0000.0001) //      1 ................................................................................................
(PID.TID 0000.0001) //      0 +qlloqz+.++++zzz++++++..................................................................+++qlloq
(PID.TID 0000.0001) //     -1 uslloorzzzzzzzzz+...++.....................................................yxxz........+zvuslloo
(PID.TID 0000.0001) //     -2 ................................................................................................
(PID.TID 0000.0001) // =======================================================
(PID.TID 0000.0001) // END OF FIELD                                          =
(PID.TID 0000.0001) // =======================================================
(PID.TID 0000.0001) 
(PID.TID 0000.0001) // =======================================================
(PID.TID 0000.0001) // Field Model Ro_surf (ini_masks_etc) at iteration          1
(PID.TID 0000.0001) // CMIN =          1.000000000000000E+32
(PID.TID 0000.0001) // CMAX =         -1.000000000000000E+32
(PID.TID 0000.0001) // CINT =          0.000000000000000E+00
(PID.TID 0000.0001) // SYMBOLS (CMIN->CMAX): -abcdefghijklmnopqrstuvwxyz+
(PID.TID 0000.0001) //                  0.0: .
(PID.TID 0000.0001) // RANGE I (Lo:Hi:Step):(  -2:  93:   1)
(PID.TID 0000.0001) // RANGE J (Lo:Hi:Step):(  43:  -2:  -1)
(PID.TID 0000.0001) // RANGE K (Lo:Hi:Step):(   1:   1:   1)
(PID.TID 0000.0001) // =======================================================
(PID.TID 0000.0001) // =======================================================
(PID.TID 0000.0001) // END OF FIELD                                          =
(PID.TID 0000.0001) // =======================================================
(PID.TID 0000.0001) 
(PID.TID 0000.0001) // =======================================================
(PID.TID 0000.0001) // Field hFacC at iteration          1
(PID.TID 0000.0001) // CMIN =          1.000000000000000E+00
(PID.TID 0000.0001) // CMAX =          1.000000000000000E+00
(PID.TID 0000.0001) // CINT =          0.000000000000000E+00
(PID.TID 0000.0001) // SYMBOLS (CMIN->CMAX): -abcdefghijklmnopqrstuvwxyz+
(PID.TID 0000.0001) //                  0.0: .
(PID.TID 0000.0001) // RANGE I (Lo:Hi:Step):(  -2:  93:   1)
(PID.TID 0000.0001) // RANGE J (Lo:Hi:Step):(  43:  -2:  -1)
(PID.TID 0000.0001) // RANGE K (Lo:Hi:Step):(   1:   1:   1)
(PID.TID 0000.0001) // =======================================================
(PID.TID 0000.0001) // =======================================================
(PID.TID 0000.0001) // END OF FIELD                                          =
(PID.TID 0000.0001) // =======================================================
(PID.TID 0000.0001) 
(PID.TID 0000.0001) // =======================================================
(PID.TID 0000.0001) // Field hFacW at iteration          1
(PID.TID 0000.0001) // CMIN =          1.000000000000000E+00
(PID.TID 0000.0001) // CMAX =          1.000000000000000E+00
(PID.TID 0000.0001) // CINT =          0.000000000000000E+00
(PID.TID 0000.0001) // SYMBOLS (CMIN->CMAX): -abcdefghijklmnopqrstuvwxyz+
(PID.TID 0000.0001) //                  0.0: .
(PID.TID 0000.0001) // RANGE I (Lo:Hi:Step):(  -2:  93:   1)
(PID.TID 0000.0001) // RANGE J (Lo:Hi:Step):(  43:  -2:  -1)
(PID.TID 0000.0001) // RANGE K (Lo:Hi:Step):(   1:   1:   1)
(PID.TID 0000.0001) // =======================================================
(PID.TID 0000.0001) // =======================================================
(PID.TID 0000.0001) // END OF FIELD                                          =
(PID.TID 0000.0001) // =======================================================
(PID.TID 0000.0001) 
(PID.TID 0000.0001) // =======================================================
(PID.TID 0000.0001) // Field hFacS at iteration          1
(PID.TID 0000.0001) // CMIN =          1.000000000000000E+00
(PID.TID 0000.0001) // CMAX =          1.000000000000000E+00
(PID.TID 0000.0001) // CINT =          0.000000000000000E+00
(PID.TID 0000.0001) // SYMBOLS (CMIN->CMAX): -abcdefghijklmnopqrstuvwxyz+
(PID.TID 0000.0001) //                  0.0: .
(PID.TID 0000.0001) // RANGE I (Lo:Hi:Step):(  -2:  93:   1)
(PID.TID 0000.0001) // RANGE J (Lo:Hi:Step):(  43:  -2:  -1)
(PID.TID 0000.0001) // RANGE K (Lo:Hi:Step):(   1:   1:   1)
(PID.TID 0000.0001) // =======================================================
(PID.TID 0000.0001) // =======================================================
(PID.TID 0000.0001) // END OF FIELD                                          =
(PID.TID 0000.0001) // =======================================================
(PID.TID 0000.0001) 
(PID.TID 0000.0001) %MON ad_advcflfCori_max           =   1.4226580169407E-04
(PID.TID 0000.0001) %MON ad_advcflfCori_min           =  -1.4226580169407E-04
(PID.TID 0000.0001) %MON ad_advcflfCori_mean          =   7.5291817533716E-23
(PID.TID 0000.0001) %MON ad_advcflfCori_sd            =   9.6335367303778E-05
(PID.TID 0000.0001) %MON ad_advcflfCoriG_max          =   1.4112379284621E-04
(PID.TID 0000.0001) %MON ad_advcflfCoriG_min          =  -1.4323448157692E-04
(PID.TID 0000.0001) %MON ad_advcflfCoriG_mean         =  -3.5808620394229E-06
(PID.TID 0000.0001) %MON ad_advcflfCoriG_sd           =   9.6285194120965E-05
(PID.TID 0000.0001) %MON ad_advcflfCoriCos_max        =   1.4535550371427E-04
(PID.TID 0000.0001) %MON ad_advcflfCoriCos_min        =   3.0239529651320E-05
(PID.TID 0000.0001) %MON ad_advcflfCoriCos_mean       =   1.0260497651149E-04
(PID.TID 0000.0001) %MON ad_advcflfCoriCos_sd         =   3.6683828681187E-05
(PID.TID 0000.0001) INI_CG2D: CG2D normalisation factor =  6.5682677425711703E-05
(PID.TID 0000.0001) 
(PID.TID 0000.0001)  MDS_READ_FIELD: opening global file: lev_t.bin
(PID.TID 0000.0001) // =======================================================
(PID.TID 0000.0001) // Field Initial Temperature at iteration          1
(PID.TID 0000.0001) // CMIN =         -1.900000000000000E+00
(PID.TID 0000.0001) // CMAX =          2.973338890075684E+01
(PID.TID 0000.0001) // CINT =          1.171606996324327E+00
(PID.TID 0000.0001) // SYMBOLS (CMIN->CMAX): -abcdefghijklmnopqrstuvwxyz+
(PID.TID 0000.0001) //                  0.0: .
(PID.TID 0000.0001) // RANGE I (Lo:Hi:Step):(   1:  90:   1)
(PID.TID 0000.0001) // RANGE J (Lo:Hi:Step):(  40:   1:  -1)
(PID.TID 0000.0001) // RANGE K (Lo:Hi:Step):(   1:   1:   1)
(PID.TID 0000.0001) // =======================================================
(PID.TID 0000.0001) K =   1
(PID.TID 0000.0001)                I=10      I=20      I=30      I=40      I=50      I=60      I=70      I=80      I=90
(PID.TID 0000.0001) |--J--|123456789|123456789|123456789|123456789|123456789|123456789|123456789|123456789|123456789|
(PID.TID 0000.0001)     40 bccdd.baa----abdedd..................................................................bbbbb
(PID.TID 0000.0001)     39 ccdddddccbbbaa...ed.....................................................----........bbbbbb
(PID.TID 0000.0001)     38 fffgfedeedddc...........................................................-----......cbbbcde
(PID.TID 0000.0001)     37 ghh..................................................................bc...bbc...edeed.defg
(PID.TID 0000.0001)     36 hh.........................................ddcb....................dcccbabccdd.eefghhihhih
(PID.TID 0000.0001)     35 hh.................................aaab..dddeddd...ffggg...........ccc....ddeeeffghijjjjih
(PID.TID 0000.0001)     34 ...................................babb.deeeeeee.ffffgghh..................ccdffghijkkkj..
(PID.TID 0000.0001)     33 ....................................accdddeeeeefffffgghhiii.................bcfijkkllllkk.
(PID.TID 0000.0001)     32 ....................................bdddeffgffgghhhhhiiijjj................dccglmnmmmmlll.
(PID.TID 0000.0001)     31 ....................................fghiiiijjjjjjkkkkklllkk..............ikkjjmooooonnmm..
(PID.TID 0000.0001)     30 ...................................mmmnmmmmmmmmmmmmmnnnnnmm............moqrrrqrqqqpppooo..
(PID.TID 0000.0001)     29 .................................pqqqqqpppppppppoppoppppponm...........ssssssrrrrrqqqqpp..
(PID.TID 0000.0001)     28 ...............................prssssrrrsssrrrrrrrrrrrrrqqpoo.........uttssstssrssrrrqqq..
(PID.TID 0000.0001)     27 ..............vv..............stuttuuuuutuuuuuuuuuuttttssrrqqq...stuu.vvvuuuuutttttsss....
(PID.TID 0000.0001)     26 ..............vvv...........uuvvvvvwwwwwwwwvvvvvvvvvuuutttsssttv.uuvxxwwwwwwvvvvuuttsr....
(PID.TID 0000.0001)     25 ..............wwwx...xxx...vvvxxxxxyyxxxxxxxxxwwwwwvvvvvuuuuuvwwx...xxxxxxwwwwwwvvutsr....
(PID.TID 0000.0001)     24 ............wwwwxyy.xxyy...wxx.yyyyyyyyyyyxxxxxxxxwwwwwwwvvwwxxyywww.xxxxxxxxxxwwwvvur....
(PID.TID 0000.0001)     23 ............xxxyyyz.xyyy...xxx..yyyyzzyyyyyyyyxxxxxxxxxwwwwwxxxwwwwwx....vwxxxxwwwwwvu....
(PID.TID 0000.0001)     22 w...........xxyyyzyyyyyz...xx.yyzzzzzzzzzzzzzyyzyyyyyyxxwwxxxxwvvvwwxw......yyyyxxxxxxwxxw
(PID.TID 0000.0001)     21 xxx........xxxxyyzzzzzzz+.....zyzzzzzzz++zzzzyyyyyyyyxxwvvwwwwvvvvvvvu........yyyyyyyyyxxx
(PID.TID 0000.0001)     20 xww.......xyyyyxyyzzzzzz+......z.zzzzz+++zzzzzzyyyyyxxxxwvwxwvuuuuuuut.........yyyyxxxxwww
(PID.TID 0000.0001)     19 vvv.......yyyyxwwxyzyyzzzzz...zzz.....++++++z++z+zzzyyyyxxxxwwvvvvvvvu...........yyxxxwwww
(PID.TID 0000.0001)     18 uut.......zzyyywwxyzyyyyzzyzzzzzz...z+z++++zz+++++++zzzyyyyxxwwwvvvvvtt..........yyxxwvvwv
(PID.TID 0000.0001)     17 uus.......z.yyyyyyxyzzyyyyyyyzz.....yzzzzzzzzzzzzzzzzzzyyyyxxwwvuuvvuut.........yyyxxwttvu
(PID.TID 0000.0001)     16 utr......yy.zyyyyxxxxxxxwxxxxy.......yyyyyyyyyyyyyyyyyyyyyyyxxwvvvuuutts........xyyyxwvuuu
(PID.TID 0000.0001)     15 ttrr....xxx.xxxwxwwwwvwwvvvww.........xwxxxxxxxxxxxxxxxxxyyyxwwwvvuttssrr......wxxxxxwwvuu
(PID.TID 0000.0001)     14 ttsq....xyxwwxwvwwwvutuuuuuuu.........wwvwwwwvwvvwwwvwvvwwwwwwvvvuuutssrr.....vwwwwwwwvvvu
(PID.TID 0000.0001)     13 tttr....wwwvvvtttuuuutttssttt.........vvvuuuuuuutttttuuuuuvwwwuuuttttssrr....uvvvvvvvvvvut
(PID.TID 0000.0001)     12 sssssstttutssssrrrrrstrqqrrssqqrrq....uuttssssrrrrrrrrrrrstttssssrssrrqp.....uuuttssttssss
(PID.TID 0000.0001)     11 poprsssrqqqqqrqppooopqpoppppppppppp..sssrrr.rqpppqqqqppppqqqoppqqqqrqqpp....prsrqqqqqppppq
(PID.TID 0000.0001)     10 lllmoooonmnnmnnnnmmmmmmlmmlllmnnnnon.qqqppp.ppppppooooooooonmnnnonnooooo..nmoponnmnnnnnmll
(PID.TID 0000.0001)      9 ihhiiiihhhhhhiiihiiiiihhhiiiijjkkmnllnnnnn.mmmmnnnnmmmmnnmmlklllllklllll.mllmmllkjiijjihhi
(PID.TID 0000.0001)      8 eeeeeeeedefgggffeeffggffffggghiiiijjijklklkkkkkkkklllkkkkjjiiijkjjjjjjkj.kkjjiihggffffedde
(PID.TID 0000.0001)      7 cccccddeedddefeddddddddddefeefffffgggghiiiiiijjjihhgggghhhhhghhhhhhhiiiihiihhgfeddddddcccc
(PID.TID 0000.0001)      6 abbcccddcccccdddddccdddddddccddddddeeeeffggggghhgeddddddeeeeeeefggggghggggffeedccbbbbbbbba
(PID.TID 0000.0001)      5 bbbcccccccccccccccccccccbbccccdddddddcccddeeddeedcbbbbbbccccccdddeeeeeddddddccbbbbaaaaaaab
(PID.TID 0000.0001)      4 bbbbbbbaaabbbbbbbbbbbbaabbabbbbcbbbbbbbbbbbbbbbbbbbabbaaabbbbbbbbbbbbbbbbb..a--aaabbbaaabb
(PID.TID 0000.0001)      3 bbbbaaa-a-............................bbaaaaaaaaaaaaaaaaaaaaaaaaaaaaaaaab..aaaaaaaabbbaaaa
(PID.TID 0000.0001)      2 ..........................................baaaaaaaaaaaa-------aa..aaaa.....aaaaaaaaaaaa...
(PID.TID 0000.0001)      1 ..........................................................................................
(PID.TID 0000.0001) // =======================================================
(PID.TID 0000.0001) // END OF FIELD                                          =
(PID.TID 0000.0001) // =======================================================
(PID.TID 0000.0001) 
(PID.TID 0000.0001)  MDS_READ_FIELD: opening global file: lev_s.bin
(PID.TID 0000.0001) // =======================================================
(PID.TID 0000.0001) // Field Initial Salinity at iteration          1
(PID.TID 0000.0001) // CMIN =          2.975276947021484E+01
(PID.TID 0000.0001) // CMAX =          3.747562789916992E+01
(PID.TID 0000.0001) // CINT =          2.860317936650029E-01
(PID.TID 0000.0001) // SYMBOLS (CMIN->CMAX): -abcdefghijklmnopqrstuvwxyz+
(PID.TID 0000.0001) //                  0.0: .
(PID.TID 0000.0001) // RANGE I (Lo:Hi:Step):(   1:  90:   1)
(PID.TID 0000.0001) // RANGE J (Lo:Hi:Step):(  40:   1:  -1)
(PID.TID 0000.0001) // RANGE K (Lo:Hi:Step):(   1:   1:   1)
(PID.TID 0000.0001) // =======================================================
(PID.TID 0000.0001) K =   1
(PID.TID 0000.0001)                I=10      I=20      I=30      I=40      I=50      I=60      I=70      I=80      I=90
(PID.TID 0000.0001) |--J--|123456789|123456789|123456789|123456789|123456789|123456789|123456789|123456789|123456789|
(PID.TID 0000.0001)     40 qrrrr.oonnooopqtutt..................................................................mnnop
(PID.TID 0000.0001)     39 rssrrrrrrrqqpn...ut.....................................................mmmm........opqqqr
(PID.TID 0000.0001)     38 ssrrqqqqrrqpo...........................................................lkkll......onoqrrs
(PID.TID 0000.0001)     37 ssr..................................................................hg...lln...qppqr.rrrs
(PID.TID 0000.0001)     36 rr.........................................lkji....................feeegikmoop.pqrssssssss
(PID.TID 0000.0001)     35 rr.................................kkkk..lllllki...jijjj...........aa-....opqrrrrrrrssttss
(PID.TID 0000.0001)     34 ...................................jlll.kklllllk.ijkkkjih..................hlpqrqrrsstts..
(PID.TID 0000.0001)     33 ....................................iklkkkkkkkkkjkkjjjjjjii.................jmprrsstttttt.
(PID.TID 0000.0001)     32 ....................................iklllkllllllllkkkkkkkji................gilpstuuttuuut.
(PID.TID 0000.0001)     31 ....................................lmnonnnnoooonnmmmmllkjj..............loopqtvvvuuuuuu..
(PID.TID 0000.0001)     30 ...................................pppppppqqqqpppoooonnmlkk............ptvxwwvvwvvvvvvvu..
(PID.TID 0000.0001)     29 .................................pqqrqqqqqqrrrqqppqqqpponmll...........vxxxxxxwwwwwxwwxw..
(PID.TID 0000.0001)     28 ...............................prrrrrqqrrrrrsrrsrssssssrqonmm.........wxxxxxxxyyyyyyyyxx..
(PID.TID 0000.0001)     27 ..............xx..............prrrrrrrrrssssssstttssssssrqpoop...uwww.wwxxxyyy++zzzzyy....
(PID.TID 0000.0001)     26 ..............wxx...........ppqrrrrrrsssrrstsstttssrrrrrrrqppqqp.wwwvvwwwwwxyy+++zzyxw....
(PID.TID 0000.0001)     25 ..............wxxv...kkk...ooopqrrrrrssrrrrrrrssssqqpppppppppppoo...vvutuuvvwxyyyxxvvu....
(PID.TID 0000.0001)     24 ............uvvwwur.lmlk...nmm.pqqqqrrrrrqqqqrrqqrpppppooooonmmmnooo.uuuuuuttuvvvuvuut....
(PID.TID 0000.0001)     23 ............vvuvtqp.lmml...mln..ppppqpqppppppqpppppppppqppponnnnnoopm....xvuuuvvvvuuut....
(PID.TID 0000.0001)     22 r...........vuttsqqpnppn...mm.oppqqrrqqqqqqppppqqrrrqqqrrppppoopooomjj......uuvvvvvuttssrr
(PID.TID 0000.0001)     21 qmm........ttsssssssrsqon.....opqqqqqqqrrrrqqqssssssrrrrrrrrpqqqppomll........tvvvvuttssrr
(PID.TID 0000.0001)     20 sqq.......sttssrrsrrrrpol......p.qrqpqrrrrrrrstttttsssrrsssrqrrrrqqqpo.........wwwvvvuuutt
(PID.TID 0000.0001)     19 tsr.......ssssrrrrpppppnmmm...oqq.....qrqqsrrstttuuuttssttssrrssrrrrqq...........wwwvuvvvv
(PID.TID 0000.0001)     18 wut.......ssrrrrrqppppppppoooorrr...poqqqprrrttttuuutuuuuuutttttttutsss..........yyxwwxwxx
(PID.TID 0000.0001)     17 wwu.......s.rrrrrrqppppqqqqqqqr.....rrsrqrsssuusrtuuuvvvwwvvvuuuuutttss.........xyzyyyyxxx
(PID.TID 0000.0001)     16 vvt......ss.qrrssrqrqpqrrrrrrr.......ssrrstsstusrsuuuvwwwwxxwwvvvuttttsr........yz+zzzxwww
(PID.TID 0000.0001)     15 utss....stt.rrssstttsrrsrstsr.........ssstttssttsuuttuvvvvwxwwwwwuttsssrr......xyyyyxyyxwv
(PID.TID 0000.0001)     14 utts....sstrrssstuuuuuuuuuutt.........stttuutttttttuttttttuvvvvvvutsrqrrr.....vxxwwwwxwvwv
(PID.TID 0000.0001)     13 uuut....ttttttttuuuuuvtuuuuuu.........ttttuutttttttuutsssstttttstsqrqqppp....uwwwvuvvvutvv
(PID.TID 0000.0001)     12 ttttttttttttttttttttttssuuuuutuuut....tttttttttttsssssrrrrrrrqqqqqppppoo.....rvvuuttttttuu
(PID.TID 0000.0001)     11 rqsttttttttuuttttsssssrrstttttttsss..ttttts.tsssrrrrqqqqqppppoonnooooooo....oruttttsssrqrs
(PID.TID 0000.0001)     10 pppqrssrqqrqpqrssrrqqqqqqrrrrrrrrrrs.sssssr.rssrrqqpppppppooooonnnoooonn..moqrrrqqqqqqqqqq
(PID.TID 0000.0001)      9 oonooooooooonnnooooooooooppppppqqqqqrrrqrq.pppqqqqqppppppppppoooooooooll.lmoqqqqppooooopoo
(PID.TID 0000.0001)      8 nnnoonooooooonnnnnnnoooonoonoooppopqqqqqqqppopppqqqpppppppppppppppooopon.lnopppoooonnnnooo
(PID.TID 0000.0001)      7 ooooooooooopponnnooooooonnnnnonnooooooooopppppppoooooooooopppppppppoopqnnmnoooonnnonnnnnno
(PID.TID 0000.0001)      6 oooonnoonnnnooooooooooooonnnnnnnnnnnnnnnnoooopppooooooooooooooppppppppppoooooooonnnnnmnnnn
(PID.TID 0000.0001)      5 oooonnnnnnnnnnnnnnnnnoooooonnnnnnonnnnnnnnnoooooooooooonnnnnnooooooopoooonoooonnnnnnnooooo
(PID.TID 0000.0001)      4 oooonnnooonnnnnnnnnnnnnnoooooonnnooooonnnooooooooppponnnnmmmnnnnmnnoonnnnn..nnnooooooooooo
(PID.TID 0000.0001)      3 ooonnnnnnn............................nnoooooonnooooonnnnnnnoonnnnnnnnmmm..ooopooooooooooo
(PID.TID 0000.0001)      2 ..........................................pppooooonnnnnnoooppppo..nnnn.....qqqpppoooooo...
(PID.TID 0000.0001)      1 ..........................................................................................
(PID.TID 0000.0001) // =======================================================
(PID.TID 0000.0001) // END OF FIELD                                          =
(PID.TID 0000.0001) // =======================================================
(PID.TID 0000.0001) 
(PID.TID 0000.0001) Start initial hydrostatic pressure computation
(PID.TID 0000.0001) Pressure is predetermined for buoyancyRelation OCEANIC
(PID.TID 0000.0001) 
(PID.TID 0000.0001)  MDS_READ_FIELD: opening global file: trenberth_taux.bin
(PID.TID 0000.0001)  MDS_READ_FIELD: opening global file: trenberth_tauy.bin
(PID.TID 0000.0001)  MDS_READ_FIELD: opening global file: ncep_qnet.bin
(PID.TID 0000.0001)  MDS_READ_FIELD: opening global file: lev_sst.bin
(PID.TID 0000.0001)  MDS_READ_FIELD: opening global file: lev_sss.bin
(PID.TID 0000.0001)  MDS_READ_FIELD: opening file: xx_theta.0000000000.001.001.data
(PID.TID 0000.0001)  MDS_READ_FIELD: opening file: xx_salt.0000000000.001.001.data
(PID.TID 0000.0001)  MDS_READ_FIELD: opening file: xx_diffkr.0000000000.001.001.data
(PID.TID 0000.0001)  MDS_READ_FIELD: opening file: xx_kapgm.0000000000.001.001.data
(PID.TID 0000.0001) // =======================================================
(PID.TID 0000.0001) // Model current state
(PID.TID 0000.0001) // =======================================================
(PID.TID 0000.0001) 
S/R EXTERNAL_FIELDS_LOAD: Reading new data:   12    1         0  0.000000000000E+00
(PID.TID 0000.0001)  MDS_READ_FIELD: opening global file: trenberth_taux.bin
(PID.TID 0000.0001)  MDS_READ_FIELD: opening global file: trenberth_taux.bin
(PID.TID 0000.0001)  MDS_READ_FIELD: opening global file: trenberth_tauy.bin
(PID.TID 0000.0001)  MDS_READ_FIELD: opening global file: trenberth_tauy.bin
(PID.TID 0000.0001)  MDS_READ_FIELD: opening global file: ncep_qnet.bin
(PID.TID 0000.0001)  MDS_READ_FIELD: opening global file: ncep_qnet.bin
(PID.TID 0000.0001)  MDS_READ_FIELD: opening global file: lev_sst.bin
(PID.TID 0000.0001)  MDS_READ_FIELD: opening global file: lev_sst.bin
(PID.TID 0000.0001)  MDS_READ_FIELD: opening global file: lev_sss.bin
(PID.TID 0000.0001)  MDS_READ_FIELD: opening global file: lev_sss.bin
time,SST,SSS,fu,fv,Q,E-P,i0,i1,a,b =   0.0000E+00  5.3151E-02  3.4364E+01 -4.0500E-02 -6.3753E-02  2.6510E+02  0.0000E+00    12     1  5.0000E-01  5.0000E-01
time,fu0,fu1,fu =   0.0000E+00 -4.5368E-02 -3.5633E-02 -4.0500E-02  5.000000000000000E-01  5.000000000000000E-01
(PID.TID 0000.0001)  MDS_READ_FIELD: opening file: xx_tauu.0000000000.001.001.data
(PID.TID 0000.0001)  MDS_READ_FIELD: opening file: xx_tauv.0000000000.001.001.data
(PID.TID 0000.0001)  MDS_READ_FIELD: opening file: xx_sflux.0000000000.001.001.data
(PID.TID 0000.0001)  MDS_READ_FIELD: opening file: xx_hflux.0000000000.001.001.data
 ph-test a  1 1
 ph-test b  1
 ph-test a  1 2
 ph-test b  1
 ph-test a  1 3
 ph-test b  1
 ph-test a  1 4
 ph-test b  1
 ph-test a  1 5
 ph-test b  1
 ph-test a  1 6
 ph-test b  1
 ph-test a  1 7
 ph-test b  1
 ph-test a  1 8
 ph-test b  1
 ph-test a  1 9
 ph-test b  1
 ph-test a  1 10
 ph-test b  1
 ph-test a  1 11
 ph-test b  1
 ph-test a  1 12
 ph-test b  1
 ph-test a  1 13
 ph-test b  1
 ph-test a  1 14
 ph-test b  1
 ph-test a  1 15
 ph-test b  1
 cg2d: Sum(rhs),rhsMax =   1.05956909912663E-14  2.53674886388737E+00
time,SST,SSS,fu,fv,Q,E-P,i0,i1,a,b =   4.3200E+04  8.3327E-02  3.4375E+01 -4.0338E-02 -6.3536E-02  2.6512E+02  0.0000E+00    12     1  5.1667E-01  4.8333E-01
time,fu0,fu1,fu =   4.3200E+04 -4.5368E-02 -3.5633E-02 -4.0338E-02  5.166666666666667E-01  4.833333333333333E-01
 ph-test a  1 1
 ph-test b  1
 ph-test a  1 2
 ph-test b  1
 ph-test a  1 3
 ph-test b  1
 ph-test a  1 4
 ph-test b  1
 ph-test a  1 5
 ph-test b  1
 ph-test a  1 6
 ph-test b  1
 ph-test a  1 7
 ph-test b  1
 ph-test a  1 8
 ph-test b  1
 ph-test a  1 9
 ph-test b  1
 ph-test a  1 10
 ph-test b  1
 ph-test a  1 11
 ph-test b  1
 ph-test a  1 12
 ph-test b  1
 ph-test a  1 13
 ph-test b  1
 ph-test a  1 14
 ph-test b  1
 ph-test a  1 15
 ph-test b  1
 cg2d: Sum(rhs),rhsMax =  -1.37043154602168E-14  4.94099340918605E+00
time,SST,SSS,fu,fv,Q,E-P,i0,i1,a,b =   8.6400E+04  1.1350E-01  3.4387E+01 -4.0176E-02 -6.3320E-02  2.6514E+02  0.0000E+00    12     1  5.3333E-01  4.6667E-01
time,fu0,fu1,fu =   8.6400E+04 -4.5368E-02 -3.5633E-02 -4.0176E-02  5.333333333333333E-01  4.666666666666667E-01
 ph-test a  1 1
 ph-test b  1
 ph-test a  1 2
 ph-test b  1
 ph-test a  1 3
 ph-test b  1
 ph-test a  1 4
 ph-test b  1
 ph-test a  1 5
 ph-test b  1
 ph-test a  1 6
 ph-test b  1
 ph-test a  1 7
 ph-test b  1
 ph-test a  1 8
 ph-test b  1
 ph-test a  1 9
 ph-test b  1
 ph-test a  1 10
 ph-test b  1
 ph-test a  1 11
 ph-test b  1
 ph-test a  1 12
 ph-test b  1
 ph-test a  1 13
 ph-test b  1
 ph-test a  1 14
 ph-test b  1
 ph-test a  1 15
 ph-test b  1
 cg2d: Sum(rhs),rhsMax =  -9.09342046107042E-15  6.30201510737097E+00
time,SST,SSS,fu,fv,Q,E-P,i0,i1,a,b =   1.2960E+05  1.4368E-01  3.4399E+01 -4.0014E-02 -6.3103E-02  2.6516E+02  0.0000E+00    12     1  5.5000E-01  4.5000E-01
time,fu0,fu1,fu =   1.2960E+05 -4.5368E-02 -3.5633E-02 -4.0014E-02  5.500000000000000E-01  4.500000000000000E-01
 ph-test a  1 1
 ph-test b  1
 ph-test a  1 2
 ph-test b  1
 ph-test a  1 3
 ph-test b  1
 ph-test a  1 4
 ph-test b  1
 ph-test a  1 5
 ph-test b  1
 ph-test a  1 6
 ph-test b  1
 ph-test a  1 7
 ph-test b  1
 ph-test a  1 8
 ph-test b  1
 ph-test a  1 9
 ph-test b  1
 ph-test a  1 10
 ph-test b  1
 ph-test a  1 11
 ph-test b  1
 ph-test a  1 12
 ph-test b  1
 ph-test a  1 13
 ph-test b  1
 ph-test a  1 14
 ph-test b  1
 ph-test a  1 15
 ph-test b  1
 cg2d: Sum(rhs),rhsMax =   6.93542445695527E-15  6.81670284430948E+00
time,SST,SSS,fu,fv,Q,E-P,i0,i1,a,b =   1.7280E+05  1.7385E-01  3.4410E+01 -3.9851E-02 -6.2886E-02  2.6519E+02  0.0000E+00    12     1  5.6667E-01  4.3333E-01
time,fu0,fu1,fu =   1.7280E+05 -4.5368E-02 -3.5633E-02 -3.9851E-02  5.666666666666667E-01  4.333333333333333E-01
 ph-test a  1 1
 ph-test b  1
 ph-test a  1 2
 ph-test b  1
 ph-test a  1 3
 ph-test b  1
 ph-test a  1 4
 ph-test b  1
 ph-test a  1 5
 ph-test b  1
 ph-test a  1 6
 ph-test b  1
 ph-test a  1 7
 ph-test b  1
 ph-test a  1 8
 ph-test b  1
 ph-test a  1 9
 ph-test b  1
 ph-test a  1 10
 ph-test b  1
 ph-test a  1 11
 ph-test b  1
 ph-test a  1 12
 ph-test b  1
 ph-test a  1 13
 ph-test b  1
 ph-test a  1 14
 ph-test b  1
 ph-test a  1 15
 ph-test b  1
 cg2d: Sum(rhs),rhsMax =   1.05731395860786E-14  6.91786915802128E+00
time,SST,SSS,fu,fv,Q,E-P,i0,i1,a,b =   2.1600E+05  2.0403E-01  3.4422E+01 -3.9689E-02 -6.2670E-02  2.6521E+02  0.0000E+00    12     1  5.8333E-01  4.1667E-01
time,fu0,fu1,fu =   2.1600E+05 -4.5368E-02 -3.5633E-02 -3.9689E-02  5.833333333333334E-01  4.166666666666666E-01
 ph-test a  1 1
 ph-test b  1
 ph-test a  1 2
 ph-test b  1
 ph-test a  1 3
 ph-test b  1
 ph-test a  1 4
 ph-test b  1
 ph-test a  1 5
 ph-test b  1
 ph-test a  1 6
 ph-test b  1
 ph-test a  1 7
 ph-test b  1
 ph-test a  1 8
 ph-test b  1
 ph-test a  1 9
 ph-test b  1
 ph-test a  1 10
 ph-test b  1
 ph-test a  1 11
 ph-test b  1
 ph-test a  1 12
 ph-test b  1
 ph-test a  1 13
 ph-test b  1
 ph-test a  1 14
 ph-test b  1
 ph-test a  1 15
 ph-test b  1
 cg2d: Sum(rhs),rhsMax =   6.24708618168768E-14  6.87448893655103E+00
time,SST,SSS,fu,fv,Q,E-P,i0,i1,a,b =   2.5920E+05  2.3421E-01  3.4434E+01 -3.9527E-02 -6.2453E-02  2.6523E+02  0.0000E+00    12     1  6.0000E-01  4.0000E-01
time,fu0,fu1,fu =   2.5920E+05 -4.5368E-02 -3.5633E-02 -3.9527E-02  6.000000000000000E-01  4.000000000000000E-01
 ph-test a  1 1
 ph-test b  1
 ph-test a  1 2
 ph-test b  1
 ph-test a  1 3
 ph-test b  1
 ph-test a  1 4
 ph-test b  1
 ph-test a  1 5
 ph-test b  1
 ph-test a  1 6
 ph-test b  1
 ph-test a  1 7
 ph-test b  1
 ph-test a  1 8
 ph-test b  1
 ph-test a  1 9
 ph-test b  1
 ph-test a  1 10
 ph-test b  1
 ph-test a  1 11
 ph-test b  1
 ph-test a  1 12
 ph-test b  1
 ph-test a  1 13
 ph-test b  1
 ph-test a  1 14
 ph-test b  1
 ph-test a  1 15
 ph-test b  1
 cg2d: Sum(rhs),rhsMax =   5.01621313930833E-14  7.24604825999480E+00
time,SST,SSS,fu,fv,Q,E-P,i0,i1,a,b =   3.0240E+05  2.6438E-01  3.4446E+01 -3.9365E-02 -6.2237E-02  2.6525E+02  0.0000E+00    12     1  6.1667E-01  3.8333E-01
time,fu0,fu1,fu =   3.0240E+05 -4.5368E-02 -3.5633E-02 -3.9365E-02  6.166666666666667E-01  3.833333333333333E-01
 ph-test a  1 1
 ph-test b  1
 ph-test a  1 2
 ph-test b  1
 ph-test a  1 3
 ph-test b  1
 ph-test a  1 4
 ph-test b  1
 ph-test a  1 5
 ph-test b  1
 ph-test a  1 6
 ph-test b  1
 ph-test a  1 7
 ph-test b  1
 ph-test a  1 8
 ph-test b  1
 ph-test a  1 9
 ph-test b  1
 ph-test a  1 10
 ph-test b  1
 ph-test a  1 11
 ph-test b  1
 ph-test a  1 12
 ph-test b  1
 ph-test a  1 13
 ph-test b  1
 ph-test a  1 14
 ph-test b  1
 ph-test a  1 15
 ph-test b  1
 cg2d: Sum(rhs),rhsMax =  -7.87321596806834E-14  7.86362075184324E+00
time,SST,SSS,fu,fv,Q,E-P,i0,i1,a,b =   3.4560E+05  2.9456E-01  3.4457E+01 -3.9202E-02 -6.2020E-02  2.6528E+02  0.0000E+00    12     1  6.3333E-01  3.6667E-01
time,fu0,fu1,fu =   3.4560E+05 -4.5368E-02 -3.5633E-02 -3.9202E-02  6.333333333333333E-01  3.666666666666667E-01
 ph-test a  1 1
 ph-test b  1
 ph-test a  1 2
 ph-test b  1
 ph-test a  1 3
 ph-test b  1
 ph-test a  1 4
 ph-test b  1
 ph-test a  1 5
 ph-test b  1
 ph-test a  1 6
 ph-test b  1
 ph-test a  1 7
 ph-test b  1
 ph-test a  1 8
 ph-test b  1
 ph-test a  1 9
 ph-test b  1
 ph-test a  1 10
 ph-test b  1
 ph-test a  1 11
 ph-test b  1
 ph-test a  1 12
 ph-test b  1
 ph-test a  1 13
 ph-test b  1
 ph-test a  1 14
 ph-test b  1
 ph-test a  1 15
 ph-test b  1
 cg2d: Sum(rhs),rhsMax =   1.15351521737250E-14  8.20455160636555E+00
time,SST,SSS,fu,fv,Q,E-P,i0,i1,a,b =   3.8880E+05  3.2473E-01  3.4469E+01 -3.9040E-02 -6.1804E-02  2.6530E+02  0.0000E+00    12     1  6.5000E-01  3.5000E-01
time,fu0,fu1,fu =   3.8880E+05 -4.5368E-02 -3.5633E-02 -3.9040E-02  6.500000000000000E-01  3.500000000000000E-01
 ph-test a  1 1
 ph-test b  1
 ph-test a  1 2
 ph-test b  1
 ph-test a  1 3
 ph-test b  1
 ph-test a  1 4
 ph-test b  1
 ph-test a  1 5
 ph-test b  1
 ph-test a  1 6
 ph-test b  1
 ph-test a  1 7
 ph-test b  1
 ph-test a  1 8
 ph-test b  1
 ph-test a  1 9
 ph-test b  1
 ph-test a  1 10
 ph-test b  1
 ph-test a  1 11
 ph-test b  1
 ph-test a  1 12
 ph-test b  1
 ph-test a  1 13
 ph-test b  1
 ph-test a  1 14
 ph-test b  1
 ph-test a  1 15
 ph-test b  1
 cg2d: Sum(rhs),rhsMax =   6.93917579647207E-14  8.29866218269599E+00
(PID.TID 0000.0001) %CHECKPOINT        10 ckptA
 --> objf_test(bi,bj)   =  0.000000000000000E+00
 --> objf_tracer(bi,bj) =  0.000000000000000E+00
 --> objf_atl(bi,bj)    = -0.456644330827227E-01
  local fc = -0.456644330827227E-01
 global fc = -0.456644330827227E-01
 ph-check fcpertplus =  -0.0456644331
(PID.TID 0000.0001)  MDS_READ_FIELD: opening file: xx_theta.0000000000.001.001.data
 ph-check fcpertminus =  -0.0456642956
(PID.TID 0000.0001)  MDS_READ_FIELD: opening file: xx_theta.0000000000.001.001.data
(PID.TID 0000.0001)  MDS_READ_FIELD: opening global file: bathymetry.bin
(PID.TID 0000.0001) // =======================================================
(PID.TID 0000.0001) // Field Model R_low (ini_masks_etc) at iteration          1
(PID.TID 0000.0001) // CMIN =         -5.200000000000000E+03
(PID.TID 0000.0001) // CMAX =         -1.200000000000000E+02
(PID.TID 0000.0001) // CINT =          1.881481481481482E+02
(PID.TID 0000.0001) // SYMBOLS (CMIN->CMAX): -abcdefghijklmnopqrstuvwxyz+
(PID.TID 0000.0001) //                  0.0: .
(PID.TID 0000.0001) // RANGE I (Lo:Hi:Step):(  -2:  93:   1)
(PID.TID 0000.0001) // RANGE J (Lo:Hi:Step):(  43:  -2:  -1)
(PID.TID 0000.0001) // RANGE K (Lo:Hi:Step):(   1:   1:   1)
(PID.TID 0000.0001) // =======================================================
(PID.TID 0000.0001) K =   1
(PID.TID 0000.0001) //                I=7       I=17      I=27      I=37      I=47      I=57      I=67      I=77      I=87
(PID.TID 0000.0001) // |--J--|210123456|890123456|890123456|890123456|890123456|890123456|890123456|890123456|890123456|890123
(PID.TID 0000.0001) //     43 ................................................................................................
(PID.TID 0000.0001) //     42 .............................................zyxxmgfeeefefgimnpwwwy..+zyy.....yyyyoiiihhz+......
(PID.TID 0000.0001) //     41 ................................................................................................
(PID.TID 0000.0001) //     40 +qlloqz+.++++zzz++++++..................................................................+++qlloq
(PID.TID 0000.0001) //     39 uslloorzzzzzzzzz+...++.....................................................yxxz........+zvuslloo
(PID.TID 0000.0001) //     38 smqpporzzzzzz+++...........................................................zxxy+......zyyvsmqppo
(PID.TID 0000.0001) //     37 smmmuz..................................................................++...zy+...yttyy.+smmmuz
(PID.TID 0000.0001) //     36 yutt+.........................................mm++....................+++++++znmm.yoowssvuyutt+.
(PID.TID 0000.0001) //     35 w++++.................................+zzz..rrmmkk+...+gghn...........+++....+nmiijlsoopuww++++.
(PID.TID 0000.0001) //     34 +.....................................+vvy.ggqyxv+y.ccdffhim..................+nihhikkihhm+.....
(PID.TID 0000.0001) //     33 w+.....................................uuz---h------aaabdefin+.................zqvddflifffw+....
(PID.TID 0000.0001) //     32 m+.....................................+t----h---------acdfgnn................+++gdffkofffm+....
(PID.TID 0000.0001) //     31 m......................................-----ad--------abddegil..............qbaafccdhqqgddm.....
(PID.TID 0000.0001) //     30 i.....................................f----b--b------------abd............zfbb--fbcdosjfddi.....
(PID.TID 0000.0001) //     29 i...................................tu----e---fjg----------abdf...........eaac--abfmijaadgi.....
(PID.TID 0000.0001) //     28 z.................................+xfl-------------------bdedefi.........qbaa---aemfbbaaejz.....
(PID.TID 0000.0001) //     27 .................xx..............+wfgfpf--------eallc---bbbccefgi...+++x.qb-----akfa---ah.......
(PID.TID 0000.0001) //     26 .................xnn...........+vd---dna------a--aicfna---aabdfghku.++xssuy-----bgca---ci.......
(PID.TID 0000.0001) //     25 .................iiik...oo+...+ivd---doaa-bc--ilglf--aa---aabcghhkll...ssum+xaaacjbaabdjk.......
(PID.TID 0000.0001) //     24 ...............xnheeft.kkk+...uii.aagdm----aa-----a-------bbbcdefjljjju.zummwwbbchba--abi.......
(PID.TID 0000.0001) //     23 ...............xgheefp.iikw...uuw..fihi----fed-----eaaa--bbbbcdfflkjiiiq....zykccefa--abd.......
(PID.TID 0000.0001) //     22 quss...........bbelffslffkk...zz.wqkeeqoheccdfa-----egabaabcdddegghliiiqq......xeeehheehccquss..
(PID.TID 0000.0001) //     21 cbbeir........nbbcdjhqdddiiz.....wqfeelgghmedea-----bibbcddddddefghklnqoo........ieeflhgcccbbeir
(PID.TID 0000.0001) //     20 cbbder.......ldcccdgkccccidd......z.vkkktqqhegg----aaacddddddddefghkiiijl.........nhfa--gfcbbder
(PID.TID 0000.0001) //     19 hcdaaf.......kddosggpaaaibbccx...+z+.....r+nlec---agaaabcddccddefikfgffff...........d---cjhcdaaf
(PID.TID 0000.0001) //     18 hd---d.......kglggvliaaaibbcaaeaiv++...qqzolhecccfdgkaabcdfccdeeikgfgffdd+..........d---djhd---d
(PID.TID 0000.0001) //     17 hc---c.......l.feewlfaaaoaa----aiv.....qqnllslmlofcdbaacceffffhhligfigeddj.........hd---ckhc---c
(PID.TID 0000.0001) //     16 gba--c......tn.ddgnlfdaaqa-----lv.......vnllvllnwv--accivomfffhilhgfffeddjf........re--aeigba--c
(PID.TID 0000.0001) //     15 fb--dpz....+ll.ccdfhmdddlc----av.........otsxoomv---abccddfihgijkhgfffeejfff......+fd---ckfb--dp
(PID.TID 0000.0001) //     14 fc--mcl....weeqbaafilkfend--eagy.........hhstofft----aacdheefijkmjhhjijiffff.....zlfdaaadlfc--mc
(PID.TID 0000.0001) //     13 hcclbbg....nccobaaiddgkffqrqeaal.........eeutqfft------aaceeffhijlkjhhigfffq....+jgfodccflhcclbb
(PID.TID 0000.0001) //     12 hhgaaacw+iiicclemhdddfliigfdcaabfaaaz....ccsurqpc--------abcifffikiiihhggff.....kbbbdfffglhhgaaa
(PID.TID 0000.0001) //     11 kgcaaacbbifccennhbbdefnihgfdccaaaa----..dcccnt.ncab-------aabcdfilhggjiggff....l---abcefjlkgcaaa
(PID.TID 0000.0001) //     10 kfcaaccbdaacfrllfbbdegkmmljhfdddba----d.dcccfx.nyrebaba----abcdgilhfeegijgi..+w--aa-abcfilkfcaac
(PID.TID 0000.0001) //      9 lffcdcccaaaoqsolfdeehikihhlllgfedcccccdmdcccf.vyfaaaaaaaa--abdehmjhfeeefglv.++w-----abcdfklffcdc
(PID.TID 0000.0001) //      8 liffjklcaafddffeeccvznkfffhhhlkjifgjkkfeeddfsyvcaaaaaaccdcccdfgjligedbbceg+.++xffn--cfddefliffjk
(PID.TID 0000.0001) //      7 hmqnnbbkkf--bmbaabbgtykfddeffeeddccdfhlffeelfbaaaaaacddeghgjgjlligeddaaabedfiiiiiisvkfkecchmqnnb
(PID.TID 0000.0001) //      6 cca-------------aabcelttdddedddddccccdfkkiiffbaaaabcdgimmkmefecaaabbbaaabbdfiiiiispmmregifcca---
(PID.TID 0000.0001) //      5 --------a-------aaccehhhiddeddddddcccdfiikomodddefffmlmigedccaaaaaaaababbbdfiijsqgeccccbaa------
(PID.TID 0000.0001) //      4 --ahebaabbbbbeihffgijiiiijpywnnpokkomkiiijmmmolkommmgffeeedccaaaaaabbcccefhmz..yjgeccccbaa--aheb
(PID.TID 0000.0001) //      3 gffhhrpjiiwyy............................yxotmjjjjgfeeeeeeddeffffheddeghjkyy..yqjgeddccdbbgffhhr
(PID.TID 0000.0001) //      2 .............................................zyxxmgfeeefefgimnpwwwy..+zyy.....yyyyoiiihhz+......
(PID.TID 0000.0001) //      1 ................................................................................................
(PID.TID 0000.0001) //      0 +qlloqz+.++++zzz++++++..................................................................+++qlloq
(PID.TID 0000.0001) //     -1 uslloorzzzzzzzzz+...++.....................................................yxxz........+zvuslloo
(PID.TID 0000.0001) //     -2 ................................................................................................
(PID.TID 0000.0001) // =======================================================
(PID.TID 0000.0001) // END OF FIELD                                          =
(PID.TID 0000.0001) // =======================================================
(PID.TID 0000.0001) 
(PID.TID 0000.0001) // =======================================================
(PID.TID 0000.0001) // Field Model Ro_surf (ini_masks_etc) at iteration          1
(PID.TID 0000.0001) // CMIN =          1.000000000000000E+32
(PID.TID 0000.0001) // CMAX =         -1.000000000000000E+32
(PID.TID 0000.0001) // CINT =          0.000000000000000E+00
(PID.TID 0000.0001) // SYMBOLS (CMIN->CMAX): -abcdefghijklmnopqrstuvwxyz+
(PID.TID 0000.0001) //                  0.0: .
(PID.TID 0000.0001) // RANGE I (Lo:Hi:Step):(  -2:  93:   1)
(PID.TID 0000.0001) // RANGE J (Lo:Hi:Step):(  43:  -2:  -1)
(PID.TID 0000.0001) // RANGE K (Lo:Hi:Step):(   1:   1:   1)
(PID.TID 0000.0001) // =======================================================
(PID.TID 0000.0001) // =======================================================
(PID.TID 0000.0001) // END OF FIELD                                          =
(PID.TID 0000.0001) // =======================================================
(PID.TID 0000.0001) 
(PID.TID 0000.0001) // =======================================================
(PID.TID 0000.0001) // Field hFacC at iteration          1
(PID.TID 0000.0001) // CMIN =          1.000000000000000E+00
(PID.TID 0000.0001) // CMAX =          1.000000000000000E+00
(PID.TID 0000.0001) // CINT =          0.000000000000000E+00
(PID.TID 0000.0001) // SYMBOLS (CMIN->CMAX): -abcdefghijklmnopqrstuvwxyz+
(PID.TID 0000.0001) //                  0.0: .
(PID.TID 0000.0001) // RANGE I (Lo:Hi:Step):(  -2:  93:   1)
(PID.TID 0000.0001) // RANGE J (Lo:Hi:Step):(  43:  -2:  -1)
(PID.TID 0000.0001) // RANGE K (Lo:Hi:Step):(   1:   1:   1)
(PID.TID 0000.0001) // =======================================================
(PID.TID 0000.0001) // =======================================================
(PID.TID 0000.0001) // END OF FIELD                                          =
(PID.TID 0000.0001) // =======================================================
(PID.TID 0000.0001) 
(PID.TID 0000.0001) // =======================================================
(PID.TID 0000.0001) // Field hFacW at iteration          1
(PID.TID 0000.0001) // CMIN =          1.000000000000000E+00
(PID.TID 0000.0001) // CMAX =          1.000000000000000E+00
(PID.TID 0000.0001) // CINT =          0.000000000000000E+00
(PID.TID 0000.0001) // SYMBOLS (CMIN->CMAX): -abcdefghijklmnopqrstuvwxyz+
(PID.TID 0000.0001) //                  0.0: .
(PID.TID 0000.0001) // RANGE I (Lo:Hi:Step):(  -2:  93:   1)
(PID.TID 0000.0001) // RANGE J (Lo:Hi:Step):(  43:  -2:  -1)
(PID.TID 0000.0001) // RANGE K (Lo:Hi:Step):(   1:   1:   1)
(PID.TID 0000.0001) // =======================================================
(PID.TID 0000.0001) // =======================================================
(PID.TID 0000.0001) // END OF FIELD                                          =
(PID.TID 0000.0001) // =======================================================
(PID.TID 0000.0001) 
(PID.TID 0000.0001) // =======================================================
(PID.TID 0000.0001) // Field hFacS at iteration          1
(PID.TID 0000.0001) // CMIN =          1.000000000000000E+00
(PID.TID 0000.0001) // CMAX =          1.000000000000000E+00
(PID.TID 0000.0001) // CINT =          0.000000000000000E+00
(PID.TID 0000.0001) // SYMBOLS (CMIN->CMAX): -abcdefghijklmnopqrstuvwxyz+
(PID.TID 0000.0001) //                  0.0: .
(PID.TID 0000.0001) // RANGE I (Lo:Hi:Step):(  -2:  93:   1)
(PID.TID 0000.0001) // RANGE J (Lo:Hi:Step):(  43:  -2:  -1)
(PID.TID 0000.0001) // RANGE K (Lo:Hi:Step):(   1:   1:   1)
(PID.TID 0000.0001) // =======================================================
(PID.TID 0000.0001) // =======================================================
(PID.TID 0000.0001) // END OF FIELD                                          =
(PID.TID 0000.0001) // =======================================================
(PID.TID 0000.0001) 
(PID.TID 0000.0001) %MON ad_advcflfCori_max           =   1.4226580169407E-04
(PID.TID 0000.0001) %MON ad_advcflfCori_min           =  -1.4226580169407E-04
(PID.TID 0000.0001) %MON ad_advcflfCori_mean          =   7.5291817533716E-23
(PID.TID 0000.0001) %MON ad_advcflfCori_sd            =   9.6335367303778E-05
(PID.TID 0000.0001) %MON ad_advcflfCoriG_max          =   1.4112379284621E-04
(PID.TID 0000.0001) %MON ad_advcflfCoriG_min          =  -1.4323448157692E-04
(PID.TID 0000.0001) %MON ad_advcflfCoriG_mean         =  -3.5808620394229E-06
(PID.TID 0000.0001) %MON ad_advcflfCoriG_sd           =   9.6285194120965E-05
(PID.TID 0000.0001) %MON ad_advcflfCoriCos_max        =   1.4535550371427E-04
(PID.TID 0000.0001) %MON ad_advcflfCoriCos_min        =   3.0239529651320E-05
(PID.TID 0000.0001) %MON ad_advcflfCoriCos_mean       =   1.0260497651149E-04
(PID.TID 0000.0001) %MON ad_advcflfCoriCos_sd         =   3.6683828681187E-05
(PID.TID 0000.0001) INI_CG2D: CG2D normalisation factor =  6.5682677425711703E-05
(PID.TID 0000.0001) 
(PID.TID 0000.0001)  MDS_READ_FIELD: opening global file: lev_t.bin
(PID.TID 0000.0001) // =======================================================
(PID.TID 0000.0001) // Field Initial Temperature at iteration          1
(PID.TID 0000.0001) // CMIN =         -1.900000000000000E+00
(PID.TID 0000.0001) // CMAX =          2.973338890075684E+01
(PID.TID 0000.0001) // CINT =          1.171606996324327E+00
(PID.TID 0000.0001) // SYMBOLS (CMIN->CMAX): -abcdefghijklmnopqrstuvwxyz+
(PID.TID 0000.0001) //                  0.0: .
(PID.TID 0000.0001) // RANGE I (Lo:Hi:Step):(   1:  90:   1)
(PID.TID 0000.0001) // RANGE J (Lo:Hi:Step):(  40:   1:  -1)
(PID.TID 0000.0001) // RANGE K (Lo:Hi:Step):(   1:   1:   1)
(PID.TID 0000.0001) // =======================================================
(PID.TID 0000.0001) K =   1
(PID.TID 0000.0001)                I=10      I=20      I=30      I=40      I=50      I=60      I=70      I=80      I=90
(PID.TID 0000.0001) |--J--|123456789|123456789|123456789|123456789|123456789|123456789|123456789|123456789|123456789|
(PID.TID 0000.0001)     40 bccdd.baa----abdedd..................................................................bbbbb
(PID.TID 0000.0001)     39 ccdddddccbbbaa...ed.....................................................----........bbbbbb
(PID.TID 0000.0001)     38 fffgfedeedddc...........................................................-----......cbbbcde
(PID.TID 0000.0001)     37 ghh..................................................................bc...bbc...edeed.defg
(PID.TID 0000.0001)     36 hh.........................................ddcb....................dcccbabccdd.eefghhihhih
(PID.TID 0000.0001)     35 hh.................................aaab..dddeddd...ffggg...........ccc....ddeeeffghijjjjih
(PID.TID 0000.0001)     34 ...................................babb.deeeeeee.ffffgghh..................ccdffghijkkkj..
(PID.TID 0000.0001)     33 ....................................accdddeeeeefffffgghhiii.................bcfijkkllllkk.
(PID.TID 0000.0001)     32 ....................................bdddeffgffgghhhhhiiijjj................dccglmnmmmmlll.
(PID.TID 0000.0001)     31 ....................................fghiiiijjjjjjkkkkklllkk..............ikkjjmooooonnmm..
(PID.TID 0000.0001)     30 ...................................mmmnmmmmmmmmmmmmmnnnnnmm............moqrrrqrqqqpppooo..
(PID.TID 0000.0001)     29 .................................pqqqqqpppppppppoppoppppponm...........ssssssrrrrrqqqqpp..
(PID.TID 0000.0001)     28 ...............................prssssrrrsssrrrrrrrrrrrrrqqpoo.........uttssstssrssrrrqqq..
(PID.TID 0000.0001)     27 ..............vv..............stuttuuuuutuuuuuuuuuuttttssrrqqq...stuu.vvvuuuuutttttsss....
(PID.TID 0000.0001)     26 ..............vvv...........uuvvvvvwwwwwwwwvvvvvvvvvuuutttsssttv.uuvxxwwwwwwvvvvuuttsr....
(PID.TID 0000.0001)     25 ..............wwwx...xxx...vvvxxxxxyyxxxxxxxxxwwwwwvvvvvuuuuuvwwx...xxxxxxwwwwwwvvutsr....
(PID.TID 0000.0001)     24 ............wwwwxyy.xxyy...wxx.yyyyyyyyyyyxxxxxxxxwwwwwwwvvwwxxyywww.xxxxxxxxxxwwwvvur....
(PID.TID 0000.0001)     23 ............xxxyyyz.xyyy...xxx..yyyyzzyyyyyyyyxxxxxxxxxwwwwwxxxwwwwwx....vwxxxxwwwwwvu....
(PID.TID 0000.0001)     22 w...........xxyyyzyyyyyz...xx.yyzzzzzzzzzzzzzyyzyyyyyyxxwwxxxxwvvvwwxw......yyyyxxxxxxwxxw
(PID.TID 0000.0001)     21 xxx........xxxxyyzzzzzzz+.....zyzzzzzzz++zzzzyyyyyyyyxxwvvwwwwvvvvvvvu........yyyyyyyyyxxx
(PID.TID 0000.0001)     20 xww.......xyyyyxyyzzzzzz+......z.zzzzz+++zzzzzzyyyyyxxxxwvwxwvuuuuuuut.........yyyyxxxxwww
(PID.TID 0000.0001)     19 vvv.......yyyyxwwxyzyyzzzzz...zzz.....++++++z++z+zzzyyyyxxxxwwvvvvvvvu...........yyxxxwwww
(PID.TID 0000.0001)     18 uut.......zzyyywwxyzyyyyzzyzzzzzz...z+z++++zz+++++++zzzyyyyxxwwwvvvvvtt..........yyxxwvvwv
(PID.TID 0000.0001)     17 uus.......z.yyyyyyxyzzyyyyyyyzz.....yzzzzzzzzzzzzzzzzzzyyyyxxwwvuuvvuut.........yyyxxwttvu
(PID.TID 0000.0001)     16 utr......yy.zyyyyxxxxxxxwxxxxy.......yyyyyyyyyyyyyyyyyyyyyyyxxwvvvuuutts........xyyyxwvuuu
(PID.TID 0000.0001)     15 ttrr....xxx.xxxwxwwwwvwwvvvww.........xwxxxxxxxxxxxxxxxxxyyyxwwwvvuttssrr......wxxxxxwwvuu
(PID.TID 0000.0001)     14 ttsq....xyxwwxwvwwwvutuuuuuuu.........wwvwwwwvwvvwwwvwvvwwwwwwvvvuuutssrr.....vwwwwwwwvvvu
(PID.TID 0000.0001)     13 tttr....wwwvvvtttuuuutttssttt.........vvvuuuuuuutttttuuuuuvwwwuuuttttssrr....uvvvvvvvvvvut
(PID.TID 0000.0001)     12 sssssstttutssssrrrrrstrqqrrssqqrrq....uuttssssrrrrrrrrrrrstttssssrssrrqp.....uuuttssttssss
(PID.TID 0000.0001)     11 poprsssrqqqqqrqppooopqpoppppppppppp..sssrrr.rqpppqqqqppppqqqoppqqqqrqqpp....prsrqqqqqppppq
(PID.TID 0000.0001)     10 lllmoooonmnnmnnnnmmmmmmlmmlllmnnnnon.qqqppp.ppppppooooooooonmnnnonnooooo..nmoponnmnnnnnmll
(PID.TID 0000.0001)      9 ihhiiiihhhhhhiiihiiiiihhhiiiijjkkmnllnnnnn.mmmmnnnnmmmmnnmmlklllllklllll.mllmmllkjiijjihhi
(PID.TID 0000.0001)      8 eeeeeeeedefgggffeeffggffffggghiiiijjijklklkkkkkkkklllkkkkjjiiijkjjjjjjkj.kkjjiihggffffedde
(PID.TID 0000.0001)      7 cccccddeedddefeddddddddddefeefffffgggghiiiiiijjjihhgggghhhhhghhhhhhhiiiihiihhgfeddddddcccc
(PID.TID 0000.0001)      6 abbcccddcccccdddddccdddddddccddddddeeeeffggggghhgeddddddeeeeeeefggggghggggffeedccbbbbbbbba
(PID.TID 0000.0001)      5 bbbcccccccccccccccccccccbbccccdddddddcccddeeddeedcbbbbbbccccccdddeeeeeddddddccbbbbaaaaaaab
(PID.TID 0000.0001)      4 bbbbbbbaaabbbbbbbbbbbbaabbabbbbcbbbbbbbbbbbbbbbbbbbabbaaabbbbbbbbbbbbbbbbb..a--aaabbbaaabb
(PID.TID 0000.0001)      3 bbbbaaa-a-............................bbaaaaaaaaaaaaaaaaaaaaaaaaaaaaaaaab..aaaaaaaabbbaaaa
(PID.TID 0000.0001)      2 ..........................................baaaaaaaaaaaa-------aa..aaaa.....aaaaaaaaaaaa...
(PID.TID 0000.0001)      1 ..........................................................................................
(PID.TID 0000.0001) // =======================================================
(PID.TID 0000.0001) // END OF FIELD                                          =
(PID.TID 0000.0001) // =======================================================
(PID.TID 0000.0001) 
(PID.TID 0000.0001)  MDS_READ_FIELD: opening global file: lev_s.bin
(PID.TID 0000.0001) // =======================================================
(PID.TID 0000.0001) // Field Initial Salinity at iteration          1
(PID.TID 0000.0001) // CMIN =          2.975276947021484E+01
(PID.TID 0000.0001) // CMAX =          3.747562789916992E+01
(PID.TID 0000.0001) // CINT =          2.860317936650029E-01
(PID.TID 0000.0001) // SYMBOLS (CMIN->CMAX): -abcdefghijklmnopqrstuvwxyz+
(PID.TID 0000.0001) //                  0.0: .
(PID.TID 0000.0001) // RANGE I (Lo:Hi:Step):(   1:  90:   1)
(PID.TID 0000.0001) // RANGE J (Lo:Hi:Step):(  40:   1:  -1)
(PID.TID 0000.0001) // RANGE K (Lo:Hi:Step):(   1:   1:   1)
(PID.TID 0000.0001) // =======================================================
(PID.TID 0000.0001) K =   1
(PID.TID 0000.0001)                I=10      I=20      I=30      I=40      I=50      I=60      I=70      I=80      I=90
(PID.TID 0000.0001) |--J--|123456789|123456789|123456789|123456789|123456789|123456789|123456789|123456789|123456789|
(PID.TID 0000.0001)     40 qrrrr.oonnooopqtutt..................................................................mnnop
(PID.TID 0000.0001)     39 rssrrrrrrrqqpn...ut.....................................................mmmm........opqqqr
(PID.TID 0000.0001)     38 ssrrqqqqrrqpo...........................................................lkkll......onoqrrs
(PID.TID 0000.0001)     37 ssr..................................................................hg...lln...qppqr.rrrs
(PID.TID 0000.0001)     36 rr.........................................lkji....................feeegikmoop.pqrssssssss
(PID.TID 0000.0001)     35 rr.................................kkkk..lllllki...jijjj...........aa-....opqrrrrrrrssttss
(PID.TID 0000.0001)     34 ...................................jlll.kklllllk.ijkkkjih..................hlpqrqrrsstts..
(PID.TID 0000.0001)     33 ....................................iklkkkkkkkkkjkkjjjjjjii.................jmprrsstttttt.
(PID.TID 0000.0001)     32 ....................................iklllkllllllllkkkkkkkji................gilpstuuttuuut.
(PID.TID 0000.0001)     31 ....................................lmnonnnnoooonnmmmmllkjj..............loopqtvvvuuuuuu..
(PID.TID 0000.0001)     30 ...................................pppppppqqqqpppoooonnmlkk............ptvxwwvvwvvvvvvvu..
(PID.TID 0000.0001)     29 .................................pqqrqqqqqqrrrqqppqqqpponmll...........vxxxxxxwwwwwxwwxw..
(PID.TID 0000.0001)     28 ...............................prrrrrqqrrrrrsrrsrssssssrqonmm.........wxxxxxxxyyyyyyyyxx..
(PID.TID 0000.0001)     27 ..............xx..............prrrrrrrrrssssssstttssssssrqpoop...uwww.wwxxxyyy++zzzzyy....
(PID.TID 0000.0001)     26 ..............wxx...........ppqrrrrrrsssrrstsstttssrrrrrrrqppqqp.wwwvvwwwwwxyy+++zzyxw....
(PID.TID 0000.0001)     25 ..............wxxv...kkk...ooopqrrrrrssrrrrrrrssssqqpppppppppppoo...vvutuuvvwxyyyxxvvu....
(PID.TID 0000.0001)     24 ............uvvwwur.lmlk...nmm.pqqqqrrrrrqqqqrrqqrpppppooooonmmmnooo.uuuuuuttuvvvuvuut....
(PID.TID 0000.0001)     23 ............vvuvtqp.lmml...mln..ppppqpqppppppqpppppppppqppponnnnnoopm....xvuuuvvvvuuut....
(PID.TID 0000.0001)     22 r...........vuttsqqpnppn...mm.oppqqrrqqqqqqppppqqrrrqqqrrppppoopooomjj......uuvvvvvuttssrr
(PID.TID 0000.0001)     21 qmm........ttsssssssrsqon.....opqqqqqqqrrrrqqqssssssrrrrrrrrpqqqppomll........tvvvvuttssrr
(PID.TID 0000.0001)     20 sqq.......sttssrrsrrrrpol......p.qrqpqrrrrrrrstttttsssrrsssrqrrrrqqqpo.........wwwvvvuuutt
(PID.TID 0000.0001)     19 tsr.......ssssrrrrpppppnmmm...oqq.....qrqqsrrstttuuuttssttssrrssrrrrqq...........wwwvuvvvv
(PID.TID 0000.0001)     18 wut.......ssrrrrrqppppppppoooorrr...poqqqprrrttttuuutuuuuuutttttttutsss..........yyxwwxwxx
(PID.TID 0000.0001)     17 wwu.......s.rrrrrrqppppqqqqqqqr.....rrsrqrsssuusrtuuuvvvwwvvvuuuuutttss.........xyzyyyyxxx
(PID.TID 0000.0001)     16 vvt......ss.qrrssrqrqpqrrrrrrr.......ssrrstsstusrsuuuvwwwwxxwwvvvuttttsr........yz+zzzxwww
(PID.TID 0000.0001)     15 utss....stt.rrssstttsrrsrstsr.........ssstttssttsuuttuvvvvwxwwwwwuttsssrr......xyyyyxyyxwv
(PID.TID 0000.0001)     14 utts....sstrrssstuuuuuuuuuutt.........stttuutttttttuttttttuvvvvvvutsrqrrr.....vxxwwwwxwvwv
(PID.TID 0000.0001)     13 uuut....ttttttttuuuuuvtuuuuuu.........ttttuutttttttuutsssstttttstsqrqqppp....uwwwvuvvvutvv
(PID.TID 0000.0001)     12 ttttttttttttttttttttttssuuuuutuuut....tttttttttttsssssrrrrrrrqqqqqppppoo.....rvvuuttttttuu
(PID.TID 0000.0001)     11 rqsttttttttuuttttsssssrrstttttttsss..ttttts.tsssrrrrqqqqqppppoonnooooooo....oruttttsssrqrs
(PID.TID 0000.0001)     10 pppqrssrqqrqpqrssrrqqqqqqrrrrrrrrrrs.sssssr.rssrrqqpppppppooooonnnoooonn..moqrrrqqqqqqqqqq
(PID.TID 0000.0001)      9 oonooooooooonnnooooooooooppppppqqqqqrrrqrq.pppqqqqqppppppppppoooooooooll.lmoqqqqppooooopoo
(PID.TID 0000.0001)      8 nnnoonooooooonnnnnnnoooonoonoooppopqqqqqqqppopppqqqpppppppppppppppooopon.lnopppoooonnnnooo
(PID.TID 0000.0001)      7 ooooooooooopponnnooooooonnnnnonnooooooooopppppppoooooooooopppppppppoopqnnmnoooonnnonnnnnno
(PID.TID 0000.0001)      6 oooonnoonnnnooooooooooooonnnnnnnnnnnnnnnnoooopppooooooooooooooppppppppppoooooooonnnnnmnnnn
(PID.TID 0000.0001)      5 oooonnnnnnnnnnnnnnnnnoooooonnnnnnonnnnnnnnnoooooooooooonnnnnnooooooopoooonoooonnnnnnnooooo
(PID.TID 0000.0001)      4 oooonnnooonnnnnnnnnnnnnnoooooonnnooooonnnooooooooppponnnnmmmnnnnmnnoonnnnn..nnnooooooooooo
(PID.TID 0000.0001)      3 ooonnnnnnn............................nnoooooonnooooonnnnnnnoonnnnnnnnmmm..ooopooooooooooo
(PID.TID 0000.0001)      2 ..........................................pppooooonnnnnnoooppppo..nnnn.....qqqpppoooooo...
(PID.TID 0000.0001)      1 ..........................................................................................
(PID.TID 0000.0001) // =======================================================
(PID.TID 0000.0001) // END OF FIELD                                          =
(PID.TID 0000.0001) // =======================================================
(PID.TID 0000.0001) 
(PID.TID 0000.0001) Start initial hydrostatic pressure computation
(PID.TID 0000.0001) Pressure is predetermined for buoyancyRelation OCEANIC
(PID.TID 0000.0001) 
(PID.TID 0000.0001)  MDS_READ_FIELD: opening global file: trenberth_taux.bin
(PID.TID 0000.0001)  MDS_READ_FIELD: opening global file: trenberth_tauy.bin
(PID.TID 0000.0001)  MDS_READ_FIELD: opening global file: ncep_qnet.bin
(PID.TID 0000.0001)  MDS_READ_FIELD: opening global file: lev_sst.bin
(PID.TID 0000.0001)  MDS_READ_FIELD: opening global file: lev_sss.bin
(PID.TID 0000.0001)  MDS_READ_FIELD: opening file: xx_theta.0000000000.001.001.data
(PID.TID 0000.0001)  MDS_READ_FIELD: opening file: xx_salt.0000000000.001.001.data
(PID.TID 0000.0001)  MDS_READ_FIELD: opening file: xx_diffkr.0000000000.001.001.data
(PID.TID 0000.0001)  MDS_READ_FIELD: opening file: xx_kapgm.0000000000.001.001.data
(PID.TID 0000.0001) // =======================================================
(PID.TID 0000.0001) // Model current state
(PID.TID 0000.0001) // =======================================================
(PID.TID 0000.0001) 
S/R EXTERNAL_FIELDS_LOAD: Reading new data:   12    1         0  0.000000000000E+00
(PID.TID 0000.0001)  MDS_READ_FIELD: opening global file: trenberth_taux.bin
(PID.TID 0000.0001)  MDS_READ_FIELD: opening global file: trenberth_taux.bin
(PID.TID 0000.0001)  MDS_READ_FIELD: opening global file: trenberth_tauy.bin
(PID.TID 0000.0001)  MDS_READ_FIELD: opening global file: trenberth_tauy.bin
(PID.TID 0000.0001)  MDS_READ_FIELD: opening global file: ncep_qnet.bin
(PID.TID 0000.0001)  MDS_READ_FIELD: opening global file: ncep_qnet.bin
(PID.TID 0000.0001)  MDS_READ_FIELD: opening global file: lev_sst.bin
(PID.TID 0000.0001)  MDS_READ_FIELD: opening global file: lev_sst.bin
(PID.TID 0000.0001)  MDS_READ_FIELD: opening global file: lev_sss.bin
(PID.TID 0000.0001)  MDS_READ_FIELD: opening global file: lev_sss.bin
time,SST,SSS,fu,fv,Q,E-P,i0,i1,a,b =   0.0000E+00  5.3151E-02  3.4364E+01 -4.0500E-02 -6.3753E-02  2.6510E+02  0.0000E+00    12     1  5.0000E-01  5.0000E-01
time,fu0,fu1,fu =   0.0000E+00 -4.5368E-02 -3.5633E-02 -4.0500E-02  5.000000000000000E-01  5.000000000000000E-01
(PID.TID 0000.0001)  MDS_READ_FIELD: opening file: xx_tauu.0000000000.001.001.data
(PID.TID 0000.0001)  MDS_READ_FIELD: opening file: xx_tauv.0000000000.001.001.data
(PID.TID 0000.0001)  MDS_READ_FIELD: opening file: xx_sflux.0000000000.001.001.data
(PID.TID 0000.0001)  MDS_READ_FIELD: opening file: xx_hflux.0000000000.001.001.data
 ph-test a  1 1
 ph-test b  1
 ph-test a  1 2
 ph-test b  1
 ph-test a  1 3
 ph-test b  1
 ph-test a  1 4
 ph-test b  1
 ph-test a  1 5
 ph-test b  1
 ph-test a  1 6
 ph-test b  1
 ph-test a  1 7
 ph-test b  1
 ph-test a  1 8
 ph-test b  1
 ph-test a  1 9
 ph-test b  1
 ph-test a  1 10
 ph-test b  1
 ph-test a  1 11
 ph-test b  1
 ph-test a  1 12
 ph-test b  1
 ph-test a  1 13
 ph-test b  1
 ph-test a  1 14
 ph-test b  1
 ph-test a  1 15
 ph-test b  1
 cg2d: Sum(rhs),rhsMax =   1.05956909912663E-14  2.53674886388737E+00
time,SST,SSS,fu,fv,Q,E-P,i0,i1,a,b =   4.3200E+04  8.3327E-02  3.4375E+01 -4.0338E-02 -6.3536E-02  2.6512E+02  0.0000E+00    12     1  5.1667E-01  4.8333E-01
time,fu0,fu1,fu =   4.3200E+04 -4.5368E-02 -3.5633E-02 -4.0338E-02  5.166666666666667E-01  4.833333333333333E-01
 ph-test a  1 1
 ph-test b  1
 ph-test a  1 2
 ph-test b  1
 ph-test a  1 3
 ph-test b  1
 ph-test a  1 4
 ph-test b  1
 ph-test a  1 5
 ph-test b  1
 ph-test a  1 6
 ph-test b  1
 ph-test a  1 7
 ph-test b  1
 ph-test a  1 8
 ph-test b  1
 ph-test a  1 9
 ph-test b  1
 ph-test a  1 10
 ph-test b  1
 ph-test a  1 11
 ph-test b  1
 ph-test a  1 12
 ph-test b  1
 ph-test a  1 13
 ph-test b  1
 ph-test a  1 14
 ph-test b  1
 ph-test a  1 15
 ph-test b  1
 cg2d: Sum(rhs),rhsMax =  -1.16920362280837E-14  4.94099340918605E+00
time,SST,SSS,fu,fv,Q,E-P,i0,i1,a,b =   8.6400E+04  1.1350E-01  3.4387E+01 -4.0176E-02 -6.3320E-02  2.6514E+02  0.0000E+00    12     1  5.3333E-01  4.6667E-01
time,fu0,fu1,fu =   8.6400E+04 -4.5368E-02 -3.5633E-02 -4.0176E-02  5.333333333333333E-01  4.666666666666667E-01
 ph-test a  1 1
 ph-test b  1
 ph-test a  1 2
 ph-test b  1
 ph-test a  1 3
 ph-test b  1
 ph-test a  1 4
 ph-test b  1
 ph-test a  1 5
 ph-test b  1
 ph-test a  1 6
 ph-test b  1
 ph-test a  1 7
 ph-test b  1
 ph-test a  1 8
 ph-test b  1
 ph-test a  1 9
 ph-test b  1
 ph-test a  1 10
 ph-test b  1
 ph-test a  1 11
 ph-test b  1
 ph-test a  1 12
 ph-test b  1
 ph-test a  1 13
 ph-test b  1
 ph-test a  1 14
 ph-test b  1
 ph-test a  1 15
 ph-test b  1
 cg2d: Sum(rhs),rhsMax =  -9.37097621722671E-15  6.30201510737097E+00
time,SST,SSS,fu,fv,Q,E-P,i0,i1,a,b =   1.2960E+05  1.4368E-01  3.4399E+01 -4.0014E-02 -6.3103E-02  2.6516E+02  0.0000E+00    12     1  5.5000E-01  4.5000E-01
time,fu0,fu1,fu =   1.2960E+05 -4.5368E-02 -3.5633E-02 -4.0014E-02  5.500000000000000E-01  4.500000000000000E-01
 ph-test a  1 1
 ph-test b  1
 ph-test a  1 2
 ph-test b  1
 ph-test a  1 3
 ph-test b  1
 ph-test a  1 4
 ph-test b  1
 ph-test a  1 5
 ph-test b  1
 ph-test a  1 6
 ph-test b  1
 ph-test a  1 7
 ph-test b  1
 ph-test a  1 8
 ph-test b  1
 ph-test a  1 9
 ph-test b  1
 ph-test a  1 10
 ph-test b  1
 ph-test a  1 11
 ph-test b  1
 ph-test a  1 12
 ph-test b  1
 ph-test a  1 13
 ph-test b  1
 ph-test a  1 14
 ph-test b  1
 ph-test a  1 15
 ph-test b  1
 cg2d: Sum(rhs),rhsMax =  -1.64104840827406E-15  6.81670284430948E+00
time,SST,SSS,fu,fv,Q,E-P,i0,i1,a,b =   1.7280E+05  1.7385E-01  3.4410E+01 -3.9851E-02 -6.2886E-02  2.6519E+02  0.0000E+00    12     1  5.6667E-01  4.3333E-01
time,fu0,fu1,fu =   1.7280E+05 -4.5368E-02 -3.5633E-02 -3.9851E-02  5.666666666666667E-01  4.333333333333333E-01
 ph-test a  1 1
 ph-test b  1
 ph-test a  1 2
 ph-test b  1
 ph-test a  1 3
 ph-test b  1
 ph-test a  1 4
 ph-test b  1
 ph-test a  1 5
 ph-test b  1
 ph-test a  1 6
 ph-test b  1
 ph-test a  1 7
 ph-test b  1
 ph-test a  1 8
 ph-test b  1
 ph-test a  1 9
 ph-test b  1
 ph-test a  1 10
 ph-test b  1
 ph-test a  1 11
 ph-test b  1
 ph-test a  1 12
 ph-test b  1
 ph-test a  1 13
 ph-test b  1
 ph-test a  1 14
 ph-test b  1
 ph-test a  1 15
 ph-test b  1
 cg2d: Sum(rhs),rhsMax =  -1.59837421076503E-14  6.91786915802128E+00
time,SST,SSS,fu,fv,Q,E-P,i0,i1,a,b =   2.1600E+05  2.0403E-01  3.4422E+01 -3.9689E-02 -6.2670E-02  2.6521E+02  0.0000E+00    12     1  5.8333E-01  4.1667E-01
time,fu0,fu1,fu =   2.1600E+05 -4.5368E-02 -3.5633E-02 -3.9689E-02  5.833333333333334E-01  4.166666666666666E-01
 ph-test a  1 1
 ph-test b  1
 ph-test a  1 2
 ph-test b  1
 ph-test a  1 3
 ph-test b  1
 ph-test a  1 4
 ph-test b  1
 ph-test a  1 5
 ph-test b  1
 ph-test a  1 6
 ph-test b  1
 ph-test a  1 7
 ph-test b  1
 ph-test a  1 8
 ph-test b  1
 ph-test a  1 9
 ph-test b  1
 ph-test a  1 10
 ph-test b  1
 ph-test a  1 11
 ph-test b  1
 ph-test a  1 12
 ph-test b  1
 ph-test a  1 13
 ph-test b  1
 ph-test a  1 14
 ph-test b  1
 ph-test a  1 15
 ph-test b  1
 cg2d: Sum(rhs),rhsMax =   4.55382259678672E-14  6.87448893655103E+00
time,SST,SSS,fu,fv,Q,E-P,i0,i1,a,b =   2.5920E+05  2.3421E-01  3.4434E+01 -3.9527E-02 -6.2453E-02  2.6523E+02  0.0000E+00    12     1  6.0000E-01  4.0000E-01
time,fu0,fu1,fu =   2.5920E+05 -4.5368E-02 -3.5633E-02 -3.9527E-02  6.000000000000000E-01  4.000000000000000E-01
 ph-test a  1 1
 ph-test b  1
 ph-test a  1 2
 ph-test b  1
 ph-test a  1 3
 ph-test b  1
 ph-test a  1 4
 ph-test b  1
 ph-test a  1 5
 ph-test b  1
 ph-test a  1 6
 ph-test b  1
 ph-test a  1 7
 ph-test b  1
 ph-test a  1 8
 ph-test b  1
 ph-test a  1 9
 ph-test b  1
 ph-test a  1 10
 ph-test b  1
 ph-test a  1 11
 ph-test b  1
 ph-test a  1 12
 ph-test b  1
 ph-test a  1 13
 ph-test b  1
 ph-test a  1 14
 ph-test b  1
 ph-test a  1 15
 ph-test b  1
 cg2d: Sum(rhs),rhsMax =  -1.19236218121266E-14  7.24604825999479E+00
time,SST,SSS,fu,fv,Q,E-P,i0,i1,a,b =   3.0240E+05  2.6438E-01  3.4446E+01 -3.9365E-02 -6.2237E-02  2.6525E+02  0.0000E+00    12     1  6.1667E-01  3.8333E-01
time,fu0,fu1,fu =   3.0240E+05 -4.5368E-02 -3.5633E-02 -3.9365E-02  6.166666666666667E-01  3.833333333333333E-01
 ph-test a  1 1
 ph-test b  1
 ph-test a  1 2
 ph-test b  1
 ph-test a  1 3
 ph-test b  1
 ph-test a  1 4
 ph-test b  1
 ph-test a  1 5
 ph-test b  1
 ph-test a  1 6
 ph-test b  1
 ph-test a  1 7
 ph-test b  1
 ph-test a  1 8
 ph-test b  1
 ph-test a  1 9
 ph-test b  1
 ph-test a  1 10
 ph-test b  1
 ph-test a  1 11
 ph-test b  1
 ph-test a  1 12
 ph-test b  1
 ph-test a  1 13
 ph-test b  1
 ph-test a  1 14
 ph-test b  1
 ph-test a  1 15
 ph-test b  1
 cg2d: Sum(rhs),rhsMax =  -2.04997911007476E-13  7.86362075184324E+00
time,SST,SSS,fu,fv,Q,E-P,i0,i1,a,b =   3.4560E+05  2.9456E-01  3.4457E+01 -3.9202E-02 -6.2020E-02  2.6528E+02  0.0000E+00    12     1  6.3333E-01  3.6667E-01
time,fu0,fu1,fu =   3.4560E+05 -4.5368E-02 -3.5633E-02 -3.9202E-02  6.333333333333333E-01  3.666666666666667E-01
 ph-test a  1 1
 ph-test b  1
 ph-test a  1 2
 ph-test b  1
 ph-test a  1 3
 ph-test b  1
 ph-test a  1 4
 ph-test b  1
 ph-test a  1 5
 ph-test b  1
 ph-test a  1 6
 ph-test b  1
 ph-test a  1 7
 ph-test b  1
 ph-test a  1 8
 ph-test b  1
 ph-test a  1 9
 ph-test b  1
 ph-test a  1 10
 ph-test b  1
 ph-test a  1 11
 ph-test b  1
 ph-test a  1 12
 ph-test b  1
 ph-test a  1 13
 ph-test b  1
 ph-test a  1 14
 ph-test b  1
 ph-test a  1 15
 ph-test b  1
 cg2d: Sum(rhs),rhsMax =  -7.38959674700945E-14  8.20455160636555E+00
time,SST,SSS,fu,fv,Q,E-P,i0,i1,a,b =   3.8880E+05  3.2473E-01  3.4469E+01 -3.9040E-02 -6.1804E-02  2.6530E+02  0.0000E+00    12     1  6.5000E-01  3.5000E-01
time,fu0,fu1,fu =   3.8880E+05 -4.5368E-02 -3.5633E-02 -3.9040E-02  6.500000000000000E-01  3.500000000000000E-01
 ph-test a  1 1
 ph-test b  1
 ph-test a  1 2
 ph-test b  1
 ph-test a  1 3
 ph-test b  1
 ph-test a  1 4
 ph-test b  1
 ph-test a  1 5
 ph-test b  1
 ph-test a  1 6
 ph-test b  1
 ph-test a  1 7
 ph-test b  1
 ph-test a  1 8
 ph-test b  1
 ph-test a  1 9
 ph-test b  1
 ph-test a  1 10
 ph-test b  1
 ph-test a  1 11
 ph-test b  1
 ph-test a  1 12
 ph-test b  1
 ph-test a  1 13
 ph-test b  1
 ph-test a  1 14
 ph-test b  1
 ph-test a  1 15
 ph-test b  1
 cg2d: Sum(rhs),rhsMax =   1.20232166236911E-13  8.29866218269599E+00
(PID.TID 0000.0001) %CHECKPOINT        10 ckptB
 --> objf_test(bi,bj)   =  0.000000000000000E+00
 --> objf_tracer(bi,bj) =  0.000000000000000E+00
 --> objf_atl(bi,bj)    = -0.456641580719377E-01
  local fc = -0.456641580719377E-01
 global fc = -0.456641580719377E-01
(PID.TID 0000.0001)  MDS_READ_FIELD: opening file: xx_theta.0000000000.001.001.data
grad-res -------------------------------
 grad-res     0    2   77   27    1    1    1    1   -.456642955874E-01 -.456644330827E-01 -.456641580719E-01
 grad-res     0    2    2 1873 2315    1    1    1   -.137505799175E-04 -.137505392468E-04 0.295774644588E-05
(PID.TID 0000.0001)   ADM  precision_derivative_cost =   -4.56642955874078E-02
(PID.TID 0000.0001)   ADM  precision_derivative_grad =   -1.37505799175496E-05
 ph-grd  ierr ---------------------------
 ph-grd  ierr =  0, icomp =  1873, ichknum =  2
 ph-grd -->hit<--  78 27 1 1
(PID.TID 0000.0001)  MDS_READ_FIELD: opening file: adxx_theta.0000000000.001.001.data
(PID.TID 0000.0001)  MDS_READ_FIELD: opening file: xx_theta.0000000000.001.001.data
(PID.TID 0000.0001)  MDS_READ_FIELD: opening global file: bathymetry.bin
(PID.TID 0000.0001) // =======================================================
(PID.TID 0000.0001) // Field Model R_low (ini_masks_etc) at iteration          1
(PID.TID 0000.0001) // CMIN =         -5.200000000000000E+03
(PID.TID 0000.0001) // CMAX =         -1.200000000000000E+02
(PID.TID 0000.0001) // CINT =          1.881481481481482E+02
(PID.TID 0000.0001) // SYMBOLS (CMIN->CMAX): -abcdefghijklmnopqrstuvwxyz+
(PID.TID 0000.0001) //                  0.0: .
(PID.TID 0000.0001) // RANGE I (Lo:Hi:Step):(  -2:  93:   1)
(PID.TID 0000.0001) // RANGE J (Lo:Hi:Step):(  43:  -2:  -1)
(PID.TID 0000.0001) // RANGE K (Lo:Hi:Step):(   1:   1:   1)
(PID.TID 0000.0001) // =======================================================
(PID.TID 0000.0001) K =   1
(PID.TID 0000.0001) //                I=7       I=17      I=27      I=37      I=47      I=57      I=67      I=77      I=87
(PID.TID 0000.0001) // |--J--|210123456|890123456|890123456|890123456|890123456|890123456|890123456|890123456|890123456|890123
(PID.TID 0000.0001) //     43 ................................................................................................
(PID.TID 0000.0001) //     42 .............................................zyxxmgfeeefefgimnpwwwy..+zyy.....yyyyoiiihhz+......
(PID.TID 0000.0001) //     41 ................................................................................................
(PID.TID 0000.0001) //     40 +qlloqz+.++++zzz++++++..................................................................+++qlloq
(PID.TID 0000.0001) //     39 uslloorzzzzzzzzz+...++.....................................................yxxz........+zvuslloo
(PID.TID 0000.0001) //     38 smqpporzzzzzz+++...........................................................zxxy+......zyyvsmqppo
(PID.TID 0000.0001) //     37 smmmuz..................................................................++...zy+...yttyy.+smmmuz
(PID.TID 0000.0001) //     36 yutt+.........................................mm++....................+++++++znmm.yoowssvuyutt+.
(PID.TID 0000.0001) //     35 w++++.................................+zzz..rrmmkk+...+gghn...........+++....+nmiijlsoopuww++++.
(PID.TID 0000.0001) //     34 +.....................................+vvy.ggqyxv+y.ccdffhim..................+nihhikkihhm+.....
(PID.TID 0000.0001) //     33 w+.....................................uuz---h------aaabdefin+.................zqvddflifffw+....
(PID.TID 0000.0001) //     32 m+.....................................+t----h---------acdfgnn................+++gdffkofffm+....
(PID.TID 0000.0001) //     31 m......................................-----ad--------abddegil..............qbaafccdhqqgddm.....
(PID.TID 0000.0001) //     30 i.....................................f----b--b------------abd............zfbb--fbcdosjfddi.....
(PID.TID 0000.0001) //     29 i...................................tu----e---fjg----------abdf...........eaac--abfmijaadgi.....
(PID.TID 0000.0001) //     28 z.................................+xfl-------------------bdedefi.........qbaa---aemfbbaaejz.....
(PID.TID 0000.0001) //     27 .................xx..............+wfgfpf--------eallc---bbbccefgi...+++x.qb-----akfa---ah.......
(PID.TID 0000.0001) //     26 .................xnn...........+vd---dna------a--aicfna---aabdfghku.++xssuy-----bgca---ci.......
(PID.TID 0000.0001) //     25 .................iiik...oo+...+ivd---doaa-bc--ilglf--aa---aabcghhkll...ssum+xaaacjbaabdjk.......
(PID.TID 0000.0001) //     24 ...............xnheeft.kkk+...uii.aagdm----aa-----a-------bbbcdefjljjju.zummwwbbchba--abi.......
(PID.TID 0000.0001) //     23 ...............xgheefp.iikw...uuw..fihi----fed-----eaaa--bbbbcdfflkjiiiq....zykccefa--abd.......
(PID.TID 0000.0001) //     22 quss...........bbelffslffkk...zz.wqkeeqoheccdfa-----egabaabcdddegghliiiqq......xeeehheehccquss..
(PID.TID 0000.0001) //     21 cbbeir........nbbcdjhqdddiiz.....wqfeelgghmedea-----bibbcddddddefghklnqoo........ieeflhgcccbbeir
(PID.TID 0000.0001) //     20 cbbder.......ldcccdgkccccidd......z.vkkktqqhegg----aaacddddddddefghkiiijl.........nhfa--gfcbbder
(PID.TID 0000.0001) //     19 hcdaaf.......kddosggpaaaibbccx...+z+.....r+nlec---agaaabcddccddefikfgffff...........d---cjhcdaaf
(PID.TID 0000.0001) //     18 hd---d.......kglggvliaaaibbcaaeaiv++...qqzolhecccfdgkaabcdfccdeeikgfgffdd+..........d---djhd---d
(PID.TID 0000.0001) //     17 hc---c.......l.feewlfaaaoaa----aiv.....qqnllslmlofcdbaacceffffhhligfigeddj.........hd---ckhc---c
(PID.TID 0000.0001) //     16 gba--c......tn.ddgnlfdaaqa-----lv.......vnllvllnwv--accivomfffhilhgfffeddjf........re--aeigba--c
(PID.TID 0000.0001) //     15 fb--dpz....+ll.ccdfhmdddlc----av.........otsxoomv---abccddfihgijkhgfffeejfff......+fd---ckfb--dp
(PID.TID 0000.0001) //     14 fc--mcl....weeqbaafilkfend--eagy.........hhstofft----aacdheefijkmjhhjijiffff.....zlfdaaadlfc--mc
(PID.TID 0000.0001) //     13 hcclbbg....nccobaaiddgkffqrqeaal.........eeutqfft------aaceeffhijlkjhhigfffq....+jgfodccflhcclbb
(PID.TID 0000.0001) //     12 hhgaaacw+iiicclemhdddfliigfdcaabfaaaz....ccsurqpc--------abcifffikiiihhggff.....kbbbdfffglhhgaaa
(PID.TID 0000.0001) //     11 kgcaaacbbifccennhbbdefnihgfdccaaaa----..dcccnt.ncab-------aabcdfilhggjiggff....l---abcefjlkgcaaa
(PID.TID 0000.0001) //     10 kfcaaccbdaacfrllfbbdegkmmljhfdddba----d.dcccfx.nyrebaba----abcdgilhfeegijgi..+w--aa-abcfilkfcaac
(PID.TID 0000.0001) //      9 lffcdcccaaaoqsolfdeehikihhlllgfedcccccdmdcccf.vyfaaaaaaaa--abdehmjhfeeefglv.++w-----abcdfklffcdc
(PID.TID 0000.0001) //      8 liffjklcaafddffeeccvznkfffhhhlkjifgjkkfeeddfsyvcaaaaaaccdcccdfgjligedbbceg+.++xffn--cfddefliffjk
(PID.TID 0000.0001) //      7 hmqnnbbkkf--bmbaabbgtykfddeffeeddccdfhlffeelfbaaaaaacddeghgjgjlligeddaaabedfiiiiiisvkfkecchmqnnb
(PID.TID 0000.0001) //      6 cca-------------aabcelttdddedddddccccdfkkiiffbaaaabcdgimmkmefecaaabbbaaabbdfiiiiispmmregifcca---
(PID.TID 0000.0001) //      5 --------a-------aaccehhhiddeddddddcccdfiikomodddefffmlmigedccaaaaaaaababbbdfiijsqgeccccbaa------
(PID.TID 0000.0001) //      4 --ahebaabbbbbeihffgijiiiijpywnnpokkomkiiijmmmolkommmgffeeedccaaaaaabbcccefhmz..yjgeccccbaa--aheb
(PID.TID 0000.0001) //      3 gffhhrpjiiwyy............................yxotmjjjjgfeeeeeeddeffffheddeghjkyy..yqjgeddccdbbgffhhr
(PID.TID 0000.0001) //      2 .............................................zyxxmgfeeefefgimnpwwwy..+zyy.....yyyyoiiihhz+......
(PID.TID 0000.0001) //      1 ................................................................................................
(PID.TID 0000.0001) //      0 +qlloqz+.++++zzz++++++..................................................................+++qlloq
(PID.TID 0000.0001) //     -1 uslloorzzzzzzzzz+...++.....................................................yxxz........+zvuslloo
(PID.TID 0000.0001) //     -2 ................................................................................................
(PID.TID 0000.0001) // =======================================================
(PID.TID 0000.0001) // END OF FIELD                                          =
(PID.TID 0000.0001) // =======================================================
(PID.TID 0000.0001) 
(PID.TID 0000.0001) // =======================================================
(PID.TID 0000.0001) // Field Model Ro_surf (ini_masks_etc) at iteration          1
(PID.TID 0000.0001) // CMIN =          1.000000000000000E+32
(PID.TID 0000.0001) // CMAX =         -1.000000000000000E+32
(PID.TID 0000.0001) // CINT =          0.000000000000000E+00
(PID.TID 0000.0001) // SYMBOLS (CMIN->CMAX): -abcdefghijklmnopqrstuvwxyz+
(PID.TID 0000.0001) //                  0.0: .
(PID.TID 0000.0001) // RANGE I (Lo:Hi:Step):(  -2:  93:   1)
(PID.TID 0000.0001) // RANGE J (Lo:Hi:Step):(  43:  -2:  -1)
(PID.TID 0000.0001) // RANGE K (Lo:Hi:Step):(   1:   1:   1)
(PID.TID 0000.0001) // =======================================================
(PID.TID 0000.0001) // =======================================================
(PID.TID 0000.0001) // END OF FIELD                                          =
(PID.TID 0000.0001) // =======================================================
(PID.TID 0000.0001) 
(PID.TID 0000.0001) // =======================================================
(PID.TID 0000.0001) // Field hFacC at iteration          1
(PID.TID 0000.0001) // CMIN =          1.000000000000000E+00
(PID.TID 0000.0001) // CMAX =          1.000000000000000E+00
(PID.TID 0000.0001) // CINT =          0.000000000000000E+00
(PID.TID 0000.0001) // SYMBOLS (CMIN->CMAX): -abcdefghijklmnopqrstuvwxyz+
(PID.TID 0000.0001) //                  0.0: .
(PID.TID 0000.0001) // RANGE I (Lo:Hi:Step):(  -2:  93:   1)
(PID.TID 0000.0001) // RANGE J (Lo:Hi:Step):(  43:  -2:  -1)
(PID.TID 0000.0001) // RANGE K (Lo:Hi:Step):(   1:   1:   1)
(PID.TID 0000.0001) // =======================================================
(PID.TID 0000.0001) // =======================================================
(PID.TID 0000.0001) // END OF FIELD                                          =
(PID.TID 0000.0001) // =======================================================
(PID.TID 0000.0001) 
(PID.TID 0000.0001) // =======================================================
(PID.TID 0000.0001) // Field hFacW at iteration          1
(PID.TID 0000.0001) // CMIN =          1.000000000000000E+00
(PID.TID 0000.0001) // CMAX =          1.000000000000000E+00
(PID.TID 0000.0001) // CINT =          0.000000000000000E+00
(PID.TID 0000.0001) // SYMBOLS (CMIN->CMAX): -abcdefghijklmnopqrstuvwxyz+
(PID.TID 0000.0001) //                  0.0: .
(PID.TID 0000.0001) // RANGE I (Lo:Hi:Step):(  -2:  93:   1)
(PID.TID 0000.0001) // RANGE J (Lo:Hi:Step):(  43:  -2:  -1)
(PID.TID 0000.0001) // RANGE K (Lo:Hi:Step):(   1:   1:   1)
(PID.TID 0000.0001) // =======================================================
(PID.TID 0000.0001) // =======================================================
(PID.TID 0000.0001) // END OF FIELD                                          =
(PID.TID 0000.0001) // =======================================================
(PID.TID 0000.0001) 
(PID.TID 0000.0001) // =======================================================
(PID.TID 0000.0001) // Field hFacS at iteration          1
(PID.TID 0000.0001) // CMIN =          1.000000000000000E+00
(PID.TID 0000.0001) // CMAX =          1.000000000000000E+00
(PID.TID 0000.0001) // CINT =          0.000000000000000E+00
(PID.TID 0000.0001) // SYMBOLS (CMIN->CMAX): -abcdefghijklmnopqrstuvwxyz+
(PID.TID 0000.0001) //                  0.0: .
(PID.TID 0000.0001) // RANGE I (Lo:Hi:Step):(  -2:  93:   1)
(PID.TID 0000.0001) // RANGE J (Lo:Hi:Step):(  43:  -2:  -1)
(PID.TID 0000.0001) // RANGE K (Lo:Hi:Step):(   1:   1:   1)
(PID.TID 0000.0001) // =======================================================
(PID.TID 0000.0001) // =======================================================
(PID.TID 0000.0001) // END OF FIELD                                          =
(PID.TID 0000.0001) // =======================================================
(PID.TID 0000.0001) 
(PID.TID 0000.0001) %MON ad_advcflfCori_max           =   1.4226580169407E-04
(PID.TID 0000.0001) %MON ad_advcflfCori_min           =  -1.4226580169407E-04
(PID.TID 0000.0001) %MON ad_advcflfCori_mean          =   7.5291817533716E-23
(PID.TID 0000.0001) %MON ad_advcflfCori_sd            =   9.6335367303778E-05
(PID.TID 0000.0001) %MON ad_advcflfCoriG_max          =   1.4112379284621E-04
(PID.TID 0000.0001) %MON ad_advcflfCoriG_min          =  -1.4323448157692E-04
(PID.TID 0000.0001) %MON ad_advcflfCoriG_mean         =  -3.5808620394229E-06
(PID.TID 0000.0001) %MON ad_advcflfCoriG_sd           =   9.6285194120965E-05
(PID.TID 0000.0001) %MON ad_advcflfCoriCos_max        =   1.4535550371427E-04
(PID.TID 0000.0001) %MON ad_advcflfCoriCos_min        =   3.0239529651320E-05
(PID.TID 0000.0001) %MON ad_advcflfCoriCos_mean       =   1.0260497651149E-04
(PID.TID 0000.0001) %MON ad_advcflfCoriCos_sd         =   3.6683828681187E-05
(PID.TID 0000.0001) INI_CG2D: CG2D normalisation factor =  6.5682677425711703E-05
(PID.TID 0000.0001) 
(PID.TID 0000.0001)  MDS_READ_FIELD: opening global file: lev_t.bin
(PID.TID 0000.0001) // =======================================================
(PID.TID 0000.0001) // Field Initial Temperature at iteration          1
(PID.TID 0000.0001) // CMIN =         -1.900000000000000E+00
(PID.TID 0000.0001) // CMAX =          2.973338890075684E+01
(PID.TID 0000.0001) // CINT =          1.171606996324327E+00
(PID.TID 0000.0001) // SYMBOLS (CMIN->CMAX): -abcdefghijklmnopqrstuvwxyz+
(PID.TID 0000.0001) //                  0.0: .
(PID.TID 0000.0001) // RANGE I (Lo:Hi:Step):(   1:  90:   1)
(PID.TID 0000.0001) // RANGE J (Lo:Hi:Step):(  40:   1:  -1)
(PID.TID 0000.0001) // RANGE K (Lo:Hi:Step):(   1:   1:   1)
(PID.TID 0000.0001) // =======================================================
(PID.TID 0000.0001) K =   1
(PID.TID 0000.0001)                I=10      I=20      I=30      I=40      I=50      I=60      I=70      I=80      I=90
(PID.TID 0000.0001) |--J--|123456789|123456789|123456789|123456789|123456789|123456789|123456789|123456789|123456789|
(PID.TID 0000.0001)     40 bccdd.baa----abdedd..................................................................bbbbb
(PID.TID 0000.0001)     39 ccdddddccbbbaa...ed.....................................................----........bbbbbb
(PID.TID 0000.0001)     38 fffgfedeedddc...........................................................-----......cbbbcde
(PID.TID 0000.0001)     37 ghh..................................................................bc...bbc...edeed.defg
(PID.TID 0000.0001)     36 hh.........................................ddcb....................dcccbabccdd.eefghhihhih
(PID.TID 0000.0001)     35 hh.................................aaab..dddeddd...ffggg...........ccc....ddeeeffghijjjjih
(PID.TID 0000.0001)     34 ...................................babb.deeeeeee.ffffgghh..................ccdffghijkkkj..
(PID.TID 0000.0001)     33 ....................................accdddeeeeefffffgghhiii.................bcfijkkllllkk.
(PID.TID 0000.0001)     32 ....................................bdddeffgffgghhhhhiiijjj................dccglmnmmmmlll.
(PID.TID 0000.0001)     31 ....................................fghiiiijjjjjjkkkkklllkk..............ikkjjmooooonnmm..
(PID.TID 0000.0001)     30 ...................................mmmnmmmmmmmmmmmmmnnnnnmm............moqrrrqrqqqpppooo..
(PID.TID 0000.0001)     29 .................................pqqqqqpppppppppoppoppppponm...........ssssssrrrrrqqqqpp..
(PID.TID 0000.0001)     28 ...............................prssssrrrsssrrrrrrrrrrrrrqqpoo.........uttssstssrssrrrqqq..
(PID.TID 0000.0001)     27 ..............vv..............stuttuuuuutuuuuuuuuuuttttssrrqqq...stuu.vvvuuuuutttttsss....
(PID.TID 0000.0001)     26 ..............vvv...........uuvvvvvwwwwwwwwvvvvvvvvvuuutttsssttv.uuvxxwwwwwwvvvvuuttsr....
(PID.TID 0000.0001)     25 ..............wwwx...xxx...vvvxxxxxyyxxxxxxxxxwwwwwvvvvvuuuuuvwwx...xxxxxxwwwwwwvvutsr....
(PID.TID 0000.0001)     24 ............wwwwxyy.xxyy...wxx.yyyyyyyyyyyxxxxxxxxwwwwwwwvvwwxxyywww.xxxxxxxxxxwwwvvur....
(PID.TID 0000.0001)     23 ............xxxyyyz.xyyy...xxx..yyyyzzyyyyyyyyxxxxxxxxxwwwwwxxxwwwwwx....vwxxxxwwwwwvu....
(PID.TID 0000.0001)     22 w...........xxyyyzyyyyyz...xx.yyzzzzzzzzzzzzzyyzyyyyyyxxwwxxxxwvvvwwxw......yyyyxxxxxxwxxw
(PID.TID 0000.0001)     21 xxx........xxxxyyzzzzzzz+.....zyzzzzzzz++zzzzyyyyyyyyxxwvvwwwwvvvvvvvu........yyyyyyyyyxxx
(PID.TID 0000.0001)     20 xww.......xyyyyxyyzzzzzz+......z.zzzzz+++zzzzzzyyyyyxxxxwvwxwvuuuuuuut.........yyyyxxxxwww
(PID.TID 0000.0001)     19 vvv.......yyyyxwwxyzyyzzzzz...zzz.....++++++z++z+zzzyyyyxxxxwwvvvvvvvu...........yyxxxwwww
(PID.TID 0000.0001)     18 uut.......zzyyywwxyzyyyyzzyzzzzzz...z+z++++zz+++++++zzzyyyyxxwwwvvvvvtt..........yyxxwvvwv
(PID.TID 0000.0001)     17 uus.......z.yyyyyyxyzzyyyyyyyzz.....yzzzzzzzzzzzzzzzzzzyyyyxxwwvuuvvuut.........yyyxxwttvu
(PID.TID 0000.0001)     16 utr......yy.zyyyyxxxxxxxwxxxxy.......yyyyyyyyyyyyyyyyyyyyyyyxxwvvvuuutts........xyyyxwvuuu
(PID.TID 0000.0001)     15 ttrr....xxx.xxxwxwwwwvwwvvvww.........xwxxxxxxxxxxxxxxxxxyyyxwwwvvuttssrr......wxxxxxwwvuu
(PID.TID 0000.0001)     14 ttsq....xyxwwxwvwwwvutuuuuuuu.........wwvwwwwvwvvwwwvwvvwwwwwwvvvuuutssrr.....vwwwwwwwvvvu
(PID.TID 0000.0001)     13 tttr....wwwvvvtttuuuutttssttt.........vvvuuuuuuutttttuuuuuvwwwuuuttttssrr....uvvvvvvvvvvut
(PID.TID 0000.0001)     12 sssssstttutssssrrrrrstrqqrrssqqrrq....uuttssssrrrrrrrrrrrstttssssrssrrqp.....uuuttssttssss
(PID.TID 0000.0001)     11 poprsssrqqqqqrqppooopqpoppppppppppp..sssrrr.rqpppqqqqppppqqqoppqqqqrqqpp....prsrqqqqqppppq
(PID.TID 0000.0001)     10 lllmoooonmnnmnnnnmmmmmmlmmlllmnnnnon.qqqppp.ppppppooooooooonmnnnonnooooo..nmoponnmnnnnnmll
(PID.TID 0000.0001)      9 ihhiiiihhhhhhiiihiiiiihhhiiiijjkkmnllnnnnn.mmmmnnnnmmmmnnmmlklllllklllll.mllmmllkjiijjihhi
(PID.TID 0000.0001)      8 eeeeeeeedefgggffeeffggffffggghiiiijjijklklkkkkkkkklllkkkkjjiiijkjjjjjjkj.kkjjiihggffffedde
(PID.TID 0000.0001)      7 cccccddeedddefeddddddddddefeefffffgggghiiiiiijjjihhgggghhhhhghhhhhhhiiiihiihhgfeddddddcccc
(PID.TID 0000.0001)      6 abbcccddcccccdddddccdddddddccddddddeeeeffggggghhgeddddddeeeeeeefggggghggggffeedccbbbbbbbba
(PID.TID 0000.0001)      5 bbbcccccccccccccccccccccbbccccdddddddcccddeeddeedcbbbbbbccccccdddeeeeeddddddccbbbbaaaaaaab
(PID.TID 0000.0001)      4 bbbbbbbaaabbbbbbbbbbbbaabbabbbbcbbbbbbbbbbbbbbbbbbbabbaaabbbbbbbbbbbbbbbbb..a--aaabbbaaabb
(PID.TID 0000.0001)      3 bbbbaaa-a-............................bbaaaaaaaaaaaaaaaaaaaaaaaaaaaaaaaab..aaaaaaaabbbaaaa
(PID.TID 0000.0001)      2 ..........................................baaaaaaaaaaaa-------aa..aaaa.....aaaaaaaaaaaa...
(PID.TID 0000.0001)      1 ..........................................................................................
(PID.TID 0000.0001) // =======================================================
(PID.TID 0000.0001) // END OF FIELD                                          =
(PID.TID 0000.0001) // =======================================================
(PID.TID 0000.0001) 
(PID.TID 0000.0001)  MDS_READ_FIELD: opening global file: lev_s.bin
(PID.TID 0000.0001) // =======================================================
(PID.TID 0000.0001) // Field Initial Salinity at iteration          1
(PID.TID 0000.0001) // CMIN =          2.975276947021484E+01
(PID.TID 0000.0001) // CMAX =          3.747562789916992E+01
(PID.TID 0000.0001) // CINT =          2.860317936650029E-01
(PID.TID 0000.0001) // SYMBOLS (CMIN->CMAX): -abcdefghijklmnopqrstuvwxyz+
(PID.TID 0000.0001) //                  0.0: .
(PID.TID 0000.0001) // RANGE I (Lo:Hi:Step):(   1:  90:   1)
(PID.TID 0000.0001) // RANGE J (Lo:Hi:Step):(  40:   1:  -1)
(PID.TID 0000.0001) // RANGE K (Lo:Hi:Step):(   1:   1:   1)
(PID.TID 0000.0001) // =======================================================
(PID.TID 0000.0001) K =   1
(PID.TID 0000.0001)                I=10      I=20      I=30      I=40      I=50      I=60      I=70      I=80      I=90
(PID.TID 0000.0001) |--J--|123456789|123456789|123456789|123456789|123456789|123456789|123456789|123456789|123456789|
(PID.TID 0000.0001)     40 qrrrr.oonnooopqtutt..................................................................mnnop
(PID.TID 0000.0001)     39 rssrrrrrrrqqpn...ut.....................................................mmmm........opqqqr
(PID.TID 0000.0001)     38 ssrrqqqqrrqpo...........................................................lkkll......onoqrrs
(PID.TID 0000.0001)     37 ssr..................................................................hg...lln...qppqr.rrrs
(PID.TID 0000.0001)     36 rr.........................................lkji....................feeegikmoop.pqrssssssss
(PID.TID 0000.0001)     35 rr.................................kkkk..lllllki...jijjj...........aa-....opqrrrrrrrssttss
(PID.TID 0000.0001)     34 ...................................jlll.kklllllk.ijkkkjih..................hlpqrqrrsstts..
(PID.TID 0000.0001)     33 ....................................iklkkkkkkkkkjkkjjjjjjii.................jmprrsstttttt.
(PID.TID 0000.0001)     32 ....................................iklllkllllllllkkkkkkkji................gilpstuuttuuut.
(PID.TID 0000.0001)     31 ....................................lmnonnnnoooonnmmmmllkjj..............loopqtvvvuuuuuu..
(PID.TID 0000.0001)     30 ...................................pppppppqqqqpppoooonnmlkk............ptvxwwvvwvvvvvvvu..
(PID.TID 0000.0001)     29 .................................pqqrqqqqqqrrrqqppqqqpponmll...........vxxxxxxwwwwwxwwxw..
(PID.TID 0000.0001)     28 ...............................prrrrrqqrrrrrsrrsrssssssrqonmm.........wxxxxxxxyyyyyyyyxx..
(PID.TID 0000.0001)     27 ..............xx..............prrrrrrrrrssssssstttssssssrqpoop...uwww.wwxxxyyy++zzzzyy....
(PID.TID 0000.0001)     26 ..............wxx...........ppqrrrrrrsssrrstsstttssrrrrrrrqppqqp.wwwvvwwwwwxyy+++zzyxw....
(PID.TID 0000.0001)     25 ..............wxxv...kkk...ooopqrrrrrssrrrrrrrssssqqpppppppppppoo...vvutuuvvwxyyyxxvvu....
(PID.TID 0000.0001)     24 ............uvvwwur.lmlk...nmm.pqqqqrrrrrqqqqrrqqrpppppooooonmmmnooo.uuuuuuttuvvvuvuut....
(PID.TID 0000.0001)     23 ............vvuvtqp.lmml...mln..ppppqpqppppppqpppppppppqppponnnnnoopm....xvuuuvvvvuuut....
(PID.TID 0000.0001)     22 r...........vuttsqqpnppn...mm.oppqqrrqqqqqqppppqqrrrqqqrrppppoopooomjj......uuvvvvvuttssrr
(PID.TID 0000.0001)     21 qmm........ttsssssssrsqon.....opqqqqqqqrrrrqqqssssssrrrrrrrrpqqqppomll........tvvvvuttssrr
(PID.TID 0000.0001)     20 sqq.......sttssrrsrrrrpol......p.qrqpqrrrrrrrstttttsssrrsssrqrrrrqqqpo.........wwwvvvuuutt
(PID.TID 0000.0001)     19 tsr.......ssssrrrrpppppnmmm...oqq.....qrqqsrrstttuuuttssttssrrssrrrrqq...........wwwvuvvvv
(PID.TID 0000.0001)     18 wut.......ssrrrrrqppppppppoooorrr...poqqqprrrttttuuutuuuuuutttttttutsss..........yyxwwxwxx
(PID.TID 0000.0001)     17 wwu.......s.rrrrrrqppppqqqqqqqr.....rrsrqrsssuusrtuuuvvvwwvvvuuuuutttss.........xyzyyyyxxx
(PID.TID 0000.0001)     16 vvt......ss.qrrssrqrqpqrrrrrrr.......ssrrstsstusrsuuuvwwwwxxwwvvvuttttsr........yz+zzzxwww
(PID.TID 0000.0001)     15 utss....stt.rrssstttsrrsrstsr.........ssstttssttsuuttuvvvvwxwwwwwuttsssrr......xyyyyxyyxwv
(PID.TID 0000.0001)     14 utts....sstrrssstuuuuuuuuuutt.........stttuutttttttuttttttuvvvvvvutsrqrrr.....vxxwwwwxwvwv
(PID.TID 0000.0001)     13 uuut....ttttttttuuuuuvtuuuuuu.........ttttuutttttttuutsssstttttstsqrqqppp....uwwwvuvvvutvv
(PID.TID 0000.0001)     12 ttttttttttttttttttttttssuuuuutuuut....tttttttttttsssssrrrrrrrqqqqqppppoo.....rvvuuttttttuu
(PID.TID 0000.0001)     11 rqsttttttttuuttttsssssrrstttttttsss..ttttts.tsssrrrrqqqqqppppoonnooooooo....oruttttsssrqrs
(PID.TID 0000.0001)     10 pppqrssrqqrqpqrssrrqqqqqqrrrrrrrrrrs.sssssr.rssrrqqpppppppooooonnnoooonn..moqrrrqqqqqqqqqq
(PID.TID 0000.0001)      9 oonooooooooonnnooooooooooppppppqqqqqrrrqrq.pppqqqqqppppppppppoooooooooll.lmoqqqqppooooopoo
(PID.TID 0000.0001)      8 nnnoonooooooonnnnnnnoooonoonoooppopqqqqqqqppopppqqqpppppppppppppppooopon.lnopppoooonnnnooo
(PID.TID 0000.0001)      7 ooooooooooopponnnooooooonnnnnonnooooooooopppppppoooooooooopppppppppoopqnnmnoooonnnonnnnnno
(PID.TID 0000.0001)      6 oooonnoonnnnooooooooooooonnnnnnnnnnnnnnnnoooopppooooooooooooooppppppppppoooooooonnnnnmnnnn
(PID.TID 0000.0001)      5 oooonnnnnnnnnnnnnnnnnoooooonnnnnnonnnnnnnnnoooooooooooonnnnnnooooooopoooonoooonnnnnnnooooo
(PID.TID 0000.0001)      4 oooonnnooonnnnnnnnnnnnnnoooooonnnooooonnnooooooooppponnnnmmmnnnnmnnoonnnnn..nnnooooooooooo
(PID.TID 0000.0001)      3 ooonnnnnnn............................nnoooooonnooooonnnnnnnoonnnnnnnnmmm..ooopooooooooooo
(PID.TID 0000.0001)      2 ..........................................pppooooonnnnnnoooppppo..nnnn.....qqqpppoooooo...
(PID.TID 0000.0001)      1 ..........................................................................................
(PID.TID 0000.0001) // =======================================================
(PID.TID 0000.0001) // END OF FIELD                                          =
(PID.TID 0000.0001) // =======================================================
(PID.TID 0000.0001) 
(PID.TID 0000.0001) Start initial hydrostatic pressure computation
(PID.TID 0000.0001) Pressure is predetermined for buoyancyRelation OCEANIC
(PID.TID 0000.0001) 
(PID.TID 0000.0001)  MDS_READ_FIELD: opening global file: trenberth_taux.bin
(PID.TID 0000.0001)  MDS_READ_FIELD: opening global file: trenberth_tauy.bin
(PID.TID 0000.0001)  MDS_READ_FIELD: opening global file: ncep_qnet.bin
(PID.TID 0000.0001)  MDS_READ_FIELD: opening global file: lev_sst.bin
(PID.TID 0000.0001)  MDS_READ_FIELD: opening global file: lev_sss.bin
(PID.TID 0000.0001)  MDS_READ_FIELD: opening file: xx_theta.0000000000.001.001.data
(PID.TID 0000.0001)  MDS_READ_FIELD: opening file: xx_salt.0000000000.001.001.data
(PID.TID 0000.0001)  MDS_READ_FIELD: opening file: xx_diffkr.0000000000.001.001.data
(PID.TID 0000.0001)  MDS_READ_FIELD: opening file: xx_kapgm.0000000000.001.001.data
(PID.TID 0000.0001) // =======================================================
(PID.TID 0000.0001) // Model current state
(PID.TID 0000.0001) // =======================================================
(PID.TID 0000.0001) 
S/R EXTERNAL_FIELDS_LOAD: Reading new data:   12    1         0  0.000000000000E+00
(PID.TID 0000.0001)  MDS_READ_FIELD: opening global file: trenberth_taux.bin
(PID.TID 0000.0001)  MDS_READ_FIELD: opening global file: trenberth_taux.bin
(PID.TID 0000.0001)  MDS_READ_FIELD: opening global file: trenberth_tauy.bin
(PID.TID 0000.0001)  MDS_READ_FIELD: opening global file: trenberth_tauy.bin
(PID.TID 0000.0001)  MDS_READ_FIELD: opening global file: ncep_qnet.bin
(PID.TID 0000.0001)  MDS_READ_FIELD: opening global file: ncep_qnet.bin
(PID.TID 0000.0001)  MDS_READ_FIELD: opening global file: lev_sst.bin
(PID.TID 0000.0001)  MDS_READ_FIELD: opening global file: lev_sst.bin
(PID.TID 0000.0001)  MDS_READ_FIELD: opening global file: lev_sss.bin
(PID.TID 0000.0001)  MDS_READ_FIELD: opening global file: lev_sss.bin
time,SST,SSS,fu,fv,Q,E-P,i0,i1,a,b =   0.0000E+00  5.3151E-02  3.4364E+01 -4.0500E-02 -6.3753E-02  2.6510E+02  0.0000E+00    12     1  5.0000E-01  5.0000E-01
time,fu0,fu1,fu =   0.0000E+00 -4.5368E-02 -3.5633E-02 -4.0500E-02  5.000000000000000E-01  5.000000000000000E-01
(PID.TID 0000.0001)  MDS_READ_FIELD: opening file: xx_tauu.0000000000.001.001.data
(PID.TID 0000.0001)  MDS_READ_FIELD: opening file: xx_tauv.0000000000.001.001.data
(PID.TID 0000.0001)  MDS_READ_FIELD: opening file: xx_sflux.0000000000.001.001.data
(PID.TID 0000.0001)  MDS_READ_FIELD: opening file: xx_hflux.0000000000.001.001.data
 ph-test a  1 1
 ph-test b  1
 ph-test a  1 2
 ph-test b  1
 ph-test a  1 3
 ph-test b  1
 ph-test a  1 4
 ph-test b  1
 ph-test a  1 5
 ph-test b  1
 ph-test a  1 6
 ph-test b  1
 ph-test a  1 7
 ph-test b  1
 ph-test a  1 8
 ph-test b  1
 ph-test a  1 9
 ph-test b  1
 ph-test a  1 10
 ph-test b  1
 ph-test a  1 11
 ph-test b  1
 ph-test a  1 12
 ph-test b  1
 ph-test a  1 13
 ph-test b  1
 ph-test a  1 14
 ph-test b  1
 ph-test a  1 15
 ph-test b  1
 cg2d: Sum(rhs),rhsMax =   1.05956909912663E-14  2.53674886388737E+00
time,SST,SSS,fu,fv,Q,E-P,i0,i1,a,b =   4.3200E+04  8.3327E-02  3.4375E+01 -4.0338E-02 -6.3536E-02  2.6512E+02  0.0000E+00    12     1  5.1667E-01  4.8333E-01
time,fu0,fu1,fu =   4.3200E+04 -4.5368E-02 -3.5633E-02 -4.0338E-02  5.166666666666667E-01  4.833333333333333E-01
 ph-test a  1 1
 ph-test b  1
 ph-test a  1 2
 ph-test b  1
 ph-test a  1 3
 ph-test b  1
 ph-test a  1 4
 ph-test b  1
 ph-test a  1 5
 ph-test b  1
 ph-test a  1 6
 ph-test b  1
 ph-test a  1 7
 ph-test b  1
 ph-test a  1 8
 ph-test b  1
 ph-test a  1 9
 ph-test b  1
 ph-test a  1 10
 ph-test b  1
 ph-test a  1 11
 ph-test b  1
 ph-test a  1 12
 ph-test b  1
 ph-test a  1 13
 ph-test b  1
 ph-test a  1 14
 ph-test b  1
 ph-test a  1 15
 ph-test b  1
 cg2d: Sum(rhs),rhsMax =  -1.22887811038197E-14  4.94099340918605E+00
time,SST,SSS,fu,fv,Q,E-P,i0,i1,a,b =   8.6400E+04  1.1350E-01  3.4387E+01 -4.0176E-02 -6.3320E-02  2.6514E+02  0.0000E+00    12     1  5.3333E-01  4.6667E-01
time,fu0,fu1,fu =   8.6400E+04 -4.5368E-02 -3.5633E-02 -4.0176E-02  5.333333333333333E-01  4.666666666666667E-01
 ph-test a  1 1
 ph-test b  1
 ph-test a  1 2
 ph-test b  1
 ph-test a  1 3
 ph-test b  1
 ph-test a  1 4
 ph-test b  1
 ph-test a  1 5
 ph-test b  1
 ph-test a  1 6
 ph-test b  1
 ph-test a  1 7
 ph-test b  1
 ph-test a  1 8
 ph-test b  1
 ph-test a  1 9
 ph-test b  1
 ph-test a  1 10
 ph-test b  1
 ph-test a  1 11
 ph-test b  1
 ph-test a  1 12
 ph-test b  1
 ph-test a  1 13
 ph-test b  1
 ph-test a  1 14
 ph-test b  1
 ph-test a  1 15
 ph-test b  1
 cg2d: Sum(rhs),rhsMax =   2.00325867005802E-14  6.30201510737097E+00
time,SST,SSS,fu,fv,Q,E-P,i0,i1,a,b =   1.2960E+05  1.4368E-01  3.4399E+01 -4.0014E-02 -6.3103E-02  2.6516E+02  0.0000E+00    12     1  5.5000E-01  4.5000E-01
time,fu0,fu1,fu =   1.2960E+05 -4.5368E-02 -3.5633E-02 -4.0014E-02  5.500000000000000E-01  4.500000000000000E-01
 ph-test a  1 1
 ph-test b  1
 ph-test a  1 2
 ph-test b  1
 ph-test a  1 3
 ph-test b  1
 ph-test a  1 4
 ph-test b  1
 ph-test a  1 5
 ph-test b  1
 ph-test a  1 6
 ph-test b  1
 ph-test a  1 7
 ph-test b  1
 ph-test a  1 8
 ph-test b  1
 ph-test a  1 9
 ph-test b  1
 ph-test a  1 10
 ph-test b  1
 ph-test a  1 11
 ph-test b  1
 ph-test a  1 12
 ph-test b  1
 ph-test a  1 13
 ph-test b  1
 ph-test a  1 14
 ph-test b  1
 ph-test a  1 15
 ph-test b  1
 cg2d: Sum(rhs),rhsMax =  -2.73912836856738E-14  6.81670284430948E+00
time,SST,SSS,fu,fv,Q,E-P,i0,i1,a,b =   1.7280E+05  1.7385E-01  3.4410E+01 -3.9851E-02 -6.2886E-02  2.6519E+02  0.0000E+00    12     1  5.6667E-01  4.3333E-01
time,fu0,fu1,fu =   1.7280E+05 -4.5368E-02 -3.5633E-02 -3.9851E-02  5.666666666666667E-01  4.333333333333333E-01
 ph-test a  1 1
 ph-test b  1
 ph-test a  1 2
 ph-test b  1
 ph-test a  1 3
 ph-test b  1
 ph-test a  1 4
 ph-test b  1
 ph-test a  1 5
 ph-test b  1
 ph-test a  1 6
 ph-test b  1
 ph-test a  1 7
 ph-test b  1
 ph-test a  1 8
 ph-test b  1
 ph-test a  1 9
 ph-test b  1
 ph-test a  1 10
 ph-test b  1
 ph-test a  1 11
 ph-test b  1
 ph-test a  1 12
 ph-test b  1
 ph-test a  1 13
 ph-test b  1
 ph-test a  1 14
 ph-test b  1
 ph-test a  1 15
 ph-test b  1
 cg2d: Sum(rhs),rhsMax =  -1.60062935128380E-14  6.91786915802128E+00
time,SST,SSS,fu,fv,Q,E-P,i0,i1,a,b =   2.1600E+05  2.0403E-01  3.4422E+01 -3.9689E-02 -6.2670E-02  2.6521E+02  0.0000E+00    12     1  5.8333E-01  4.1667E-01
time,fu0,fu1,fu =   2.1600E+05 -4.5368E-02 -3.5633E-02 -3.9689E-02  5.833333333333334E-01  4.166666666666666E-01
 ph-test a  1 1
 ph-test b  1
 ph-test a  1 2
 ph-test b  1
 ph-test a  1 3
 ph-test b  1
 ph-test a  1 4
 ph-test b  1
 ph-test a  1 5
 ph-test b  1
 ph-test a  1 6
 ph-test b  1
 ph-test a  1 7
 ph-test b  1
 ph-test a  1 8
 ph-test b  1
 ph-test a  1 9
 ph-test b  1
 ph-test a  1 10
 ph-test b  1
 ph-test a  1 11
 ph-test b  1
 ph-test a  1 12
 ph-test b  1
 ph-test a  1 13
 ph-test b  1
 ph-test a  1 14
 ph-test b  1
 ph-test a  1 15
 ph-test b  1
 cg2d: Sum(rhs),rhsMax =   1.11629455679108E-14  6.87448893655102E+00
time,SST,SSS,fu,fv,Q,E-P,i0,i1,a,b =   2.5920E+05  2.3421E-01  3.4434E+01 -3.9527E-02 -6.2453E-02  2.6523E+02  0.0000E+00    12     1  6.0000E-01  4.0000E-01
time,fu0,fu1,fu =   2.5920E+05 -4.5368E-02 -3.5633E-02 -3.9527E-02  6.000000000000000E-01  4.000000000000000E-01
 ph-test a  1 1
 ph-test b  1
 ph-test a  1 2
 ph-test b  1
 ph-test a  1 3
 ph-test b  1
 ph-test a  1 4
 ph-test b  1
 ph-test a  1 5
 ph-test b  1
 ph-test a  1 6
 ph-test b  1
 ph-test a  1 7
 ph-test b  1
 ph-test a  1 8
 ph-test b  1
 ph-test a  1 9
 ph-test b  1
 ph-test a  1 10
 ph-test b  1
 ph-test a  1 11
 ph-test b  1
 ph-test a  1 12
 ph-test b  1
 ph-test a  1 13
 ph-test b  1
 ph-test a  1 14
 ph-test b  1
 ph-test a  1 15
 ph-test b  1
 cg2d: Sum(rhs),rhsMax =  -1.00600083818847E-13  7.24604825999479E+00
time,SST,SSS,fu,fv,Q,E-P,i0,i1,a,b =   3.0240E+05  2.6438E-01  3.4446E+01 -3.9365E-02 -6.2237E-02  2.6525E+02  0.0000E+00    12     1  6.1667E-01  3.8333E-01
time,fu0,fu1,fu =   3.0240E+05 -4.5368E-02 -3.5633E-02 -3.9365E-02  6.166666666666667E-01  3.833333333333333E-01
 ph-test a  1 1
 ph-test b  1
 ph-test a  1 2
 ph-test b  1
 ph-test a  1 3
 ph-test b  1
 ph-test a  1 4
 ph-test b  1
 ph-test a  1 5
 ph-test b  1
 ph-test a  1 6
 ph-test b  1
 ph-test a  1 7
 ph-test b  1
 ph-test a  1 8
 ph-test b  1
 ph-test a  1 9
 ph-test b  1
 ph-test a  1 10
 ph-test b  1
 ph-test a  1 11
 ph-test b  1
 ph-test a  1 12
 ph-test b  1
 ph-test a  1 13
 ph-test b  1
 ph-test a  1 14
 ph-test b  1
 ph-test a  1 15
 ph-test b  1
 cg2d: Sum(rhs),rhsMax =  -4.25011588423008E-14  7.86362075184323E+00
time,SST,SSS,fu,fv,Q,E-P,i0,i1,a,b =   3.4560E+05  2.9456E-01  3.4457E+01 -3.9202E-02 -6.2020E-02  2.6528E+02  0.0000E+00    12     1  6.3333E-01  3.6667E-01
time,fu0,fu1,fu =   3.4560E+05 -4.5368E-02 -3.5633E-02 -3.9202E-02  6.333333333333333E-01  3.666666666666667E-01
 ph-test a  1 1
 ph-test b  1
 ph-test a  1 2
 ph-test b  1
 ph-test a  1 3
 ph-test b  1
 ph-test a  1 4
 ph-test b  1
 ph-test a  1 5
 ph-test b  1
 ph-test a  1 6
 ph-test b  1
 ph-test a  1 7
 ph-test b  1
 ph-test a  1 8
 ph-test b  1
 ph-test a  1 9
 ph-test b  1
 ph-test a  1 10
 ph-test b  1
 ph-test a  1 11
 ph-test b  1
 ph-test a  1 12
 ph-test b  1
 ph-test a  1 13
 ph-test b  1
 ph-test a  1 14
 ph-test b  1
 ph-test a  1 15
 ph-test b  1
 cg2d: Sum(rhs),rhsMax =   4.69211258388724E-14  8.20455160636556E+00
time,SST,SSS,fu,fv,Q,E-P,i0,i1,a,b =   3.8880E+05  3.2473E-01  3.4469E+01 -3.9040E-02 -6.1804E-02  2.6530E+02  0.0000E+00    12     1  6.5000E-01  3.5000E-01
time,fu0,fu1,fu =   3.8880E+05 -4.5368E-02 -3.5633E-02 -3.9040E-02  6.500000000000000E-01  3.500000000000000E-01
 ph-test a  1 1
 ph-test b  1
 ph-test a  1 2
 ph-test b  1
 ph-test a  1 3
 ph-test b  1
 ph-test a  1 4
 ph-test b  1
 ph-test a  1 5
 ph-test b  1
 ph-test a  1 6
 ph-test b  1
 ph-test a  1 7
 ph-test b  1
 ph-test a  1 8
 ph-test b  1
 ph-test a  1 9
 ph-test b  1
 ph-test a  1 10
 ph-test b  1
 ph-test a  1 11
 ph-test b  1
 ph-test a  1 12
 ph-test b  1
 ph-test a  1 13
 ph-test b  1
 ph-test a  1 14
 ph-test b  1
 ph-test a  1 15
 ph-test b  1
 cg2d: Sum(rhs),rhsMax =   4.82595734208058E-14  8.29866218269600E+00
(PID.TID 0000.0001) %CHECKPOINT        10 ckptA
 --> objf_test(bi,bj)   =  0.000000000000000E+00
 --> objf_tracer(bi,bj) =  0.000000000000000E+00
 --> objf_atl(bi,bj)    = -0.456643877215073E-01
  local fc = -0.456643877215073E-01
 global fc = -0.456643877215073E-01
 ph-check fcpertplus =  -0.0456643877
(PID.TID 0000.0001)  MDS_READ_FIELD: opening file: xx_theta.0000000000.001.001.data
 ph-check fcpertminus =  -0.0456642956
(PID.TID 0000.0001)  MDS_READ_FIELD: opening file: xx_theta.0000000000.001.001.data
(PID.TID 0000.0001)  MDS_READ_FIELD: opening global file: bathymetry.bin
(PID.TID 0000.0001) // =======================================================
(PID.TID 0000.0001) // Field Model R_low (ini_masks_etc) at iteration          1
(PID.TID 0000.0001) // CMIN =         -5.200000000000000E+03
(PID.TID 0000.0001) // CMAX =         -1.200000000000000E+02
(PID.TID 0000.0001) // CINT =          1.881481481481482E+02
(PID.TID 0000.0001) // SYMBOLS (CMIN->CMAX): -abcdefghijklmnopqrstuvwxyz+
(PID.TID 0000.0001) //                  0.0: .
(PID.TID 0000.0001) // RANGE I (Lo:Hi:Step):(  -2:  93:   1)
(PID.TID 0000.0001) // RANGE J (Lo:Hi:Step):(  43:  -2:  -1)
(PID.TID 0000.0001) // RANGE K (Lo:Hi:Step):(   1:   1:   1)
(PID.TID 0000.0001) // =======================================================
(PID.TID 0000.0001) K =   1
(PID.TID 0000.0001) //                I=7       I=17      I=27      I=37      I=47      I=57      I=67      I=77      I=87
(PID.TID 0000.0001) // |--J--|210123456|890123456|890123456|890123456|890123456|890123456|890123456|890123456|890123456|890123
(PID.TID 0000.0001) //     43 ................................................................................................
(PID.TID 0000.0001) //     42 .............................................zyxxmgfeeefefgimnpwwwy..+zyy.....yyyyoiiihhz+......
(PID.TID 0000.0001) //     41 ................................................................................................
(PID.TID 0000.0001) //     40 +qlloqz+.++++zzz++++++..................................................................+++qlloq
(PID.TID 0000.0001) //     39 uslloorzzzzzzzzz+...++.....................................................yxxz........+zvuslloo
(PID.TID 0000.0001) //     38 smqpporzzzzzz+++...........................................................zxxy+......zyyvsmqppo
(PID.TID 0000.0001) //     37 smmmuz..................................................................++...zy+...yttyy.+smmmuz
(PID.TID 0000.0001) //     36 yutt+.........................................mm++....................+++++++znmm.yoowssvuyutt+.
(PID.TID 0000.0001) //     35 w++++.................................+zzz..rrmmkk+...+gghn...........+++....+nmiijlsoopuww++++.
(PID.TID 0000.0001) //     34 +.....................................+vvy.ggqyxv+y.ccdffhim..................+nihhikkihhm+.....
(PID.TID 0000.0001) //     33 w+.....................................uuz---h------aaabdefin+.................zqvddflifffw+....
(PID.TID 0000.0001) //     32 m+.....................................+t----h---------acdfgnn................+++gdffkofffm+....
(PID.TID 0000.0001) //     31 m......................................-----ad--------abddegil..............qbaafccdhqqgddm.....
(PID.TID 0000.0001) //     30 i.....................................f----b--b------------abd............zfbb--fbcdosjfddi.....
(PID.TID 0000.0001) //     29 i...................................tu----e---fjg----------abdf...........eaac--abfmijaadgi.....
(PID.TID 0000.0001) //     28 z.................................+xfl-------------------bdedefi.........qbaa---aemfbbaaejz.....
(PID.TID 0000.0001) //     27 .................xx..............+wfgfpf--------eallc---bbbccefgi...+++x.qb-----akfa---ah.......
(PID.TID 0000.0001) //     26 .................xnn...........+vd---dna------a--aicfna---aabdfghku.++xssuy-----bgca---ci.......
(PID.TID 0000.0001) //     25 .................iiik...oo+...+ivd---doaa-bc--ilglf--aa---aabcghhkll...ssum+xaaacjbaabdjk.......
(PID.TID 0000.0001) //     24 ...............xnheeft.kkk+...uii.aagdm----aa-----a-------bbbcdefjljjju.zummwwbbchba--abi.......
(PID.TID 0000.0001) //     23 ...............xgheefp.iikw...uuw..fihi----fed-----eaaa--bbbbcdfflkjiiiq....zykccefa--abd.......
(PID.TID 0000.0001) //     22 quss...........bbelffslffkk...zz.wqkeeqoheccdfa-----egabaabcdddegghliiiqq......xeeehheehccquss..
(PID.TID 0000.0001) //     21 cbbeir........nbbcdjhqdddiiz.....wqfeelgghmedea-----bibbcddddddefghklnqoo........ieeflhgcccbbeir
(PID.TID 0000.0001) //     20 cbbder.......ldcccdgkccccidd......z.vkkktqqhegg----aaacddddddddefghkiiijl.........nhfa--gfcbbder
(PID.TID 0000.0001) //     19 hcdaaf.......kddosggpaaaibbccx...+z+.....r+nlec---agaaabcddccddefikfgffff...........d---cjhcdaaf
(PID.TID 0000.0001) //     18 hd---d.......kglggvliaaaibbcaaeaiv++...qqzolhecccfdgkaabcdfccdeeikgfgffdd+..........d---djhd---d
(PID.TID 0000.0001) //     17 hc---c.......l.feewlfaaaoaa----aiv.....qqnllslmlofcdbaacceffffhhligfigeddj.........hd---ckhc---c
(PID.TID 0000.0001) //     16 gba--c......tn.ddgnlfdaaqa-----lv.......vnllvllnwv--accivomfffhilhgfffeddjf........re--aeigba--c
(PID.TID 0000.0001) //     15 fb--dpz....+ll.ccdfhmdddlc----av.........otsxoomv---abccddfihgijkhgfffeejfff......+fd---ckfb--dp
(PID.TID 0000.0001) //     14 fc--mcl....weeqbaafilkfend--eagy.........hhstofft----aacdheefijkmjhhjijiffff.....zlfdaaadlfc--mc
(PID.TID 0000.0001) //     13 hcclbbg....nccobaaiddgkffqrqeaal.........eeutqfft------aaceeffhijlkjhhigfffq....+jgfodccflhcclbb
(PID.TID 0000.0001) //     12 hhgaaacw+iiicclemhdddfliigfdcaabfaaaz....ccsurqpc--------abcifffikiiihhggff.....kbbbdfffglhhgaaa
(PID.TID 0000.0001) //     11 kgcaaacbbifccennhbbdefnihgfdccaaaa----..dcccnt.ncab-------aabcdfilhggjiggff....l---abcefjlkgcaaa
(PID.TID 0000.0001) //     10 kfcaaccbdaacfrllfbbdegkmmljhfdddba----d.dcccfx.nyrebaba----abcdgilhfeegijgi..+w--aa-abcfilkfcaac
(PID.TID 0000.0001) //      9 lffcdcccaaaoqsolfdeehikihhlllgfedcccccdmdcccf.vyfaaaaaaaa--abdehmjhfeeefglv.++w-----abcdfklffcdc
(PID.TID 0000.0001) //      8 liffjklcaafddffeeccvznkfffhhhlkjifgjkkfeeddfsyvcaaaaaaccdcccdfgjligedbbceg+.++xffn--cfddefliffjk
(PID.TID 0000.0001) //      7 hmqnnbbkkf--bmbaabbgtykfddeffeeddccdfhlffeelfbaaaaaacddeghgjgjlligeddaaabedfiiiiiisvkfkecchmqnnb
(PID.TID 0000.0001) //      6 cca-------------aabcelttdddedddddccccdfkkiiffbaaaabcdgimmkmefecaaabbbaaabbdfiiiiispmmregifcca---
(PID.TID 0000.0001) //      5 --------a-------aaccehhhiddeddddddcccdfiikomodddefffmlmigedccaaaaaaaababbbdfiijsqgeccccbaa------
(PID.TID 0000.0001) //      4 --ahebaabbbbbeihffgijiiiijpywnnpokkomkiiijmmmolkommmgffeeedccaaaaaabbcccefhmz..yjgeccccbaa--aheb
(PID.TID 0000.0001) //      3 gffhhrpjiiwyy............................yxotmjjjjgfeeeeeeddeffffheddeghjkyy..yqjgeddccdbbgffhhr
(PID.TID 0000.0001) //      2 .............................................zyxxmgfeeefefgimnpwwwy..+zyy.....yyyyoiiihhz+......
(PID.TID 0000.0001) //      1 ................................................................................................
(PID.TID 0000.0001) //      0 +qlloqz+.++++zzz++++++..................................................................+++qlloq
(PID.TID 0000.0001) //     -1 uslloorzzzzzzzzz+...++.....................................................yxxz........+zvuslloo
(PID.TID 0000.0001) //     -2 ................................................................................................
(PID.TID 0000.0001) // =======================================================
(PID.TID 0000.0001) // END OF FIELD                                          =
(PID.TID 0000.0001) // =======================================================
(PID.TID 0000.0001) 
(PID.TID 0000.0001) // =======================================================
(PID.TID 0000.0001) // Field Model Ro_surf (ini_masks_etc) at iteration          1
(PID.TID 0000.0001) // CMIN =          1.000000000000000E+32
(PID.TID 0000.0001) // CMAX =         -1.000000000000000E+32
(PID.TID 0000.0001) // CINT =          0.000000000000000E+00
(PID.TID 0000.0001) // SYMBOLS (CMIN->CMAX): -abcdefghijklmnopqrstuvwxyz+
(PID.TID 0000.0001) //                  0.0: .
(PID.TID 0000.0001) // RANGE I (Lo:Hi:Step):(  -2:  93:   1)
(PID.TID 0000.0001) // RANGE J (Lo:Hi:Step):(  43:  -2:  -1)
(PID.TID 0000.0001) // RANGE K (Lo:Hi:Step):(   1:   1:   1)
(PID.TID 0000.0001) // =======================================================
(PID.TID 0000.0001) // =======================================================
(PID.TID 0000.0001) // END OF FIELD                                          =
(PID.TID 0000.0001) // =======================================================
(PID.TID 0000.0001) 
(PID.TID 0000.0001) // =======================================================
(PID.TID 0000.0001) // Field hFacC at iteration          1
(PID.TID 0000.0001) // CMIN =          1.000000000000000E+00
(PID.TID 0000.0001) // CMAX =          1.000000000000000E+00
(PID.TID 0000.0001) // CINT =          0.000000000000000E+00
(PID.TID 0000.0001) // SYMBOLS (CMIN->CMAX): -abcdefghijklmnopqrstuvwxyz+
(PID.TID 0000.0001) //                  0.0: .
(PID.TID 0000.0001) // RANGE I (Lo:Hi:Step):(  -2:  93:   1)
(PID.TID 0000.0001) // RANGE J (Lo:Hi:Step):(  43:  -2:  -1)
(PID.TID 0000.0001) // RANGE K (Lo:Hi:Step):(   1:   1:   1)
(PID.TID 0000.0001) // =======================================================
(PID.TID 0000.0001) // =======================================================
(PID.TID 0000.0001) // END OF FIELD                                          =
(PID.TID 0000.0001) // =======================================================
(PID.TID 0000.0001) 
(PID.TID 0000.0001) // =======================================================
(PID.TID 0000.0001) // Field hFacW at iteration          1
(PID.TID 0000.0001) // CMIN =          1.000000000000000E+00
(PID.TID 0000.0001) // CMAX =          1.000000000000000E+00
(PID.TID 0000.0001) // CINT =          0.000000000000000E+00
(PID.TID 0000.0001) // SYMBOLS (CMIN->CMAX): -abcdefghijklmnopqrstuvwxyz+
(PID.TID 0000.0001) //                  0.0: .
(PID.TID 0000.0001) // RANGE I (Lo:Hi:Step):(  -2:  93:   1)
(PID.TID 0000.0001) // RANGE J (Lo:Hi:Step):(  43:  -2:  -1)
(PID.TID 0000.0001) // RANGE K (Lo:Hi:Step):(   1:   1:   1)
(PID.TID 0000.0001) // =======================================================
(PID.TID 0000.0001) // =======================================================
(PID.TID 0000.0001) // END OF FIELD                                          =
(PID.TID 0000.0001) // =======================================================
(PID.TID 0000.0001) 
(PID.TID 0000.0001) // =======================================================
(PID.TID 0000.0001) // Field hFacS at iteration          1
(PID.TID 0000.0001) // CMIN =          1.000000000000000E+00
(PID.TID 0000.0001) // CMAX =          1.000000000000000E+00
(PID.TID 0000.0001) // CINT =          0.000000000000000E+00
(PID.TID 0000.0001) // SYMBOLS (CMIN->CMAX): -abcdefghijklmnopqrstuvwxyz+
(PID.TID 0000.0001) //                  0.0: .
(PID.TID 0000.0001) // RANGE I (Lo:Hi:Step):(  -2:  93:   1)
(PID.TID 0000.0001) // RANGE J (Lo:Hi:Step):(  43:  -2:  -1)
(PID.TID 0000.0001) // RANGE K (Lo:Hi:Step):(   1:   1:   1)
(PID.TID 0000.0001) // =======================================================
(PID.TID 0000.0001) // =======================================================
(PID.TID 0000.0001) // END OF FIELD                                          =
(PID.TID 0000.0001) // =======================================================
(PID.TID 0000.0001) 
(PID.TID 0000.0001) %MON ad_advcflfCori_max           =   1.4226580169407E-04
(PID.TID 0000.0001) %MON ad_advcflfCori_min           =  -1.4226580169407E-04
(PID.TID 0000.0001) %MON ad_advcflfCori_mean          =   7.5291817533716E-23
(PID.TID 0000.0001) %MON ad_advcflfCori_sd            =   9.6335367303778E-05
(PID.TID 0000.0001) %MON ad_advcflfCoriG_max          =   1.4112379284621E-04
(PID.TID 0000.0001) %MON ad_advcflfCoriG_min          =  -1.4323448157692E-04
(PID.TID 0000.0001) %MON ad_advcflfCoriG_mean         =  -3.5808620394229E-06
(PID.TID 0000.0001) %MON ad_advcflfCoriG_sd           =   9.6285194120965E-05
(PID.TID 0000.0001) %MON ad_advcflfCoriCos_max        =   1.4535550371427E-04
(PID.TID 0000.0001) %MON ad_advcflfCoriCos_min        =   3.0239529651320E-05
(PID.TID 0000.0001) %MON ad_advcflfCoriCos_mean       =   1.0260497651149E-04
(PID.TID 0000.0001) %MON ad_advcflfCoriCos_sd         =   3.6683828681187E-05
(PID.TID 0000.0001) INI_CG2D: CG2D normalisation factor =  6.5682677425711703E-05
(PID.TID 0000.0001) 
(PID.TID 0000.0001)  MDS_READ_FIELD: opening global file: lev_t.bin
(PID.TID 0000.0001) // =======================================================
(PID.TID 0000.0001) // Field Initial Temperature at iteration          1
(PID.TID 0000.0001) // CMIN =         -1.900000000000000E+00
(PID.TID 0000.0001) // CMAX =          2.973338890075684E+01
(PID.TID 0000.0001) // CINT =          1.171606996324327E+00
(PID.TID 0000.0001) // SYMBOLS (CMIN->CMAX): -abcdefghijklmnopqrstuvwxyz+
(PID.TID 0000.0001) //                  0.0: .
(PID.TID 0000.0001) // RANGE I (Lo:Hi:Step):(   1:  90:   1)
(PID.TID 0000.0001) // RANGE J (Lo:Hi:Step):(  40:   1:  -1)
(PID.TID 0000.0001) // RANGE K (Lo:Hi:Step):(   1:   1:   1)
(PID.TID 0000.0001) // =======================================================
(PID.TID 0000.0001) K =   1
(PID.TID 0000.0001)                I=10      I=20      I=30      I=40      I=50      I=60      I=70      I=80      I=90
(PID.TID 0000.0001) |--J--|123456789|123456789|123456789|123456789|123456789|123456789|123456789|123456789|123456789|
(PID.TID 0000.0001)     40 bccdd.baa----abdedd..................................................................bbbbb
(PID.TID 0000.0001)     39 ccdddddccbbbaa...ed.....................................................----........bbbbbb
(PID.TID 0000.0001)     38 fffgfedeedddc...........................................................-----......cbbbcde
(PID.TID 0000.0001)     37 ghh..................................................................bc...bbc...edeed.defg
(PID.TID 0000.0001)     36 hh.........................................ddcb....................dcccbabccdd.eefghhihhih
(PID.TID 0000.0001)     35 hh.................................aaab..dddeddd...ffggg...........ccc....ddeeeffghijjjjih
(PID.TID 0000.0001)     34 ...................................babb.deeeeeee.ffffgghh..................ccdffghijkkkj..
(PID.TID 0000.0001)     33 ....................................accdddeeeeefffffgghhiii.................bcfijkkllllkk.
(PID.TID 0000.0001)     32 ....................................bdddeffgffgghhhhhiiijjj................dccglmnmmmmlll.
(PID.TID 0000.0001)     31 ....................................fghiiiijjjjjjkkkkklllkk..............ikkjjmooooonnmm..
(PID.TID 0000.0001)     30 ...................................mmmnmmmmmmmmmmmmmnnnnnmm............moqrrrqrqqqpppooo..
(PID.TID 0000.0001)     29 .................................pqqqqqpppppppppoppoppppponm...........ssssssrrrrrqqqqpp..
(PID.TID 0000.0001)     28 ...............................prssssrrrsssrrrrrrrrrrrrrqqpoo.........uttssstssrssrrrqqq..
(PID.TID 0000.0001)     27 ..............vv..............stuttuuuuutuuuuuuuuuuttttssrrqqq...stuu.vvvuuuuutttttsss....
(PID.TID 0000.0001)     26 ..............vvv...........uuvvvvvwwwwwwwwvvvvvvvvvuuutttsssttv.uuvxxwwwwwwvvvvuuttsr....
(PID.TID 0000.0001)     25 ..............wwwx...xxx...vvvxxxxxyyxxxxxxxxxwwwwwvvvvvuuuuuvwwx...xxxxxxwwwwwwvvutsr....
(PID.TID 0000.0001)     24 ............wwwwxyy.xxyy...wxx.yyyyyyyyyyyxxxxxxxxwwwwwwwvvwwxxyywww.xxxxxxxxxxwwwvvur....
(PID.TID 0000.0001)     23 ............xxxyyyz.xyyy...xxx..yyyyzzyyyyyyyyxxxxxxxxxwwwwwxxxwwwwwx....vwxxxxwwwwwvu....
(PID.TID 0000.0001)     22 w...........xxyyyzyyyyyz...xx.yyzzzzzzzzzzzzzyyzyyyyyyxxwwxxxxwvvvwwxw......yyyyxxxxxxwxxw
(PID.TID 0000.0001)     21 xxx........xxxxyyzzzzzzz+.....zyzzzzzzz++zzzzyyyyyyyyxxwvvwwwwvvvvvvvu........yyyyyyyyyxxx
(PID.TID 0000.0001)     20 xww.......xyyyyxyyzzzzzz+......z.zzzzz+++zzzzzzyyyyyxxxxwvwxwvuuuuuuut.........yyyyxxxxwww
(PID.TID 0000.0001)     19 vvv.......yyyyxwwxyzyyzzzzz...zzz.....++++++z++z+zzzyyyyxxxxwwvvvvvvvu...........yyxxxwwww
(PID.TID 0000.0001)     18 uut.......zzyyywwxyzyyyyzzyzzzzzz...z+z++++zz+++++++zzzyyyyxxwwwvvvvvtt..........yyxxwvvwv
(PID.TID 0000.0001)     17 uus.......z.yyyyyyxyzzyyyyyyyzz.....yzzzzzzzzzzzzzzzzzzyyyyxxwwvuuvvuut.........yyyxxwttvu
(PID.TID 0000.0001)     16 utr......yy.zyyyyxxxxxxxwxxxxy.......yyyyyyyyyyyyyyyyyyyyyyyxxwvvvuuutts........xyyyxwvuuu
(PID.TID 0000.0001)     15 ttrr....xxx.xxxwxwwwwvwwvvvww.........xwxxxxxxxxxxxxxxxxxyyyxwwwvvuttssrr......wxxxxxwwvuu
(PID.TID 0000.0001)     14 ttsq....xyxwwxwvwwwvutuuuuuuu.........wwvwwwwvwvvwwwvwvvwwwwwwvvvuuutssrr.....vwwwwwwwvvvu
(PID.TID 0000.0001)     13 tttr....wwwvvvtttuuuutttssttt.........vvvuuuuuuutttttuuuuuvwwwuuuttttssrr....uvvvvvvvvvvut
(PID.TID 0000.0001)     12 sssssstttutssssrrrrrstrqqrrssqqrrq....uuttssssrrrrrrrrrrrstttssssrssrrqp.....uuuttssttssss
(PID.TID 0000.0001)     11 poprsssrqqqqqrqppooopqpoppppppppppp..sssrrr.rqpppqqqqppppqqqoppqqqqrqqpp....prsrqqqqqppppq
(PID.TID 0000.0001)     10 lllmoooonmnnmnnnnmmmmmmlmmlllmnnnnon.qqqppp.ppppppooooooooonmnnnonnooooo..nmoponnmnnnnnmll
(PID.TID 0000.0001)      9 ihhiiiihhhhhhiiihiiiiihhhiiiijjkkmnllnnnnn.mmmmnnnnmmmmnnmmlklllllklllll.mllmmllkjiijjihhi
(PID.TID 0000.0001)      8 eeeeeeeedefgggffeeffggffffggghiiiijjijklklkkkkkkkklllkkkkjjiiijkjjjjjjkj.kkjjiihggffffedde
(PID.TID 0000.0001)      7 cccccddeedddefeddddddddddefeefffffgggghiiiiiijjjihhgggghhhhhghhhhhhhiiiihiihhgfeddddddcccc
(PID.TID 0000.0001)      6 abbcccddcccccdddddccdddddddccddddddeeeeffggggghhgeddddddeeeeeeefggggghggggffeedccbbbbbbbba
(PID.TID 0000.0001)      5 bbbcccccccccccccccccccccbbccccdddddddcccddeeddeedcbbbbbbccccccdddeeeeeddddddccbbbbaaaaaaab
(PID.TID 0000.0001)      4 bbbbbbbaaabbbbbbbbbbbbaabbabbbbcbbbbbbbbbbbbbbbbbbbabbaaabbbbbbbbbbbbbbbbb..a--aaabbbaaabb
(PID.TID 0000.0001)      3 bbbbaaa-a-............................bbaaaaaaaaaaaaaaaaaaaaaaaaaaaaaaaab..aaaaaaaabbbaaaa
(PID.TID 0000.0001)      2 ..........................................baaaaaaaaaaaa-------aa..aaaa.....aaaaaaaaaaaa...
(PID.TID 0000.0001)      1 ..........................................................................................
(PID.TID 0000.0001) // =======================================================
(PID.TID 0000.0001) // END OF FIELD                                          =
(PID.TID 0000.0001) // =======================================================
(PID.TID 0000.0001) 
(PID.TID 0000.0001)  MDS_READ_FIELD: opening global file: lev_s.bin
(PID.TID 0000.0001) // =======================================================
(PID.TID 0000.0001) // Field Initial Salinity at iteration          1
(PID.TID 0000.0001) // CMIN =          2.975276947021484E+01
(PID.TID 0000.0001) // CMAX =          3.747562789916992E+01
(PID.TID 0000.0001) // CINT =          2.860317936650029E-01
(PID.TID 0000.0001) // SYMBOLS (CMIN->CMAX): -abcdefghijklmnopqrstuvwxyz+
(PID.TID 0000.0001) //                  0.0: .
(PID.TID 0000.0001) // RANGE I (Lo:Hi:Step):(   1:  90:   1)
(PID.TID 0000.0001) // RANGE J (Lo:Hi:Step):(  40:   1:  -1)
(PID.TID 0000.0001) // RANGE K (Lo:Hi:Step):(   1:   1:   1)
(PID.TID 0000.0001) // =======================================================
(PID.TID 0000.0001) K =   1
(PID.TID 0000.0001)                I=10      I=20      I=30      I=40      I=50      I=60      I=70      I=80      I=90
(PID.TID 0000.0001) |--J--|123456789|123456789|123456789|123456789|123456789|123456789|123456789|123456789|123456789|
(PID.TID 0000.0001)     40 qrrrr.oonnooopqtutt..................................................................mnnop
(PID.TID 0000.0001)     39 rssrrrrrrrqqpn...ut.....................................................mmmm........opqqqr
(PID.TID 0000.0001)     38 ssrrqqqqrrqpo...........................................................lkkll......onoqrrs
(PID.TID 0000.0001)     37 ssr..................................................................hg...lln...qppqr.rrrs
(PID.TID 0000.0001)     36 rr.........................................lkji....................feeegikmoop.pqrssssssss
(PID.TID 0000.0001)     35 rr.................................kkkk..lllllki...jijjj...........aa-....opqrrrrrrrssttss
(PID.TID 0000.0001)     34 ...................................jlll.kklllllk.ijkkkjih..................hlpqrqrrsstts..
(PID.TID 0000.0001)     33 ....................................iklkkkkkkkkkjkkjjjjjjii.................jmprrsstttttt.
(PID.TID 0000.0001)     32 ....................................iklllkllllllllkkkkkkkji................gilpstuuttuuut.
(PID.TID 0000.0001)     31 ....................................lmnonnnnoooonnmmmmllkjj..............loopqtvvvuuuuuu..
(PID.TID 0000.0001)     30 ...................................pppppppqqqqpppoooonnmlkk............ptvxwwvvwvvvvvvvu..
(PID.TID 0000.0001)     29 .................................pqqrqqqqqqrrrqqppqqqpponmll...........vxxxxxxwwwwwxwwxw..
(PID.TID 0000.0001)     28 ...............................prrrrrqqrrrrrsrrsrssssssrqonmm.........wxxxxxxxyyyyyyyyxx..
(PID.TID 0000.0001)     27 ..............xx..............prrrrrrrrrssssssstttssssssrqpoop...uwww.wwxxxyyy++zzzzyy....
(PID.TID 0000.0001)     26 ..............wxx...........ppqrrrrrrsssrrstsstttssrrrrrrrqppqqp.wwwvvwwwwwxyy+++zzyxw....
(PID.TID 0000.0001)     25 ..............wxxv...kkk...ooopqrrrrrssrrrrrrrssssqqpppppppppppoo...vvutuuvvwxyyyxxvvu....
(PID.TID 0000.0001)     24 ............uvvwwur.lmlk...nmm.pqqqqrrrrrqqqqrrqqrpppppooooonmmmnooo.uuuuuuttuvvvuvuut....
(PID.TID 0000.0001)     23 ............vvuvtqp.lmml...mln..ppppqpqppppppqpppppppppqppponnnnnoopm....xvuuuvvvvuuut....
(PID.TID 0000.0001)     22 r...........vuttsqqpnppn...mm.oppqqrrqqqqqqppppqqrrrqqqrrppppoopooomjj......uuvvvvvuttssrr
(PID.TID 0000.0001)     21 qmm........ttsssssssrsqon.....opqqqqqqqrrrrqqqssssssrrrrrrrrpqqqppomll........tvvvvuttssrr
(PID.TID 0000.0001)     20 sqq.......sttssrrsrrrrpol......p.qrqpqrrrrrrrstttttsssrrsssrqrrrrqqqpo.........wwwvvvuuutt
(PID.TID 0000.0001)     19 tsr.......ssssrrrrpppppnmmm...oqq.....qrqqsrrstttuuuttssttssrrssrrrrqq...........wwwvuvvvv
(PID.TID 0000.0001)     18 wut.......ssrrrrrqppppppppoooorrr...poqqqprrrttttuuutuuuuuutttttttutsss..........yyxwwxwxx
(PID.TID 0000.0001)     17 wwu.......s.rrrrrrqppppqqqqqqqr.....rrsrqrsssuusrtuuuvvvwwvvvuuuuutttss.........xyzyyyyxxx
(PID.TID 0000.0001)     16 vvt......ss.qrrssrqrqpqrrrrrrr.......ssrrstsstusrsuuuvwwwwxxwwvvvuttttsr........yz+zzzxwww
(PID.TID 0000.0001)     15 utss....stt.rrssstttsrrsrstsr.........ssstttssttsuuttuvvvvwxwwwwwuttsssrr......xyyyyxyyxwv
(PID.TID 0000.0001)     14 utts....sstrrssstuuuuuuuuuutt.........stttuutttttttuttttttuvvvvvvutsrqrrr.....vxxwwwwxwvwv
(PID.TID 0000.0001)     13 uuut....ttttttttuuuuuvtuuuuuu.........ttttuutttttttuutsssstttttstsqrqqppp....uwwwvuvvvutvv
(PID.TID 0000.0001)     12 ttttttttttttttttttttttssuuuuutuuut....tttttttttttsssssrrrrrrrqqqqqppppoo.....rvvuuttttttuu
(PID.TID 0000.0001)     11 rqsttttttttuuttttsssssrrstttttttsss..ttttts.tsssrrrrqqqqqppppoonnooooooo....oruttttsssrqrs
(PID.TID 0000.0001)     10 pppqrssrqqrqpqrssrrqqqqqqrrrrrrrrrrs.sssssr.rssrrqqpppppppooooonnnoooonn..moqrrrqqqqqqqqqq
(PID.TID 0000.0001)      9 oonooooooooonnnooooooooooppppppqqqqqrrrqrq.pppqqqqqppppppppppoooooooooll.lmoqqqqppooooopoo
(PID.TID 0000.0001)      8 nnnoonooooooonnnnnnnoooonoonoooppopqqqqqqqppopppqqqpppppppppppppppooopon.lnopppoooonnnnooo
(PID.TID 0000.0001)      7 ooooooooooopponnnooooooonnnnnonnooooooooopppppppoooooooooopppppppppoopqnnmnoooonnnonnnnnno
(PID.TID 0000.0001)      6 oooonnoonnnnooooooooooooonnnnnnnnnnnnnnnnoooopppooooooooooooooppppppppppoooooooonnnnnmnnnn
(PID.TID 0000.0001)      5 oooonnnnnnnnnnnnnnnnnoooooonnnnnnonnnnnnnnnoooooooooooonnnnnnooooooopoooonoooonnnnnnnooooo
(PID.TID 0000.0001)      4 oooonnnooonnnnnnnnnnnnnnoooooonnnooooonnnooooooooppponnnnmmmnnnnmnnoonnnnn..nnnooooooooooo
(PID.TID 0000.0001)      3 ooonnnnnnn............................nnoooooonnooooonnnnnnnoonnnnnnnnmmm..ooopooooooooooo
(PID.TID 0000.0001)      2 ..........................................pppooooonnnnnnoooppppo..nnnn.....qqqpppoooooo...
(PID.TID 0000.0001)      1 ..........................................................................................
(PID.TID 0000.0001) // =======================================================
(PID.TID 0000.0001) // END OF FIELD                                          =
(PID.TID 0000.0001) // =======================================================
(PID.TID 0000.0001) 
(PID.TID 0000.0001) Start initial hydrostatic pressure computation
(PID.TID 0000.0001) Pressure is predetermined for buoyancyRelation OCEANIC
(PID.TID 0000.0001) 
(PID.TID 0000.0001)  MDS_READ_FIELD: opening global file: trenberth_taux.bin
(PID.TID 0000.0001)  MDS_READ_FIELD: opening global file: trenberth_tauy.bin
(PID.TID 0000.0001)  MDS_READ_FIELD: opening global file: ncep_qnet.bin
(PID.TID 0000.0001)  MDS_READ_FIELD: opening global file: lev_sst.bin
(PID.TID 0000.0001)  MDS_READ_FIELD: opening global file: lev_sss.bin
(PID.TID 0000.0001)  MDS_READ_FIELD: opening file: xx_theta.0000000000.001.001.data
(PID.TID 0000.0001)  MDS_READ_FIELD: opening file: xx_salt.0000000000.001.001.data
(PID.TID 0000.0001)  MDS_READ_FIELD: opening file: xx_diffkr.0000000000.001.001.data
(PID.TID 0000.0001)  MDS_READ_FIELD: opening file: xx_kapgm.0000000000.001.001.data
(PID.TID 0000.0001) // =======================================================
(PID.TID 0000.0001) // Model current state
(PID.TID 0000.0001) // =======================================================
(PID.TID 0000.0001) 
S/R EXTERNAL_FIELDS_LOAD: Reading new data:   12    1         0  0.000000000000E+00
(PID.TID 0000.0001)  MDS_READ_FIELD: opening global file: trenberth_taux.bin
(PID.TID 0000.0001)  MDS_READ_FIELD: opening global file: trenberth_taux.bin
(PID.TID 0000.0001)  MDS_READ_FIELD: opening global file: trenberth_tauy.bin
(PID.TID 0000.0001)  MDS_READ_FIELD: opening global file: trenberth_tauy.bin
(PID.TID 0000.0001)  MDS_READ_FIELD: opening global file: ncep_qnet.bin
(PID.TID 0000.0001)  MDS_READ_FIELD: opening global file: ncep_qnet.bin
(PID.TID 0000.0001)  MDS_READ_FIELD: opening global file: lev_sst.bin
(PID.TID 0000.0001)  MDS_READ_FIELD: opening global file: lev_sst.bin
(PID.TID 0000.0001)  MDS_READ_FIELD: opening global file: lev_sss.bin
(PID.TID 0000.0001)  MDS_READ_FIELD: opening global file: lev_sss.bin
time,SST,SSS,fu,fv,Q,E-P,i0,i1,a,b =   0.0000E+00  5.3151E-02  3.4364E+01 -4.0500E-02 -6.3753E-02  2.6510E+02  0.0000E+00    12     1  5.0000E-01  5.0000E-01
time,fu0,fu1,fu =   0.0000E+00 -4.5368E-02 -3.5633E-02 -4.0500E-02  5.000000000000000E-01  5.000000000000000E-01
(PID.TID 0000.0001)  MDS_READ_FIELD: opening file: xx_tauu.0000000000.001.001.data
(PID.TID 0000.0001)  MDS_READ_FIELD: opening file: xx_tauv.0000000000.001.001.data
(PID.TID 0000.0001)  MDS_READ_FIELD: opening file: xx_sflux.0000000000.001.001.data
(PID.TID 0000.0001)  MDS_READ_FIELD: opening file: xx_hflux.0000000000.001.001.data
 ph-test a  1 1
 ph-test b  1
 ph-test a  1 2
 ph-test b  1
 ph-test a  1 3
 ph-test b  1
 ph-test a  1 4
 ph-test b  1
 ph-test a  1 5
 ph-test b  1
 ph-test a  1 6
 ph-test b  1
 ph-test a  1 7
 ph-test b  1
 ph-test a  1 8
 ph-test b  1
 ph-test a  1 9
 ph-test b  1
 ph-test a  1 10
 ph-test b  1
 ph-test a  1 11
 ph-test b  1
 ph-test a  1 12
 ph-test b  1
 ph-test a  1 13
 ph-test b  1
 ph-test a  1 14
 ph-test b  1
 ph-test a  1 15
 ph-test b  1
 cg2d: Sum(rhs),rhsMax =   1.05956909912663E-14  2.53674886388737E+00
time,SST,SSS,fu,fv,Q,E-P,i0,i1,a,b =   4.3200E+04  8.3327E-02  3.4375E+01 -4.0338E-02 -6.3536E-02  2.6512E+02  0.0000E+00    12     1  5.1667E-01  4.8333E-01
time,fu0,fu1,fu =   4.3200E+04 -4.5368E-02 -3.5633E-02 -4.0338E-02  5.166666666666667E-01  4.833333333333333E-01
 ph-test a  1 1
 ph-test b  1
 ph-test a  1 2
 ph-test b  1
 ph-test a  1 3
 ph-test b  1
 ph-test a  1 4
 ph-test b  1
 ph-test a  1 5
 ph-test b  1
 ph-test a  1 6
 ph-test b  1
 ph-test a  1 7
 ph-test b  1
 ph-test a  1 8
 ph-test b  1
 ph-test a  1 9
 ph-test b  1
 ph-test a  1 10
 ph-test b  1
 ph-test a  1 11
 ph-test b  1
 ph-test a  1 12
 ph-test b  1
 ph-test a  1 13
 ph-test b  1
 ph-test a  1 14
 ph-test b  1
 ph-test a  1 15
 ph-test b  1
 cg2d: Sum(rhs),rhsMax =   4.18415302405606E-15  4.94099340918605E+00
time,SST,SSS,fu,fv,Q,E-P,i0,i1,a,b =   8.6400E+04  1.1350E-01  3.4387E+01 -4.0176E-02 -6.3320E-02  2.6514E+02  0.0000E+00    12     1  5.3333E-01  4.6667E-01
time,fu0,fu1,fu =   8.6400E+04 -4.5368E-02 -3.5633E-02 -4.0176E-02  5.333333333333333E-01  4.666666666666667E-01
 ph-test a  1 1
 ph-test b  1
 ph-test a  1 2
 ph-test b  1
 ph-test a  1 3
 ph-test b  1
 ph-test a  1 4
 ph-test b  1
 ph-test a  1 5
 ph-test b  1
 ph-test a  1 6
 ph-test b  1
 ph-test a  1 7
 ph-test b  1
 ph-test a  1 8
 ph-test b  1
 ph-test a  1 9
 ph-test b  1
 ph-test a  1 10
 ph-test b  1
 ph-test a  1 11
 ph-test b  1
 ph-test a  1 12
 ph-test b  1
 ph-test a  1 13
 ph-test b  1
 ph-test a  1 14
 ph-test b  1
 ph-test a  1 15
 ph-test b  1
 cg2d: Sum(rhs),rhsMax =   2.14238349283136E-14  6.30201510737097E+00
time,SST,SSS,fu,fv,Q,E-P,i0,i1,a,b =   1.2960E+05  1.4368E-01  3.4399E+01 -4.0014E-02 -6.3103E-02  2.6516E+02  0.0000E+00    12     1  5.5000E-01  4.5000E-01
time,fu0,fu1,fu =   1.2960E+05 -4.5368E-02 -3.5633E-02 -4.0014E-02  5.500000000000000E-01  4.500000000000000E-01
 ph-test a  1 1
 ph-test b  1
 ph-test a  1 2
 ph-test b  1
 ph-test a  1 3
 ph-test b  1
 ph-test a  1 4
 ph-test b  1
 ph-test a  1 5
 ph-test b  1
 ph-test a  1 6
 ph-test b  1
 ph-test a  1 7
 ph-test b  1
 ph-test a  1 8
 ph-test b  1
 ph-test a  1 9
 ph-test b  1
 ph-test a  1 10
 ph-test b  1
 ph-test a  1 11
 ph-test b  1
 ph-test a  1 12
 ph-test b  1
 ph-test a  1 13
 ph-test b  1
 ph-test a  1 14
 ph-test b  1
 ph-test a  1 15
 ph-test b  1
 cg2d: Sum(rhs),rhsMax =   3.23005511226881E-14  6.81670284430948E+00
time,SST,SSS,fu,fv,Q,E-P,i0,i1,a,b =   1.7280E+05  1.7385E-01  3.4410E+01 -3.9851E-02 -6.2886E-02  2.6519E+02  0.0000E+00    12     1  5.6667E-01  4.3333E-01
time,fu0,fu1,fu =   1.7280E+05 -4.5368E-02 -3.5633E-02 -3.9851E-02  5.666666666666667E-01  4.333333333333333E-01
 ph-test a  1 1
 ph-test b  1
 ph-test a  1 2
 ph-test b  1
 ph-test a  1 3
 ph-test b  1
 ph-test a  1 4
 ph-test b  1
 ph-test a  1 5
 ph-test b  1
 ph-test a  1 6
 ph-test b  1
 ph-test a  1 7
 ph-test b  1
 ph-test a  1 8
 ph-test b  1
 ph-test a  1 9
 ph-test b  1
 ph-test a  1 10
 ph-test b  1
 ph-test a  1 11
 ph-test b  1
 ph-test a  1 12
 ph-test b  1
 ph-test a  1 13
 ph-test b  1
 ph-test a  1 14
 ph-test b  1
 ph-test a  1 15
 ph-test b  1
 cg2d: Sum(rhs),rhsMax =  -5.07961728235529E-14  6.91786915802128E+00
time,SST,SSS,fu,fv,Q,E-P,i0,i1,a,b =   2.1600E+05  2.0403E-01  3.4422E+01 -3.9689E-02 -6.2670E-02  2.6521E+02  0.0000E+00    12     1  5.8333E-01  4.1667E-01
time,fu0,fu1,fu =   2.1600E+05 -4.5368E-02 -3.5633E-02 -3.9689E-02  5.833333333333334E-01  4.166666666666666E-01
 ph-test a  1 1
 ph-test b  1
 ph-test a  1 2
 ph-test b  1
 ph-test a  1 3
 ph-test b  1
 ph-test a  1 4
 ph-test b  1
 ph-test a  1 5
 ph-test b  1
 ph-test a  1 6
 ph-test b  1
 ph-test a  1 7
 ph-test b  1
 ph-test a  1 8
 ph-test b  1
 ph-test a  1 9
 ph-test b  1
 ph-test a  1 10
 ph-test b  1
 ph-test a  1 11
 ph-test b  1
 ph-test a  1 12
 ph-test b  1
 ph-test a  1 13
 ph-test b  1
 ph-test a  1 14
 ph-test b  1
 ph-test a  1 15
 ph-test b  1
 cg2d: Sum(rhs),rhsMax =   2.46348080823466E-14  6.87448893655102E+00
time,SST,SSS,fu,fv,Q,E-P,i0,i1,a,b =   2.5920E+05  2.3421E-01  3.4434E+01 -3.9527E-02 -6.2453E-02  2.6523E+02  0.0000E+00    12     1  6.0000E-01  4.0000E-01
time,fu0,fu1,fu =   2.5920E+05 -4.5368E-02 -3.5633E-02 -3.9527E-02  6.000000000000000E-01  4.000000000000000E-01
 ph-test a  1 1
 ph-test b  1
 ph-test a  1 2
 ph-test b  1
 ph-test a  1 3
 ph-test b  1
 ph-test a  1 4
 ph-test b  1
 ph-test a  1 5
 ph-test b  1
 ph-test a  1 6
 ph-test b  1
 ph-test a  1 7
 ph-test b  1
 ph-test a  1 8
 ph-test b  1
 ph-test a  1 9
 ph-test b  1
 ph-test a  1 10
 ph-test b  1
 ph-test a  1 11
 ph-test b  1
 ph-test a  1 12
 ph-test b  1
 ph-test a  1 13
 ph-test b  1
 ph-test a  1 14
 ph-test b  1
 ph-test a  1 15
 ph-test b  1
 cg2d: Sum(rhs),rhsMax =  -4.09047795635331E-15  7.24604825999479E+00
time,SST,SSS,fu,fv,Q,E-P,i0,i1,a,b =   3.0240E+05  2.6438E-01  3.4446E+01 -3.9365E-02 -6.2237E-02  2.6525E+02  0.0000E+00    12     1  6.1667E-01  3.8333E-01
time,fu0,fu1,fu =   3.0240E+05 -4.5368E-02 -3.5633E-02 -3.9365E-02  6.166666666666667E-01  3.833333333333333E-01
 ph-test a  1 1
 ph-test b  1
 ph-test a  1 2
 ph-test b  1
 ph-test a  1 3
 ph-test b  1
 ph-test a  1 4
 ph-test b  1
 ph-test a  1 5
 ph-test b  1
 ph-test a  1 6
 ph-test b  1
 ph-test a  1 7
 ph-test b  1
 ph-test a  1 8
 ph-test b  1
 ph-test a  1 9
 ph-test b  1
 ph-test a  1 10
 ph-test b  1
 ph-test a  1 11
 ph-test b  1
 ph-test a  1 12
 ph-test b  1
 ph-test a  1 13
 ph-test b  1
 ph-test a  1 14
 ph-test b  1
 ph-test a  1 15
 ph-test b  1
 cg2d: Sum(rhs),rhsMax =  -1.97104919191782E-13  7.86362075184324E+00
time,SST,SSS,fu,fv,Q,E-P,i0,i1,a,b =   3.4560E+05  2.9456E-01  3.4457E+01 -3.9202E-02 -6.2020E-02  2.6528E+02  0.0000E+00    12     1  6.3333E-01  3.6667E-01
time,fu0,fu1,fu =   3.4560E+05 -4.5368E-02 -3.5633E-02 -3.9202E-02  6.333333333333333E-01  3.666666666666667E-01
 ph-test a  1 1
 ph-test b  1
 ph-test a  1 2
 ph-test b  1
 ph-test a  1 3
 ph-test b  1
 ph-test a  1 4
 ph-test b  1
 ph-test a  1 5
 ph-test b  1
 ph-test a  1 6
 ph-test b  1
 ph-test a  1 7
 ph-test b  1
 ph-test a  1 8
 ph-test b  1
 ph-test a  1 9
 ph-test b  1
 ph-test a  1 10
 ph-test b  1
 ph-test a  1 11
 ph-test b  1
 ph-test a  1 12
 ph-test b  1
 ph-test a  1 13
 ph-test b  1
 ph-test a  1 14
 ph-test b  1
 ph-test a  1 15
 ph-test b  1
 cg2d: Sum(rhs),rhsMax =  -2.49557319254023E-14  8.20455160636555E+00
time,SST,SSS,fu,fv,Q,E-P,i0,i1,a,b =   3.8880E+05  3.2473E-01  3.4469E+01 -3.9040E-02 -6.1804E-02  2.6530E+02  0.0000E+00    12     1  6.5000E-01  3.5000E-01
time,fu0,fu1,fu =   3.8880E+05 -4.5368E-02 -3.5633E-02 -3.9040E-02  6.500000000000000E-01  3.500000000000000E-01
 ph-test a  1 1
 ph-test b  1
 ph-test a  1 2
 ph-test b  1
 ph-test a  1 3
 ph-test b  1
 ph-test a  1 4
 ph-test b  1
 ph-test a  1 5
 ph-test b  1
 ph-test a  1 6
 ph-test b  1
 ph-test a  1 7
 ph-test b  1
 ph-test a  1 8
 ph-test b  1
 ph-test a  1 9
 ph-test b  1
 ph-test a  1 10
 ph-test b  1
 ph-test a  1 11
 ph-test b  1
 ph-test a  1 12
 ph-test b  1
 ph-test a  1 13
 ph-test b  1
 ph-test a  1 14
 ph-test b  1
 ph-test a  1 15
 ph-test b  1
 cg2d: Sum(rhs),rhsMax =   2.04487251784236E-13  8.29866218269600E+00
(PID.TID 0000.0001) %CHECKPOINT        10 ckptB
 --> objf_test(bi,bj)   =  0.000000000000000E+00
 --> objf_tracer(bi,bj) =  0.000000000000000E+00
 --> objf_atl(bi,bj)    = -0.456642038964022E-01
  local fc = -0.456642038964022E-01
 global fc = -0.456642038964022E-01
(PID.TID 0000.0001)  MDS_READ_FIELD: opening file: xx_theta.0000000000.001.001.data
grad-res -------------------------------
 grad-res     0    3   78   27    1    1    1    1   -.456642955874E-01 -.456643877215E-01 -.456642038964E-01
 grad-res     0    3    3 1874 2315    1    1    1   -.919197225983E-05 -.919125525689E-05 0.780031665482E-04
(PID.TID 0000.0001)   ADM  precision_derivative_cost =   -4.56642955874078E-02
(PID.TID 0000.0001)   ADM  precision_derivative_grad =   -9.19197225983377E-06
 ph-grd  ierr ---------------------------
 ph-grd  ierr =  0, icomp =  1874, ichknum =  3
 ph-grd -->hit<--  79 27 1 1
(PID.TID 0000.0001)  MDS_READ_FIELD: opening file: adxx_theta.0000000000.001.001.data
(PID.TID 0000.0001)  MDS_READ_FIELD: opening file: xx_theta.0000000000.001.001.data
(PID.TID 0000.0001)  MDS_READ_FIELD: opening global file: bathymetry.bin
(PID.TID 0000.0001) // =======================================================
(PID.TID 0000.0001) // Field Model R_low (ini_masks_etc) at iteration          1
(PID.TID 0000.0001) // CMIN =         -5.200000000000000E+03
(PID.TID 0000.0001) // CMAX =         -1.200000000000000E+02
(PID.TID 0000.0001) // CINT =          1.881481481481482E+02
(PID.TID 0000.0001) // SYMBOLS (CMIN->CMAX): -abcdefghijklmnopqrstuvwxyz+
(PID.TID 0000.0001) //                  0.0: .
(PID.TID 0000.0001) // RANGE I (Lo:Hi:Step):(  -2:  93:   1)
(PID.TID 0000.0001) // RANGE J (Lo:Hi:Step):(  43:  -2:  -1)
(PID.TID 0000.0001) // RANGE K (Lo:Hi:Step):(   1:   1:   1)
(PID.TID 0000.0001) // =======================================================
(PID.TID 0000.0001) K =   1
(PID.TID 0000.0001) //                I=7       I=17      I=27      I=37      I=47      I=57      I=67      I=77      I=87
(PID.TID 0000.0001) // |--J--|210123456|890123456|890123456|890123456|890123456|890123456|890123456|890123456|890123456|890123
(PID.TID 0000.0001) //     43 ................................................................................................
(PID.TID 0000.0001) //     42 .............................................zyxxmgfeeefefgimnpwwwy..+zyy.....yyyyoiiihhz+......
(PID.TID 0000.0001) //     41 ................................................................................................
(PID.TID 0000.0001) //     40 +qlloqz+.++++zzz++++++..................................................................+++qlloq
(PID.TID 0000.0001) //     39 uslloorzzzzzzzzz+...++.....................................................yxxz........+zvuslloo
(PID.TID 0000.0001) //     38 smqpporzzzzzz+++...........................................................zxxy+......zyyvsmqppo
(PID.TID 0000.0001) //     37 smmmuz..................................................................++...zy+...yttyy.+smmmuz
(PID.TID 0000.0001) //     36 yutt+.........................................mm++....................+++++++znmm.yoowssvuyutt+.
(PID.TID 0000.0001) //     35 w++++.................................+zzz..rrmmkk+...+gghn...........+++....+nmiijlsoopuww++++.
(PID.TID 0000.0001) //     34 +.....................................+vvy.ggqyxv+y.ccdffhim..................+nihhikkihhm+.....
(PID.TID 0000.0001) //     33 w+.....................................uuz---h------aaabdefin+.................zqvddflifffw+....
(PID.TID 0000.0001) //     32 m+.....................................+t----h---------acdfgnn................+++gdffkofffm+....
(PID.TID 0000.0001) //     31 m......................................-----ad--------abddegil..............qbaafccdhqqgddm.....
(PID.TID 0000.0001) //     30 i.....................................f----b--b------------abd............zfbb--fbcdosjfddi.....
(PID.TID 0000.0001) //     29 i...................................tu----e---fjg----------abdf...........eaac--abfmijaadgi.....
(PID.TID 0000.0001) //     28 z.................................+xfl-------------------bdedefi.........qbaa---aemfbbaaejz.....
(PID.TID 0000.0001) //     27 .................xx..............+wfgfpf--------eallc---bbbccefgi...+++x.qb-----akfa---ah.......
(PID.TID 0000.0001) //     26 .................xnn...........+vd---dna------a--aicfna---aabdfghku.++xssuy-----bgca---ci.......
(PID.TID 0000.0001) //     25 .................iiik...oo+...+ivd---doaa-bc--ilglf--aa---aabcghhkll...ssum+xaaacjbaabdjk.......
(PID.TID 0000.0001) //     24 ...............xnheeft.kkk+...uii.aagdm----aa-----a-------bbbcdefjljjju.zummwwbbchba--abi.......
(PID.TID 0000.0001) //     23 ...............xgheefp.iikw...uuw..fihi----fed-----eaaa--bbbbcdfflkjiiiq....zykccefa--abd.......
(PID.TID 0000.0001) //     22 quss...........bbelffslffkk...zz.wqkeeqoheccdfa-----egabaabcdddegghliiiqq......xeeehheehccquss..
(PID.TID 0000.0001) //     21 cbbeir........nbbcdjhqdddiiz.....wqfeelgghmedea-----bibbcddddddefghklnqoo........ieeflhgcccbbeir
(PID.TID 0000.0001) //     20 cbbder.......ldcccdgkccccidd......z.vkkktqqhegg----aaacddddddddefghkiiijl.........nhfa--gfcbbder
(PID.TID 0000.0001) //     19 hcdaaf.......kddosggpaaaibbccx...+z+.....r+nlec---agaaabcddccddefikfgffff...........d---cjhcdaaf
(PID.TID 0000.0001) //     18 hd---d.......kglggvliaaaibbcaaeaiv++...qqzolhecccfdgkaabcdfccdeeikgfgffdd+..........d---djhd---d
(PID.TID 0000.0001) //     17 hc---c.......l.feewlfaaaoaa----aiv.....qqnllslmlofcdbaacceffffhhligfigeddj.........hd---ckhc---c
(PID.TID 0000.0001) //     16 gba--c......tn.ddgnlfdaaqa-----lv.......vnllvllnwv--accivomfffhilhgfffeddjf........re--aeigba--c
(PID.TID 0000.0001) //     15 fb--dpz....+ll.ccdfhmdddlc----av.........otsxoomv---abccddfihgijkhgfffeejfff......+fd---ckfb--dp
(PID.TID 0000.0001) //     14 fc--mcl....weeqbaafilkfend--eagy.........hhstofft----aacdheefijkmjhhjijiffff.....zlfdaaadlfc--mc
(PID.TID 0000.0001) //     13 hcclbbg....nccobaaiddgkffqrqeaal.........eeutqfft------aaceeffhijlkjhhigfffq....+jgfodccflhcclbb
(PID.TID 0000.0001) //     12 hhgaaacw+iiicclemhdddfliigfdcaabfaaaz....ccsurqpc--------abcifffikiiihhggff.....kbbbdfffglhhgaaa
(PID.TID 0000.0001) //     11 kgcaaacbbifccennhbbdefnihgfdccaaaa----..dcccnt.ncab-------aabcdfilhggjiggff....l---abcefjlkgcaaa
(PID.TID 0000.0001) //     10 kfcaaccbdaacfrllfbbdegkmmljhfdddba----d.dcccfx.nyrebaba----abcdgilhfeegijgi..+w--aa-abcfilkfcaac
(PID.TID 0000.0001) //      9 lffcdcccaaaoqsolfdeehikihhlllgfedcccccdmdcccf.vyfaaaaaaaa--abdehmjhfeeefglv.++w-----abcdfklffcdc
(PID.TID 0000.0001) //      8 liffjklcaafddffeeccvznkfffhhhlkjifgjkkfeeddfsyvcaaaaaaccdcccdfgjligedbbceg+.++xffn--cfddefliffjk
(PID.TID 0000.0001) //      7 hmqnnbbkkf--bmbaabbgtykfddeffeeddccdfhlffeelfbaaaaaacddeghgjgjlligeddaaabedfiiiiiisvkfkecchmqnnb
(PID.TID 0000.0001) //      6 cca-------------aabcelttdddedddddccccdfkkiiffbaaaabcdgimmkmefecaaabbbaaabbdfiiiiispmmregifcca---
(PID.TID 0000.0001) //      5 --------a-------aaccehhhiddeddddddcccdfiikomodddefffmlmigedccaaaaaaaababbbdfiijsqgeccccbaa------
(PID.TID 0000.0001) //      4 --ahebaabbbbbeihffgijiiiijpywnnpokkomkiiijmmmolkommmgffeeedccaaaaaabbcccefhmz..yjgeccccbaa--aheb
(PID.TID 0000.0001) //      3 gffhhrpjiiwyy............................yxotmjjjjgfeeeeeeddeffffheddeghjkyy..yqjgeddccdbbgffhhr
(PID.TID 0000.0001) //      2 .............................................zyxxmgfeeefefgimnpwwwy..+zyy.....yyyyoiiihhz+......
(PID.TID 0000.0001) //      1 ................................................................................................
(PID.TID 0000.0001) //      0 +qlloqz+.++++zzz++++++..................................................................+++qlloq
(PID.TID 0000.0001) //     -1 uslloorzzzzzzzzz+...++.....................................................yxxz........+zvuslloo
(PID.TID 0000.0001) //     -2 ................................................................................................
(PID.TID 0000.0001) // =======================================================
(PID.TID 0000.0001) // END OF FIELD                                          =
(PID.TID 0000.0001) // =======================================================
(PID.TID 0000.0001) 
(PID.TID 0000.0001) // =======================================================
(PID.TID 0000.0001) // Field Model Ro_surf (ini_masks_etc) at iteration          1
(PID.TID 0000.0001) // CMIN =          1.000000000000000E+32
(PID.TID 0000.0001) // CMAX =         -1.000000000000000E+32
(PID.TID 0000.0001) // CINT =          0.000000000000000E+00
(PID.TID 0000.0001) // SYMBOLS (CMIN->CMAX): -abcdefghijklmnopqrstuvwxyz+
(PID.TID 0000.0001) //                  0.0: .
(PID.TID 0000.0001) // RANGE I (Lo:Hi:Step):(  -2:  93:   1)
(PID.TID 0000.0001) // RANGE J (Lo:Hi:Step):(  43:  -2:  -1)
(PID.TID 0000.0001) // RANGE K (Lo:Hi:Step):(   1:   1:   1)
(PID.TID 0000.0001) // =======================================================
(PID.TID 0000.0001) // =======================================================
(PID.TID 0000.0001) // END OF FIELD                                          =
(PID.TID 0000.0001) // =======================================================
(PID.TID 0000.0001) 
(PID.TID 0000.0001) // =======================================================
(PID.TID 0000.0001) // Field hFacC at iteration          1
(PID.TID 0000.0001) // CMIN =          1.000000000000000E+00
(PID.TID 0000.0001) // CMAX =          1.000000000000000E+00
(PID.TID 0000.0001) // CINT =          0.000000000000000E+00
(PID.TID 0000.0001) // SYMBOLS (CMIN->CMAX): -abcdefghijklmnopqrstuvwxyz+
(PID.TID 0000.0001) //                  0.0: .
(PID.TID 0000.0001) // RANGE I (Lo:Hi:Step):(  -2:  93:   1)
(PID.TID 0000.0001) // RANGE J (Lo:Hi:Step):(  43:  -2:  -1)
(PID.TID 0000.0001) // RANGE K (Lo:Hi:Step):(   1:   1:   1)
(PID.TID 0000.0001) // =======================================================
(PID.TID 0000.0001) // =======================================================
(PID.TID 0000.0001) // END OF FIELD                                          =
(PID.TID 0000.0001) // =======================================================
(PID.TID 0000.0001) 
(PID.TID 0000.0001) // =======================================================
(PID.TID 0000.0001) // Field hFacW at iteration          1
(PID.TID 0000.0001) // CMIN =          1.000000000000000E+00
(PID.TID 0000.0001) // CMAX =          1.000000000000000E+00
(PID.TID 0000.0001) // CINT =          0.000000000000000E+00
(PID.TID 0000.0001) // SYMBOLS (CMIN->CMAX): -abcdefghijklmnopqrstuvwxyz+
(PID.TID 0000.0001) //                  0.0: .
(PID.TID 0000.0001) // RANGE I (Lo:Hi:Step):(  -2:  93:   1)
(PID.TID 0000.0001) // RANGE J (Lo:Hi:Step):(  43:  -2:  -1)
(PID.TID 0000.0001) // RANGE K (Lo:Hi:Step):(   1:   1:   1)
(PID.TID 0000.0001) // =======================================================
(PID.TID 0000.0001) // =======================================================
(PID.TID 0000.0001) // END OF FIELD                                          =
(PID.TID 0000.0001) // =======================================================
(PID.TID 0000.0001) 
(PID.TID 0000.0001) // =======================================================
(PID.TID 0000.0001) // Field hFacS at iteration          1
(PID.TID 0000.0001) // CMIN =          1.000000000000000E+00
(PID.TID 0000.0001) // CMAX =          1.000000000000000E+00
(PID.TID 0000.0001) // CINT =          0.000000000000000E+00
(PID.TID 0000.0001) // SYMBOLS (CMIN->CMAX): -abcdefghijklmnopqrstuvwxyz+
(PID.TID 0000.0001) //                  0.0: .
(PID.TID 0000.0001) // RANGE I (Lo:Hi:Step):(  -2:  93:   1)
(PID.TID 0000.0001) // RANGE J (Lo:Hi:Step):(  43:  -2:  -1)
(PID.TID 0000.0001) // RANGE K (Lo:Hi:Step):(   1:   1:   1)
(PID.TID 0000.0001) // =======================================================
(PID.TID 0000.0001) // =======================================================
(PID.TID 0000.0001) // END OF FIELD                                          =
(PID.TID 0000.0001) // =======================================================
(PID.TID 0000.0001) 
(PID.TID 0000.0001) %MON ad_advcflfCori_max           =   1.4226580169407E-04
(PID.TID 0000.0001) %MON ad_advcflfCori_min           =  -1.4226580169407E-04
(PID.TID 0000.0001) %MON ad_advcflfCori_mean          =   7.5291817533716E-23
(PID.TID 0000.0001) %MON ad_advcflfCori_sd            =   9.6335367303778E-05
(PID.TID 0000.0001) %MON ad_advcflfCoriG_max          =   1.4112379284621E-04
(PID.TID 0000.0001) %MON ad_advcflfCoriG_min          =  -1.4323448157692E-04
(PID.TID 0000.0001) %MON ad_advcflfCoriG_mean         =  -3.5808620394229E-06
(PID.TID 0000.0001) %MON ad_advcflfCoriG_sd           =   9.6285194120965E-05
(PID.TID 0000.0001) %MON ad_advcflfCoriCos_max        =   1.4535550371427E-04
(PID.TID 0000.0001) %MON ad_advcflfCoriCos_min        =   3.0239529651320E-05
(PID.TID 0000.0001) %MON ad_advcflfCoriCos_mean       =   1.0260497651149E-04
(PID.TID 0000.0001) %MON ad_advcflfCoriCos_sd         =   3.6683828681187E-05
(PID.TID 0000.0001) INI_CG2D: CG2D normalisation factor =  6.5682677425711703E-05
(PID.TID 0000.0001) 
(PID.TID 0000.0001)  MDS_READ_FIELD: opening global file: lev_t.bin
(PID.TID 0000.0001) // =======================================================
(PID.TID 0000.0001) // Field Initial Temperature at iteration          1
(PID.TID 0000.0001) // CMIN =         -1.900000000000000E+00
(PID.TID 0000.0001) // CMAX =          2.973338890075684E+01
(PID.TID 0000.0001) // CINT =          1.171606996324327E+00
(PID.TID 0000.0001) // SYMBOLS (CMIN->CMAX): -abcdefghijklmnopqrstuvwxyz+
(PID.TID 0000.0001) //                  0.0: .
(PID.TID 0000.0001) // RANGE I (Lo:Hi:Step):(   1:  90:   1)
(PID.TID 0000.0001) // RANGE J (Lo:Hi:Step):(  40:   1:  -1)
(PID.TID 0000.0001) // RANGE K (Lo:Hi:Step):(   1:   1:   1)
(PID.TID 0000.0001) // =======================================================
(PID.TID 0000.0001) K =   1
(PID.TID 0000.0001)                I=10      I=20      I=30      I=40      I=50      I=60      I=70      I=80      I=90
(PID.TID 0000.0001) |--J--|123456789|123456789|123456789|123456789|123456789|123456789|123456789|123456789|123456789|
(PID.TID 0000.0001)     40 bccdd.baa----abdedd..................................................................bbbbb
(PID.TID 0000.0001)     39 ccdddddccbbbaa...ed.....................................................----........bbbbbb
(PID.TID 0000.0001)     38 fffgfedeedddc...........................................................-----......cbbbcde
(PID.TID 0000.0001)     37 ghh..................................................................bc...bbc...edeed.defg
(PID.TID 0000.0001)     36 hh.........................................ddcb....................dcccbabccdd.eefghhihhih
(PID.TID 0000.0001)     35 hh.................................aaab..dddeddd...ffggg...........ccc....ddeeeffghijjjjih
(PID.TID 0000.0001)     34 ...................................babb.deeeeeee.ffffgghh..................ccdffghijkkkj..
(PID.TID 0000.0001)     33 ....................................accdddeeeeefffffgghhiii.................bcfijkkllllkk.
(PID.TID 0000.0001)     32 ....................................bdddeffgffgghhhhhiiijjj................dccglmnmmmmlll.
(PID.TID 0000.0001)     31 ....................................fghiiiijjjjjjkkkkklllkk..............ikkjjmooooonnmm..
(PID.TID 0000.0001)     30 ...................................mmmnmmmmmmmmmmmmmnnnnnmm............moqrrrqrqqqpppooo..
(PID.TID 0000.0001)     29 .................................pqqqqqpppppppppoppoppppponm...........ssssssrrrrrqqqqpp..
(PID.TID 0000.0001)     28 ...............................prssssrrrsssrrrrrrrrrrrrrqqpoo.........uttssstssrssrrrqqq..
(PID.TID 0000.0001)     27 ..............vv..............stuttuuuuutuuuuuuuuuuttttssrrqqq...stuu.vvvuuuuutttttsss....
(PID.TID 0000.0001)     26 ..............vvv...........uuvvvvvwwwwwwwwvvvvvvvvvuuutttsssttv.uuvxxwwwwwwvvvvuuttsr....
(PID.TID 0000.0001)     25 ..............wwwx...xxx...vvvxxxxxyyxxxxxxxxxwwwwwvvvvvuuuuuvwwx...xxxxxxwwwwwwvvutsr....
(PID.TID 0000.0001)     24 ............wwwwxyy.xxyy...wxx.yyyyyyyyyyyxxxxxxxxwwwwwwwvvwwxxyywww.xxxxxxxxxxwwwvvur....
(PID.TID 0000.0001)     23 ............xxxyyyz.xyyy...xxx..yyyyzzyyyyyyyyxxxxxxxxxwwwwwxxxwwwwwx....vwxxxxwwwwwvu....
(PID.TID 0000.0001)     22 w...........xxyyyzyyyyyz...xx.yyzzzzzzzzzzzzzyyzyyyyyyxxwwxxxxwvvvwwxw......yyyyxxxxxxwxxw
(PID.TID 0000.0001)     21 xxx........xxxxyyzzzzzzz+.....zyzzzzzzz++zzzzyyyyyyyyxxwvvwwwwvvvvvvvu........yyyyyyyyyxxx
(PID.TID 0000.0001)     20 xww.......xyyyyxyyzzzzzz+......z.zzzzz+++zzzzzzyyyyyxxxxwvwxwvuuuuuuut.........yyyyxxxxwww
(PID.TID 0000.0001)     19 vvv.......yyyyxwwxyzyyzzzzz...zzz.....++++++z++z+zzzyyyyxxxxwwvvvvvvvu...........yyxxxwwww
(PID.TID 0000.0001)     18 uut.......zzyyywwxyzyyyyzzyzzzzzz...z+z++++zz+++++++zzzyyyyxxwwwvvvvvtt..........yyxxwvvwv
(PID.TID 0000.0001)     17 uus.......z.yyyyyyxyzzyyyyyyyzz.....yzzzzzzzzzzzzzzzzzzyyyyxxwwvuuvvuut.........yyyxxwttvu
(PID.TID 0000.0001)     16 utr......yy.zyyyyxxxxxxxwxxxxy.......yyyyyyyyyyyyyyyyyyyyyyyxxwvvvuuutts........xyyyxwvuuu
(PID.TID 0000.0001)     15 ttrr....xxx.xxxwxwwwwvwwvvvww.........xwxxxxxxxxxxxxxxxxxyyyxwwwvvuttssrr......wxxxxxwwvuu
(PID.TID 0000.0001)     14 ttsq....xyxwwxwvwwwvutuuuuuuu.........wwvwwwwvwvvwwwvwvvwwwwwwvvvuuutssrr.....vwwwwwwwvvvu
(PID.TID 0000.0001)     13 tttr....wwwvvvtttuuuutttssttt.........vvvuuuuuuutttttuuuuuvwwwuuuttttssrr....uvvvvvvvvvvut
(PID.TID 0000.0001)     12 sssssstttutssssrrrrrstrqqrrssqqrrq....uuttssssrrrrrrrrrrrstttssssrssrrqp.....uuuttssttssss
(PID.TID 0000.0001)     11 poprsssrqqqqqrqppooopqpoppppppppppp..sssrrr.rqpppqqqqppppqqqoppqqqqrqqpp....prsrqqqqqppppq
(PID.TID 0000.0001)     10 lllmoooonmnnmnnnnmmmmmmlmmlllmnnnnon.qqqppp.ppppppooooooooonmnnnonnooooo..nmoponnmnnnnnmll
(PID.TID 0000.0001)      9 ihhiiiihhhhhhiiihiiiiihhhiiiijjkkmnllnnnnn.mmmmnnnnmmmmnnmmlklllllklllll.mllmmllkjiijjihhi
(PID.TID 0000.0001)      8 eeeeeeeedefgggffeeffggffffggghiiiijjijklklkkkkkkkklllkkkkjjiiijkjjjjjjkj.kkjjiihggffffedde
(PID.TID 0000.0001)      7 cccccddeedddefeddddddddddefeefffffgggghiiiiiijjjihhgggghhhhhghhhhhhhiiiihiihhgfeddddddcccc
(PID.TID 0000.0001)      6 abbcccddcccccdddddccdddddddccddddddeeeeffggggghhgeddddddeeeeeeefggggghggggffeedccbbbbbbbba
(PID.TID 0000.0001)      5 bbbcccccccccccccccccccccbbccccdddddddcccddeeddeedcbbbbbbccccccdddeeeeeddddddccbbbbaaaaaaab
(PID.TID 0000.0001)      4 bbbbbbbaaabbbbbbbbbbbbaabbabbbbcbbbbbbbbbbbbbbbbbbbabbaaabbbbbbbbbbbbbbbbb..a--aaabbbaaabb
(PID.TID 0000.0001)      3 bbbbaaa-a-............................bbaaaaaaaaaaaaaaaaaaaaaaaaaaaaaaaab..aaaaaaaabbbaaaa
(PID.TID 0000.0001)      2 ..........................................baaaaaaaaaaaa-------aa..aaaa.....aaaaaaaaaaaa...
(PID.TID 0000.0001)      1 ..........................................................................................
(PID.TID 0000.0001) // =======================================================
(PID.TID 0000.0001) // END OF FIELD                                          =
(PID.TID 0000.0001) // =======================================================
(PID.TID 0000.0001) 
(PID.TID 0000.0001)  MDS_READ_FIELD: opening global file: lev_s.bin
(PID.TID 0000.0001) // =======================================================
(PID.TID 0000.0001) // Field Initial Salinity at iteration          1
(PID.TID 0000.0001) // CMIN =          2.975276947021484E+01
(PID.TID 0000.0001) // CMAX =          3.747562789916992E+01
(PID.TID 0000.0001) // CINT =          2.860317936650029E-01
(PID.TID 0000.0001) // SYMBOLS (CMIN->CMAX): -abcdefghijklmnopqrstuvwxyz+
(PID.TID 0000.0001) //                  0.0: .
(PID.TID 0000.0001) // RANGE I (Lo:Hi:Step):(   1:  90:   1)
(PID.TID 0000.0001) // RANGE J (Lo:Hi:Step):(  40:   1:  -1)
(PID.TID 0000.0001) // RANGE K (Lo:Hi:Step):(   1:   1:   1)
(PID.TID 0000.0001) // =======================================================
(PID.TID 0000.0001) K =   1
(PID.TID 0000.0001)                I=10      I=20      I=30      I=40      I=50      I=60      I=70      I=80      I=90
(PID.TID 0000.0001) |--J--|123456789|123456789|123456789|123456789|123456789|123456789|123456789|123456789|123456789|
(PID.TID 0000.0001)     40 qrrrr.oonnooopqtutt..................................................................mnnop
(PID.TID 0000.0001)     39 rssrrrrrrrqqpn...ut.....................................................mmmm........opqqqr
(PID.TID 0000.0001)     38 ssrrqqqqrrqpo...........................................................lkkll......onoqrrs
(PID.TID 0000.0001)     37 ssr..................................................................hg...lln...qppqr.rrrs
(PID.TID 0000.0001)     36 rr.........................................lkji....................feeegikmoop.pqrssssssss
(PID.TID 0000.0001)     35 rr.................................kkkk..lllllki...jijjj...........aa-....opqrrrrrrrssttss
(PID.TID 0000.0001)     34 ...................................jlll.kklllllk.ijkkkjih..................hlpqrqrrsstts..
(PID.TID 0000.0001)     33 ....................................iklkkkkkkkkkjkkjjjjjjii.................jmprrsstttttt.
(PID.TID 0000.0001)     32 ....................................iklllkllllllllkkkkkkkji................gilpstuuttuuut.
(PID.TID 0000.0001)     31 ....................................lmnonnnnoooonnmmmmllkjj..............loopqtvvvuuuuuu..
(PID.TID 0000.0001)     30 ...................................pppppppqqqqpppoooonnmlkk............ptvxwwvvwvvvvvvvu..
(PID.TID 0000.0001)     29 .................................pqqrqqqqqqrrrqqppqqqpponmll...........vxxxxxxwwwwwxwwxw..
(PID.TID 0000.0001)     28 ...............................prrrrrqqrrrrrsrrsrssssssrqonmm.........wxxxxxxxyyyyyyyyxx..
(PID.TID 0000.0001)     27 ..............xx..............prrrrrrrrrssssssstttssssssrqpoop...uwww.wwxxxyyy++zzzzyy....
(PID.TID 0000.0001)     26 ..............wxx...........ppqrrrrrrsssrrstsstttssrrrrrrrqppqqp.wwwvvwwwwwxyy+++zzyxw....
(PID.TID 0000.0001)     25 ..............wxxv...kkk...ooopqrrrrrssrrrrrrrssssqqpppppppppppoo...vvutuuvvwxyyyxxvvu....
(PID.TID 0000.0001)     24 ............uvvwwur.lmlk...nmm.pqqqqrrrrrqqqqrrqqrpppppooooonmmmnooo.uuuuuuttuvvvuvuut....
(PID.TID 0000.0001)     23 ............vvuvtqp.lmml...mln..ppppqpqppppppqpppppppppqppponnnnnoopm....xvuuuvvvvuuut....
(PID.TID 0000.0001)     22 r...........vuttsqqpnppn...mm.oppqqrrqqqqqqppppqqrrrqqqrrppppoopooomjj......uuvvvvvuttssrr
(PID.TID 0000.0001)     21 qmm........ttsssssssrsqon.....opqqqqqqqrrrrqqqssssssrrrrrrrrpqqqppomll........tvvvvuttssrr
(PID.TID 0000.0001)     20 sqq.......sttssrrsrrrrpol......p.qrqpqrrrrrrrstttttsssrrsssrqrrrrqqqpo.........wwwvvvuuutt
(PID.TID 0000.0001)     19 tsr.......ssssrrrrpppppnmmm...oqq.....qrqqsrrstttuuuttssttssrrssrrrrqq...........wwwvuvvvv
(PID.TID 0000.0001)     18 wut.......ssrrrrrqppppppppoooorrr...poqqqprrrttttuuutuuuuuutttttttutsss..........yyxwwxwxx
(PID.TID 0000.0001)     17 wwu.......s.rrrrrrqppppqqqqqqqr.....rrsrqrsssuusrtuuuvvvwwvvvuuuuutttss.........xyzyyyyxxx
(PID.TID 0000.0001)     16 vvt......ss.qrrssrqrqpqrrrrrrr.......ssrrstsstusrsuuuvwwwwxxwwvvvuttttsr........yz+zzzxwww
(PID.TID 0000.0001)     15 utss....stt.rrssstttsrrsrstsr.........ssstttssttsuuttuvvvvwxwwwwwuttsssrr......xyyyyxyyxwv
(PID.TID 0000.0001)     14 utts....sstrrssstuuuuuuuuuutt.........stttuutttttttuttttttuvvvvvvutsrqrrr.....vxxwwwwxwvwv
(PID.TID 0000.0001)     13 uuut....ttttttttuuuuuvtuuuuuu.........ttttuutttttttuutsssstttttstsqrqqppp....uwwwvuvvvutvv
(PID.TID 0000.0001)     12 ttttttttttttttttttttttssuuuuutuuut....tttttttttttsssssrrrrrrrqqqqqppppoo.....rvvuuttttttuu
(PID.TID 0000.0001)     11 rqsttttttttuuttttsssssrrstttttttsss..ttttts.tsssrrrrqqqqqppppoonnooooooo....oruttttsssrqrs
(PID.TID 0000.0001)     10 pppqrssrqqrqpqrssrrqqqqqqrrrrrrrrrrs.sssssr.rssrrqqpppppppooooonnnoooonn..moqrrrqqqqqqqqqq
(PID.TID 0000.0001)      9 oonooooooooonnnooooooooooppppppqqqqqrrrqrq.pppqqqqqppppppppppoooooooooll.lmoqqqqppooooopoo
(PID.TID 0000.0001)      8 nnnoonooooooonnnnnnnoooonoonoooppopqqqqqqqppopppqqqpppppppppppppppooopon.lnopppoooonnnnooo
(PID.TID 0000.0001)      7 ooooooooooopponnnooooooonnnnnonnooooooooopppppppoooooooooopppppppppoopqnnmnoooonnnonnnnnno
(PID.TID 0000.0001)      6 oooonnoonnnnooooooooooooonnnnnnnnnnnnnnnnoooopppooooooooooooooppppppppppoooooooonnnnnmnnnn
(PID.TID 0000.0001)      5 oooonnnnnnnnnnnnnnnnnoooooonnnnnnonnnnnnnnnoooooooooooonnnnnnooooooopoooonoooonnnnnnnooooo
(PID.TID 0000.0001)      4 oooonnnooonnnnnnnnnnnnnnoooooonnnooooonnnooooooooppponnnnmmmnnnnmnnoonnnnn..nnnooooooooooo
(PID.TID 0000.0001)      3 ooonnnnnnn............................nnoooooonnooooonnnnnnnoonnnnnnnnmmm..ooopooooooooooo
(PID.TID 0000.0001)      2 ..........................................pppooooonnnnnnoooppppo..nnnn.....qqqpppoooooo...
(PID.TID 0000.0001)      1 ..........................................................................................
(PID.TID 0000.0001) // =======================================================
(PID.TID 0000.0001) // END OF FIELD                                          =
(PID.TID 0000.0001) // =======================================================
(PID.TID 0000.0001) 
(PID.TID 0000.0001) Start initial hydrostatic pressure computation
(PID.TID 0000.0001) Pressure is predetermined for buoyancyRelation OCEANIC
(PID.TID 0000.0001) 
(PID.TID 0000.0001)  MDS_READ_FIELD: opening global file: trenberth_taux.bin
(PID.TID 0000.0001)  MDS_READ_FIELD: opening global file: trenberth_tauy.bin
(PID.TID 0000.0001)  MDS_READ_FIELD: opening global file: ncep_qnet.bin
(PID.TID 0000.0001)  MDS_READ_FIELD: opening global file: lev_sst.bin
(PID.TID 0000.0001)  MDS_READ_FIELD: opening global file: lev_sss.bin
(PID.TID 0000.0001)  MDS_READ_FIELD: opening file: xx_theta.0000000000.001.001.data
(PID.TID 0000.0001)  MDS_READ_FIELD: opening file: xx_salt.0000000000.001.001.data
(PID.TID 0000.0001)  MDS_READ_FIELD: opening file: xx_diffkr.0000000000.001.001.data
(PID.TID 0000.0001)  MDS_READ_FIELD: opening file: xx_kapgm.0000000000.001.001.data
(PID.TID 0000.0001) // =======================================================
(PID.TID 0000.0001) // Model current state
(PID.TID 0000.0001) // =======================================================
(PID.TID 0000.0001) 
S/R EXTERNAL_FIELDS_LOAD: Reading new data:   12    1         0  0.000000000000E+00
(PID.TID 0000.0001)  MDS_READ_FIELD: opening global file: trenberth_taux.bin
(PID.TID 0000.0001)  MDS_READ_FIELD: opening global file: trenberth_taux.bin
(PID.TID 0000.0001)  MDS_READ_FIELD: opening global file: trenberth_tauy.bin
(PID.TID 0000.0001)  MDS_READ_FIELD: opening global file: trenberth_tauy.bin
(PID.TID 0000.0001)  MDS_READ_FIELD: opening global file: ncep_qnet.bin
(PID.TID 0000.0001)  MDS_READ_FIELD: opening global file: ncep_qnet.bin
(PID.TID 0000.0001)  MDS_READ_FIELD: opening global file: lev_sst.bin
(PID.TID 0000.0001)  MDS_READ_FIELD: opening global file: lev_sst.bin
(PID.TID 0000.0001)  MDS_READ_FIELD: opening global file: lev_sss.bin
(PID.TID 0000.0001)  MDS_READ_FIELD: opening global file: lev_sss.bin
time,SST,SSS,fu,fv,Q,E-P,i0,i1,a,b =   0.0000E+00  5.3151E-02  3.4364E+01 -4.0500E-02 -6.3753E-02  2.6510E+02  0.0000E+00    12     1  5.0000E-01  5.0000E-01
time,fu0,fu1,fu =   0.0000E+00 -4.5368E-02 -3.5633E-02 -4.0500E-02  5.000000000000000E-01  5.000000000000000E-01
(PID.TID 0000.0001)  MDS_READ_FIELD: opening file: xx_tauu.0000000000.001.001.data
(PID.TID 0000.0001)  MDS_READ_FIELD: opening file: xx_tauv.0000000000.001.001.data
(PID.TID 0000.0001)  MDS_READ_FIELD: opening file: xx_sflux.0000000000.001.001.data
(PID.TID 0000.0001)  MDS_READ_FIELD: opening file: xx_hflux.0000000000.001.001.data
 ph-test a  1 1
 ph-test b  1
 ph-test a  1 2
 ph-test b  1
 ph-test a  1 3
 ph-test b  1
 ph-test a  1 4
 ph-test b  1
 ph-test a  1 5
 ph-test b  1
 ph-test a  1 6
 ph-test b  1
 ph-test a  1 7
 ph-test b  1
 ph-test a  1 8
 ph-test b  1
 ph-test a  1 9
 ph-test b  1
 ph-test a  1 10
 ph-test b  1
 ph-test a  1 11
 ph-test b  1
 ph-test a  1 12
 ph-test b  1
 ph-test a  1 13
 ph-test b  1
 ph-test a  1 14
 ph-test b  1
 ph-test a  1 15
 ph-test b  1
 cg2d: Sum(rhs),rhsMax =   1.05956909912663E-14  2.53674886388737E+00
time,SST,SSS,fu,fv,Q,E-P,i0,i1,a,b =   4.3200E+04  8.3327E-02  3.4375E+01 -4.0338E-02 -6.3536E-02  2.6512E+02  0.0000E+00    12     1  5.1667E-01  4.8333E-01
time,fu0,fu1,fu =   4.3200E+04 -4.5368E-02 -3.5633E-02 -4.0338E-02  5.166666666666667E-01  4.833333333333333E-01
 ph-test a  1 1
 ph-test b  1
 ph-test a  1 2
 ph-test b  1
 ph-test a  1 3
 ph-test b  1
 ph-test a  1 4
 ph-test b  1
 ph-test a  1 5
 ph-test b  1
 ph-test a  1 6
 ph-test b  1
 ph-test a  1 7
 ph-test b  1
 ph-test a  1 8
 ph-test b  1
 ph-test a  1 9
 ph-test b  1
 ph-test a  1 10
 ph-test b  1
 ph-test a  1 11
 ph-test b  1
 ph-test a  1 12
 ph-test b  1
 ph-test a  1 13
 ph-test b  1
 ph-test a  1 14
 ph-test b  1
 ph-test a  1 15
 ph-test b  1
 cg2d: Sum(rhs),rhsMax =  -1.65978342181461E-14  4.94099340918605E+00
time,SST,SSS,fu,fv,Q,E-P,i0,i1,a,b =   8.6400E+04  1.1350E-01  3.4387E+01 -4.0176E-02 -6.3320E-02  2.6514E+02  0.0000E+00    12     1  5.3333E-01  4.6667E-01
time,fu0,fu1,fu =   8.6400E+04 -4.5368E-02 -3.5633E-02 -4.0176E-02  5.333333333333333E-01  4.666666666666667E-01
 ph-test a  1 1
 ph-test b  1
 ph-test a  1 2
 ph-test b  1
 ph-test a  1 3
 ph-test b  1
 ph-test a  1 4
 ph-test b  1
 ph-test a  1 5
 ph-test b  1
 ph-test a  1 6
 ph-test b  1
 ph-test a  1 7
 ph-test b  1
 ph-test a  1 8
 ph-test b  1
 ph-test a  1 9
 ph-test b  1
 ph-test a  1 10
 ph-test b  1
 ph-test a  1 11
 ph-test b  1
 ph-test a  1 12
 ph-test b  1
 ph-test a  1 13
 ph-test b  1
 ph-test a  1 14
 ph-test b  1
 ph-test a  1 15
 ph-test b  1
 cg2d: Sum(rhs),rhsMax =   1.09183495577980E-14  6.30201510737097E+00
time,SST,SSS,fu,fv,Q,E-P,i0,i1,a,b =   1.2960E+05  1.4368E-01  3.4399E+01 -4.0014E-02 -6.3103E-02  2.6516E+02  0.0000E+00    12     1  5.5000E-01  4.5000E-01
time,fu0,fu1,fu =   1.2960E+05 -4.5368E-02 -3.5633E-02 -4.0014E-02  5.500000000000000E-01  4.500000000000000E-01
 ph-test a  1 1
 ph-test b  1
 ph-test a  1 2
 ph-test b  1
 ph-test a  1 3
 ph-test b  1
 ph-test a  1 4
 ph-test b  1
 ph-test a  1 5
 ph-test b  1
 ph-test a  1 6
 ph-test b  1
 ph-test a  1 7
 ph-test b  1
 ph-test a  1 8
 ph-test b  1
 ph-test a  1 9
 ph-test b  1
 ph-test a  1 10
 ph-test b  1
 ph-test a  1 11
 ph-test b  1
 ph-test a  1 12
 ph-test b  1
 ph-test a  1 13
 ph-test b  1
 ph-test a  1 14
 ph-test b  1
 ph-test a  1 15
 ph-test b  1
 cg2d: Sum(rhs),rhsMax =  -3.69808350608736E-14  6.81670284430947E+00
time,SST,SSS,fu,fv,Q,E-P,i0,i1,a,b =   1.7280E+05  1.7385E-01  3.4410E+01 -3.9851E-02 -6.2886E-02  2.6519E+02  0.0000E+00    12     1  5.6667E-01  4.3333E-01
time,fu0,fu1,fu =   1.7280E+05 -4.5368E-02 -3.5633E-02 -3.9851E-02  5.666666666666667E-01  4.333333333333333E-01
 ph-test a  1 1
 ph-test b  1
 ph-test a  1 2
 ph-test b  1
 ph-test a  1 3
 ph-test b  1
 ph-test a  1 4
 ph-test b  1
 ph-test a  1 5
 ph-test b  1
 ph-test a  1 6
 ph-test b  1
 ph-test a  1 7
 ph-test b  1
 ph-test a  1 8
 ph-test b  1
 ph-test a  1 9
 ph-test b  1
 ph-test a  1 10
 ph-test b  1
 ph-test a  1 11
 ph-test b  1
 ph-test a  1 12
 ph-test b  1
 ph-test a  1 13
 ph-test b  1
 ph-test a  1 14
 ph-test b  1
 ph-test a  1 15
 ph-test b  1
 cg2d: Sum(rhs),rhsMax =   8.56606452437347E-15  6.91786915802128E+00
time,SST,SSS,fu,fv,Q,E-P,i0,i1,a,b =   2.1600E+05  2.0403E-01  3.4422E+01 -3.9689E-02 -6.2670E-02  2.6521E+02  0.0000E+00    12     1  5.8333E-01  4.1667E-01
time,fu0,fu1,fu =   2.1600E+05 -4.5368E-02 -3.5633E-02 -3.9689E-02  5.833333333333334E-01  4.166666666666666E-01
 ph-test a  1 1
 ph-test b  1
 ph-test a  1 2
 ph-test b  1
 ph-test a  1 3
 ph-test b  1
 ph-test a  1 4
 ph-test b  1
 ph-test a  1 5
 ph-test b  1
 ph-test a  1 6
 ph-test b  1
 ph-test a  1 7
 ph-test b  1
 ph-test a  1 8
 ph-test b  1
 ph-test a  1 9
 ph-test b  1
 ph-test a  1 10
 ph-test b  1
 ph-test a  1 11
 ph-test b  1
 ph-test a  1 12
 ph-test b  1
 ph-test a  1 13
 ph-test b  1
 ph-test a  1 14
 ph-test b  1
 ph-test a  1 15
 ph-test b  1
 cg2d: Sum(rhs),rhsMax =   1.81660242404291E-14  6.87448893655062E+00
time,SST,SSS,fu,fv,Q,E-P,i0,i1,a,b =   2.5920E+05  2.3421E-01  3.4434E+01 -3.9527E-02 -6.2453E-02  2.6523E+02  0.0000E+00    12     1  6.0000E-01  4.0000E-01
time,fu0,fu1,fu =   2.5920E+05 -4.5368E-02 -3.5633E-02 -3.9527E-02  6.000000000000000E-01  4.000000000000000E-01
 ph-test a  1 1
 ph-test b  1
 ph-test a  1 2
 ph-test b  1
 ph-test a  1 3
 ph-test b  1
 ph-test a  1 4
 ph-test b  1
 ph-test a  1 5
 ph-test b  1
 ph-test a  1 6
 ph-test b  1
 ph-test a  1 7
 ph-test b  1
 ph-test a  1 8
 ph-test b  1
 ph-test a  1 9
 ph-test b  1
 ph-test a  1 10
 ph-test b  1
 ph-test a  1 11
 ph-test b  1
 ph-test a  1 12
 ph-test b  1
 ph-test a  1 13
 ph-test b  1
 ph-test a  1 14
 ph-test b  1
 ph-test a  1 15
 ph-test b  1
 cg2d: Sum(rhs),rhsMax =   4.91993598639162E-14  7.24604825999480E+00
time,SST,SSS,fu,fv,Q,E-P,i0,i1,a,b =   3.0240E+05  2.6438E-01  3.4446E+01 -3.9365E-02 -6.2237E-02  2.6525E+02  0.0000E+00    12     1  6.1667E-01  3.8333E-01
time,fu0,fu1,fu =   3.0240E+05 -4.5368E-02 -3.5633E-02 -3.9365E-02  6.166666666666667E-01  3.833333333333333E-01
 ph-test a  1 1
 ph-test b  1
 ph-test a  1 2
 ph-test b  1
 ph-test a  1 3
 ph-test b  1
 ph-test a  1 4
 ph-test b  1
 ph-test a  1 5
 ph-test b  1
 ph-test a  1 6
 ph-test b  1
 ph-test a  1 7
 ph-test b  1
 ph-test a  1 8
 ph-test b  1
 ph-test a  1 9
 ph-test b  1
 ph-test a  1 10
 ph-test b  1
 ph-test a  1 11
 ph-test b  1
 ph-test a  1 12
 ph-test b  1
 ph-test a  1 13
 ph-test b  1
 ph-test a  1 14
 ph-test b  1
 ph-test a  1 15
 ph-test b  1
 cg2d: Sum(rhs),rhsMax =   5.35027751269457E-14  7.86362075184325E+00
time,SST,SSS,fu,fv,Q,E-P,i0,i1,a,b =   3.4560E+05  2.9456E-01  3.4457E+01 -3.9202E-02 -6.2020E-02  2.6528E+02  0.0000E+00    12     1  6.3333E-01  3.6667E-01
time,fu0,fu1,fu =   3.4560E+05 -4.5368E-02 -3.5633E-02 -3.9202E-02  6.333333333333333E-01  3.666666666666667E-01
 ph-test a  1 1
 ph-test b  1
 ph-test a  1 2
 ph-test b  1
 ph-test a  1 3
 ph-test b  1
 ph-test a  1 4
 ph-test b  1
 ph-test a  1 5
 ph-test b  1
 ph-test a  1 6
 ph-test b  1
 ph-test a  1 7
 ph-test b  1
 ph-test a  1 8
 ph-test b  1
 ph-test a  1 9
 ph-test b  1
 ph-test a  1 10
 ph-test b  1
 ph-test a  1 11
 ph-test b  1
 ph-test a  1 12
 ph-test b  1
 ph-test a  1 13
 ph-test b  1
 ph-test a  1 14
 ph-test b  1
 ph-test a  1 15
 ph-test b  1
 cg2d: Sum(rhs),rhsMax =  -4.22896309984488E-14  8.20455160636556E+00
time,SST,SSS,fu,fv,Q,E-P,i0,i1,a,b =   3.8880E+05  3.2473E-01  3.4469E+01 -3.9040E-02 -6.1804E-02  2.6530E+02  0.0000E+00    12     1  6.5000E-01  3.5000E-01
time,fu0,fu1,fu =   3.8880E+05 -4.5368E-02 -3.5633E-02 -3.9040E-02  6.500000000000000E-01  3.500000000000000E-01
 ph-test a  1 1
 ph-test b  1
 ph-test a  1 2
 ph-test b  1
 ph-test a  1 3
 ph-test b  1
 ph-test a  1 4
 ph-test b  1
 ph-test a  1 5
 ph-test b  1
 ph-test a  1 6
 ph-test b  1
 ph-test a  1 7
 ph-test b  1
 ph-test a  1 8
 ph-test b  1
 ph-test a  1 9
 ph-test b  1
 ph-test a  1 10
 ph-test b  1
 ph-test a  1 11
 ph-test b  1
 ph-test a  1 12
 ph-test b  1
 ph-test a  1 13
 ph-test b  1
 ph-test a  1 14
 ph-test b  1
 ph-test a  1 15
 ph-test b  1
 cg2d: Sum(rhs),rhsMax =   2.97242699204281E-14  8.29866218269601E+00
(PID.TID 0000.0001) %CHECKPOINT        10 ckptA
 --> objf_test(bi,bj)   =  0.000000000000000E+00
 --> objf_tracer(bi,bj) =  0.000000000000000E+00
 --> objf_atl(bi,bj)    = -0.456646272797508E-01
  local fc = -0.456646272797508E-01
 global fc = -0.456646272797508E-01
 ph-check fcpertplus =  -0.0456646273
(PID.TID 0000.0001)  MDS_READ_FIELD: opening file: xx_theta.0000000000.001.001.data
 ph-check fcpertminus =  -0.0456642956
(PID.TID 0000.0001)  MDS_READ_FIELD: opening file: xx_theta.0000000000.001.001.data
(PID.TID 0000.0001)  MDS_READ_FIELD: opening global file: bathymetry.bin
(PID.TID 0000.0001) // =======================================================
(PID.TID 0000.0001) // Field Model R_low (ini_masks_etc) at iteration          1
(PID.TID 0000.0001) // CMIN =         -5.200000000000000E+03
(PID.TID 0000.0001) // CMAX =         -1.200000000000000E+02
(PID.TID 0000.0001) // CINT =          1.881481481481482E+02
(PID.TID 0000.0001) // SYMBOLS (CMIN->CMAX): -abcdefghijklmnopqrstuvwxyz+
(PID.TID 0000.0001) //                  0.0: .
(PID.TID 0000.0001) // RANGE I (Lo:Hi:Step):(  -2:  93:   1)
(PID.TID 0000.0001) // RANGE J (Lo:Hi:Step):(  43:  -2:  -1)
(PID.TID 0000.0001) // RANGE K (Lo:Hi:Step):(   1:   1:   1)
(PID.TID 0000.0001) // =======================================================
(PID.TID 0000.0001) K =   1
(PID.TID 0000.0001) //                I=7       I=17      I=27      I=37      I=47      I=57      I=67      I=77      I=87
(PID.TID 0000.0001) // |--J--|210123456|890123456|890123456|890123456|890123456|890123456|890123456|890123456|890123456|890123
(PID.TID 0000.0001) //     43 ................................................................................................
(PID.TID 0000.0001) //     42 .............................................zyxxmgfeeefefgimnpwwwy..+zyy.....yyyyoiiihhz+......
(PID.TID 0000.0001) //     41 ................................................................................................
(PID.TID 0000.0001) //     40 +qlloqz+.++++zzz++++++..................................................................+++qlloq
(PID.TID 0000.0001) //     39 uslloorzzzzzzzzz+...++.....................................................yxxz........+zvuslloo
(PID.TID 0000.0001) //     38 smqpporzzzzzz+++...........................................................zxxy+......zyyvsmqppo
(PID.TID 0000.0001) //     37 smmmuz..................................................................++...zy+...yttyy.+smmmuz
(PID.TID 0000.0001) //     36 yutt+.........................................mm++....................+++++++znmm.yoowssvuyutt+.
(PID.TID 0000.0001) //     35 w++++.................................+zzz..rrmmkk+...+gghn...........+++....+nmiijlsoopuww++++.
(PID.TID 0000.0001) //     34 +.....................................+vvy.ggqyxv+y.ccdffhim..................+nihhikkihhm+.....
(PID.TID 0000.0001) //     33 w+.....................................uuz---h------aaabdefin+.................zqvddflifffw+....
(PID.TID 0000.0001) //     32 m+.....................................+t----h---------acdfgnn................+++gdffkofffm+....
(PID.TID 0000.0001) //     31 m......................................-----ad--------abddegil..............qbaafccdhqqgddm.....
(PID.TID 0000.0001) //     30 i.....................................f----b--b------------abd............zfbb--fbcdosjfddi.....
(PID.TID 0000.0001) //     29 i...................................tu----e---fjg----------abdf...........eaac--abfmijaadgi.....
(PID.TID 0000.0001) //     28 z.................................+xfl-------------------bdedefi.........qbaa---aemfbbaaejz.....
(PID.TID 0000.0001) //     27 .................xx..............+wfgfpf--------eallc---bbbccefgi...+++x.qb-----akfa---ah.......
(PID.TID 0000.0001) //     26 .................xnn...........+vd---dna------a--aicfna---aabdfghku.++xssuy-----bgca---ci.......
(PID.TID 0000.0001) //     25 .................iiik...oo+...+ivd---doaa-bc--ilglf--aa---aabcghhkll...ssum+xaaacjbaabdjk.......
(PID.TID 0000.0001) //     24 ...............xnheeft.kkk+...uii.aagdm----aa-----a-------bbbcdefjljjju.zummwwbbchba--abi.......
(PID.TID 0000.0001) //     23 ...............xgheefp.iikw...uuw..fihi----fed-----eaaa--bbbbcdfflkjiiiq....zykccefa--abd.......
(PID.TID 0000.0001) //     22 quss...........bbelffslffkk...zz.wqkeeqoheccdfa-----egabaabcdddegghliiiqq......xeeehheehccquss..
(PID.TID 0000.0001) //     21 cbbeir........nbbcdjhqdddiiz.....wqfeelgghmedea-----bibbcddddddefghklnqoo........ieeflhgcccbbeir
(PID.TID 0000.0001) //     20 cbbder.......ldcccdgkccccidd......z.vkkktqqhegg----aaacddddddddefghkiiijl.........nhfa--gfcbbder
(PID.TID 0000.0001) //     19 hcdaaf.......kddosggpaaaibbccx...+z+.....r+nlec---agaaabcddccddefikfgffff...........d---cjhcdaaf
(PID.TID 0000.0001) //     18 hd---d.......kglggvliaaaibbcaaeaiv++...qqzolhecccfdgkaabcdfccdeeikgfgffdd+..........d---djhd---d
(PID.TID 0000.0001) //     17 hc---c.......l.feewlfaaaoaa----aiv.....qqnllslmlofcdbaacceffffhhligfigeddj.........hd---ckhc---c
(PID.TID 0000.0001) //     16 gba--c......tn.ddgnlfdaaqa-----lv.......vnllvllnwv--accivomfffhilhgfffeddjf........re--aeigba--c
(PID.TID 0000.0001) //     15 fb--dpz....+ll.ccdfhmdddlc----av.........otsxoomv---abccddfihgijkhgfffeejfff......+fd---ckfb--dp
(PID.TID 0000.0001) //     14 fc--mcl....weeqbaafilkfend--eagy.........hhstofft----aacdheefijkmjhhjijiffff.....zlfdaaadlfc--mc
(PID.TID 0000.0001) //     13 hcclbbg....nccobaaiddgkffqrqeaal.........eeutqfft------aaceeffhijlkjhhigfffq....+jgfodccflhcclbb
(PID.TID 0000.0001) //     12 hhgaaacw+iiicclemhdddfliigfdcaabfaaaz....ccsurqpc--------abcifffikiiihhggff.....kbbbdfffglhhgaaa
(PID.TID 0000.0001) //     11 kgcaaacbbifccennhbbdefnihgfdccaaaa----..dcccnt.ncab-------aabcdfilhggjiggff....l---abcefjlkgcaaa
(PID.TID 0000.0001) //     10 kfcaaccbdaacfrllfbbdegkmmljhfdddba----d.dcccfx.nyrebaba----abcdgilhfeegijgi..+w--aa-abcfilkfcaac
(PID.TID 0000.0001) //      9 lffcdcccaaaoqsolfdeehikihhlllgfedcccccdmdcccf.vyfaaaaaaaa--abdehmjhfeeefglv.++w-----abcdfklffcdc
(PID.TID 0000.0001) //      8 liffjklcaafddffeeccvznkfffhhhlkjifgjkkfeeddfsyvcaaaaaaccdcccdfgjligedbbceg+.++xffn--cfddefliffjk
(PID.TID 0000.0001) //      7 hmqnnbbkkf--bmbaabbgtykfddeffeeddccdfhlffeelfbaaaaaacddeghgjgjlligeddaaabedfiiiiiisvkfkecchmqnnb
(PID.TID 0000.0001) //      6 cca-------------aabcelttdddedddddccccdfkkiiffbaaaabcdgimmkmefecaaabbbaaabbdfiiiiispmmregifcca---
(PID.TID 0000.0001) //      5 --------a-------aaccehhhiddeddddddcccdfiikomodddefffmlmigedccaaaaaaaababbbdfiijsqgeccccbaa------
(PID.TID 0000.0001) //      4 --ahebaabbbbbeihffgijiiiijpywnnpokkomkiiijmmmolkommmgffeeedccaaaaaabbcccefhmz..yjgeccccbaa--aheb
(PID.TID 0000.0001) //      3 gffhhrpjiiwyy............................yxotmjjjjgfeeeeeeddeffffheddeghjkyy..yqjgeddccdbbgffhhr
(PID.TID 0000.0001) //      2 .............................................zyxxmgfeeefefgimnpwwwy..+zyy.....yyyyoiiihhz+......
(PID.TID 0000.0001) //      1 ................................................................................................
(PID.TID 0000.0001) //      0 +qlloqz+.++++zzz++++++..................................................................+++qlloq
(PID.TID 0000.0001) //     -1 uslloorzzzzzzzzz+...++.....................................................yxxz........+zvuslloo
(PID.TID 0000.0001) //     -2 ................................................................................................
(PID.TID 0000.0001) // =======================================================
(PID.TID 0000.0001) // END OF FIELD                                          =
(PID.TID 0000.0001) // =======================================================
(PID.TID 0000.0001) 
(PID.TID 0000.0001) // =======================================================
(PID.TID 0000.0001) // Field Model Ro_surf (ini_masks_etc) at iteration          1
(PID.TID 0000.0001) // CMIN =          1.000000000000000E+32
(PID.TID 0000.0001) // CMAX =         -1.000000000000000E+32
(PID.TID 0000.0001) // CINT =          0.000000000000000E+00
(PID.TID 0000.0001) // SYMBOLS (CMIN->CMAX): -abcdefghijklmnopqrstuvwxyz+
(PID.TID 0000.0001) //                  0.0: .
(PID.TID 0000.0001) // RANGE I (Lo:Hi:Step):(  -2:  93:   1)
(PID.TID 0000.0001) // RANGE J (Lo:Hi:Step):(  43:  -2:  -1)
(PID.TID 0000.0001) // RANGE K (Lo:Hi:Step):(   1:   1:   1)
(PID.TID 0000.0001) // =======================================================
(PID.TID 0000.0001) // =======================================================
(PID.TID 0000.0001) // END OF FIELD                                          =
(PID.TID 0000.0001) // =======================================================
(PID.TID 0000.0001) 
(PID.TID 0000.0001) // =======================================================
(PID.TID 0000.0001) // Field hFacC at iteration          1
(PID.TID 0000.0001) // CMIN =          1.000000000000000E+00
(PID.TID 0000.0001) // CMAX =          1.000000000000000E+00
(PID.TID 0000.0001) // CINT =          0.000000000000000E+00
(PID.TID 0000.0001) // SYMBOLS (CMIN->CMAX): -abcdefghijklmnopqrstuvwxyz+
(PID.TID 0000.0001) //                  0.0: .
(PID.TID 0000.0001) // RANGE I (Lo:Hi:Step):(  -2:  93:   1)
(PID.TID 0000.0001) // RANGE J (Lo:Hi:Step):(  43:  -2:  -1)
(PID.TID 0000.0001) // RANGE K (Lo:Hi:Step):(   1:   1:   1)
(PID.TID 0000.0001) // =======================================================
(PID.TID 0000.0001) // =======================================================
(PID.TID 0000.0001) // END OF FIELD                                          =
(PID.TID 0000.0001) // =======================================================
(PID.TID 0000.0001) 
(PID.TID 0000.0001) // =======================================================
(PID.TID 0000.0001) // Field hFacW at iteration          1
(PID.TID 0000.0001) // CMIN =          1.000000000000000E+00
(PID.TID 0000.0001) // CMAX =          1.000000000000000E+00
(PID.TID 0000.0001) // CINT =          0.000000000000000E+00
(PID.TID 0000.0001) // SYMBOLS (CMIN->CMAX): -abcdefghijklmnopqrstuvwxyz+
(PID.TID 0000.0001) //                  0.0: .
(PID.TID 0000.0001) // RANGE I (Lo:Hi:Step):(  -2:  93:   1)
(PID.TID 0000.0001) // RANGE J (Lo:Hi:Step):(  43:  -2:  -1)
(PID.TID 0000.0001) // RANGE K (Lo:Hi:Step):(   1:   1:   1)
(PID.TID 0000.0001) // =======================================================
(PID.TID 0000.0001) // =======================================================
(PID.TID 0000.0001) // END OF FIELD                                          =
(PID.TID 0000.0001) // =======================================================
(PID.TID 0000.0001) 
(PID.TID 0000.0001) // =======================================================
(PID.TID 0000.0001) // Field hFacS at iteration          1
(PID.TID 0000.0001) // CMIN =          1.000000000000000E+00
(PID.TID 0000.0001) // CMAX =          1.000000000000000E+00
(PID.TID 0000.0001) // CINT =          0.000000000000000E+00
(PID.TID 0000.0001) // SYMBOLS (CMIN->CMAX): -abcdefghijklmnopqrstuvwxyz+
(PID.TID 0000.0001) //                  0.0: .
(PID.TID 0000.0001) // RANGE I (Lo:Hi:Step):(  -2:  93:   1)
(PID.TID 0000.0001) // RANGE J (Lo:Hi:Step):(  43:  -2:  -1)
(PID.TID 0000.0001) // RANGE K (Lo:Hi:Step):(   1:   1:   1)
(PID.TID 0000.0001) // =======================================================
(PID.TID 0000.0001) // =======================================================
(PID.TID 0000.0001) // END OF FIELD                                          =
(PID.TID 0000.0001) // =======================================================
(PID.TID 0000.0001) 
(PID.TID 0000.0001) %MON ad_advcflfCori_max           =   1.4226580169407E-04
(PID.TID 0000.0001) %MON ad_advcflfCori_min           =  -1.4226580169407E-04
(PID.TID 0000.0001) %MON ad_advcflfCori_mean          =   7.5291817533716E-23
(PID.TID 0000.0001) %MON ad_advcflfCori_sd            =   9.6335367303778E-05
(PID.TID 0000.0001) %MON ad_advcflfCoriG_max          =   1.4112379284621E-04
(PID.TID 0000.0001) %MON ad_advcflfCoriG_min          =  -1.4323448157692E-04
(PID.TID 0000.0001) %MON ad_advcflfCoriG_mean         =  -3.5808620394229E-06
(PID.TID 0000.0001) %MON ad_advcflfCoriG_sd           =   9.6285194120965E-05
(PID.TID 0000.0001) %MON ad_advcflfCoriCos_max        =   1.4535550371427E-04
(PID.TID 0000.0001) %MON ad_advcflfCoriCos_min        =   3.0239529651320E-05
(PID.TID 0000.0001) %MON ad_advcflfCoriCos_mean       =   1.0260497651149E-04
(PID.TID 0000.0001) %MON ad_advcflfCoriCos_sd         =   3.6683828681187E-05
(PID.TID 0000.0001) INI_CG2D: CG2D normalisation factor =  6.5682677425711703E-05
(PID.TID 0000.0001) 
(PID.TID 0000.0001)  MDS_READ_FIELD: opening global file: lev_t.bin
(PID.TID 0000.0001) // =======================================================
(PID.TID 0000.0001) // Field Initial Temperature at iteration          1
(PID.TID 0000.0001) // CMIN =         -1.900000000000000E+00
(PID.TID 0000.0001) // CMAX =          2.973338890075684E+01
(PID.TID 0000.0001) // CINT =          1.171606996324327E+00
(PID.TID 0000.0001) // SYMBOLS (CMIN->CMAX): -abcdefghijklmnopqrstuvwxyz+
(PID.TID 0000.0001) //                  0.0: .
(PID.TID 0000.0001) // RANGE I (Lo:Hi:Step):(   1:  90:   1)
(PID.TID 0000.0001) // RANGE J (Lo:Hi:Step):(  40:   1:  -1)
(PID.TID 0000.0001) // RANGE K (Lo:Hi:Step):(   1:   1:   1)
(PID.TID 0000.0001) // =======================================================
(PID.TID 0000.0001) K =   1
(PID.TID 0000.0001)                I=10      I=20      I=30      I=40      I=50      I=60      I=70      I=80      I=90
(PID.TID 0000.0001) |--J--|123456789|123456789|123456789|123456789|123456789|123456789|123456789|123456789|123456789|
(PID.TID 0000.0001)     40 bccdd.baa----abdedd..................................................................bbbbb
(PID.TID 0000.0001)     39 ccdddddccbbbaa...ed.....................................................----........bbbbbb
(PID.TID 0000.0001)     38 fffgfedeedddc...........................................................-----......cbbbcde
(PID.TID 0000.0001)     37 ghh..................................................................bc...bbc...edeed.defg
(PID.TID 0000.0001)     36 hh.........................................ddcb....................dcccbabccdd.eefghhihhih
(PID.TID 0000.0001)     35 hh.................................aaab..dddeddd...ffggg...........ccc....ddeeeffghijjjjih
(PID.TID 0000.0001)     34 ...................................babb.deeeeeee.ffffgghh..................ccdffghijkkkj..
(PID.TID 0000.0001)     33 ....................................accdddeeeeefffffgghhiii.................bcfijkkllllkk.
(PID.TID 0000.0001)     32 ....................................bdddeffgffgghhhhhiiijjj................dccglmnmmmmlll.
(PID.TID 0000.0001)     31 ....................................fghiiiijjjjjjkkkkklllkk..............ikkjjmooooonnmm..
(PID.TID 0000.0001)     30 ...................................mmmnmmmmmmmmmmmmmnnnnnmm............moqrrrqrqqqpppooo..
(PID.TID 0000.0001)     29 .................................pqqqqqpppppppppoppoppppponm...........ssssssrrrrrqqqqpp..
(PID.TID 0000.0001)     28 ...............................prssssrrrsssrrrrrrrrrrrrrqqpoo.........uttssstssrssrrrqqq..
(PID.TID 0000.0001)     27 ..............vv..............stuttuuuuutuuuuuuuuuuttttssrrqqq...stuu.vvvuuuuutttttsss....
(PID.TID 0000.0001)     26 ..............vvv...........uuvvvvvwwwwwwwwvvvvvvvvvuuutttsssttv.uuvxxwwwwwwvvvvuuttsr....
(PID.TID 0000.0001)     25 ..............wwwx...xxx...vvvxxxxxyyxxxxxxxxxwwwwwvvvvvuuuuuvwwx...xxxxxxwwwwwwvvutsr....
(PID.TID 0000.0001)     24 ............wwwwxyy.xxyy...wxx.yyyyyyyyyyyxxxxxxxxwwwwwwwvvwwxxyywww.xxxxxxxxxxwwwvvur....
(PID.TID 0000.0001)     23 ............xxxyyyz.xyyy...xxx..yyyyzzyyyyyyyyxxxxxxxxxwwwwwxxxwwwwwx....vwxxxxwwwwwvu....
(PID.TID 0000.0001)     22 w...........xxyyyzyyyyyz...xx.yyzzzzzzzzzzzzzyyzyyyyyyxxwwxxxxwvvvwwxw......yyyyxxxxxxwxxw
(PID.TID 0000.0001)     21 xxx........xxxxyyzzzzzzz+.....zyzzzzzzz++zzzzyyyyyyyyxxwvvwwwwvvvvvvvu........yyyyyyyyyxxx
(PID.TID 0000.0001)     20 xww.......xyyyyxyyzzzzzz+......z.zzzzz+++zzzzzzyyyyyxxxxwvwxwvuuuuuuut.........yyyyxxxxwww
(PID.TID 0000.0001)     19 vvv.......yyyyxwwxyzyyzzzzz...zzz.....++++++z++z+zzzyyyyxxxxwwvvvvvvvu...........yyxxxwwww
(PID.TID 0000.0001)     18 uut.......zzyyywwxyzyyyyzzyzzzzzz...z+z++++zz+++++++zzzyyyyxxwwwvvvvvtt..........yyxxwvvwv
(PID.TID 0000.0001)     17 uus.......z.yyyyyyxyzzyyyyyyyzz.....yzzzzzzzzzzzzzzzzzzyyyyxxwwvuuvvuut.........yyyxxwttvu
(PID.TID 0000.0001)     16 utr......yy.zyyyyxxxxxxxwxxxxy.......yyyyyyyyyyyyyyyyyyyyyyyxxwvvvuuutts........xyyyxwvuuu
(PID.TID 0000.0001)     15 ttrr....xxx.xxxwxwwwwvwwvvvww.........xwxxxxxxxxxxxxxxxxxyyyxwwwvvuttssrr......wxxxxxwwvuu
(PID.TID 0000.0001)     14 ttsq....xyxwwxwvwwwvutuuuuuuu.........wwvwwwwvwvvwwwvwvvwwwwwwvvvuuutssrr.....vwwwwwwwvvvu
(PID.TID 0000.0001)     13 tttr....wwwvvvtttuuuutttssttt.........vvvuuuuuuutttttuuuuuvwwwuuuttttssrr....uvvvvvvvvvvut
(PID.TID 0000.0001)     12 sssssstttutssssrrrrrstrqqrrssqqrrq....uuttssssrrrrrrrrrrrstttssssrssrrqp.....uuuttssttssss
(PID.TID 0000.0001)     11 poprsssrqqqqqrqppooopqpoppppppppppp..sssrrr.rqpppqqqqppppqqqoppqqqqrqqpp....prsrqqqqqppppq
(PID.TID 0000.0001)     10 lllmoooonmnnmnnnnmmmmmmlmmlllmnnnnon.qqqppp.ppppppooooooooonmnnnonnooooo..nmoponnmnnnnnmll
(PID.TID 0000.0001)      9 ihhiiiihhhhhhiiihiiiiihhhiiiijjkkmnllnnnnn.mmmmnnnnmmmmnnmmlklllllklllll.mllmmllkjiijjihhi
(PID.TID 0000.0001)      8 eeeeeeeedefgggffeeffggffffggghiiiijjijklklkkkkkkkklllkkkkjjiiijkjjjjjjkj.kkjjiihggffffedde
(PID.TID 0000.0001)      7 cccccddeedddefeddddddddddefeefffffgggghiiiiiijjjihhgggghhhhhghhhhhhhiiiihiihhgfeddddddcccc
(PID.TID 0000.0001)      6 abbcccddcccccdddddccdddddddccddddddeeeeffggggghhgeddddddeeeeeeefggggghggggffeedccbbbbbbbba
(PID.TID 0000.0001)      5 bbbcccccccccccccccccccccbbccccdddddddcccddeeddeedcbbbbbbccccccdddeeeeeddddddccbbbbaaaaaaab
(PID.TID 0000.0001)      4 bbbbbbbaaabbbbbbbbbbbbaabbabbbbcbbbbbbbbbbbbbbbbbbbabbaaabbbbbbbbbbbbbbbbb..a--aaabbbaaabb
(PID.TID 0000.0001)      3 bbbbaaa-a-............................bbaaaaaaaaaaaaaaaaaaaaaaaaaaaaaaaab..aaaaaaaabbbaaaa
(PID.TID 0000.0001)      2 ..........................................baaaaaaaaaaaa-------aa..aaaa.....aaaaaaaaaaaa...
(PID.TID 0000.0001)      1 ..........................................................................................
(PID.TID 0000.0001) // =======================================================
(PID.TID 0000.0001) // END OF FIELD                                          =
(PID.TID 0000.0001) // =======================================================
(PID.TID 0000.0001) 
(PID.TID 0000.0001)  MDS_READ_FIELD: opening global file: lev_s.bin
(PID.TID 0000.0001) // =======================================================
(PID.TID 0000.0001) // Field Initial Salinity at iteration          1
(PID.TID 0000.0001) // CMIN =          2.975276947021484E+01
(PID.TID 0000.0001) // CMAX =          3.747562789916992E+01
(PID.TID 0000.0001) // CINT =          2.860317936650029E-01
(PID.TID 0000.0001) // SYMBOLS (CMIN->CMAX): -abcdefghijklmnopqrstuvwxyz+
(PID.TID 0000.0001) //                  0.0: .
(PID.TID 0000.0001) // RANGE I (Lo:Hi:Step):(   1:  90:   1)
(PID.TID 0000.0001) // RANGE J (Lo:Hi:Step):(  40:   1:  -1)
(PID.TID 0000.0001) // RANGE K (Lo:Hi:Step):(   1:   1:   1)
(PID.TID 0000.0001) // =======================================================
(PID.TID 0000.0001) K =   1
(PID.TID 0000.0001)                I=10      I=20      I=30      I=40      I=50      I=60      I=70      I=80      I=90
(PID.TID 0000.0001) |--J--|123456789|123456789|123456789|123456789|123456789|123456789|123456789|123456789|123456789|
(PID.TID 0000.0001)     40 qrrrr.oonnooopqtutt..................................................................mnnop
(PID.TID 0000.0001)     39 rssrrrrrrrqqpn...ut.....................................................mmmm........opqqqr
(PID.TID 0000.0001)     38 ssrrqqqqrrqpo...........................................................lkkll......onoqrrs
(PID.TID 0000.0001)     37 ssr..................................................................hg...lln...qppqr.rrrs
(PID.TID 0000.0001)     36 rr.........................................lkji....................feeegikmoop.pqrssssssss
(PID.TID 0000.0001)     35 rr.................................kkkk..lllllki...jijjj...........aa-....opqrrrrrrrssttss
(PID.TID 0000.0001)     34 ...................................jlll.kklllllk.ijkkkjih..................hlpqrqrrsstts..
(PID.TID 0000.0001)     33 ....................................iklkkkkkkkkkjkkjjjjjjii.................jmprrsstttttt.
(PID.TID 0000.0001)     32 ....................................iklllkllllllllkkkkkkkji................gilpstuuttuuut.
(PID.TID 0000.0001)     31 ....................................lmnonnnnoooonnmmmmllkjj..............loopqtvvvuuuuuu..
(PID.TID 0000.0001)     30 ...................................pppppppqqqqpppoooonnmlkk............ptvxwwvvwvvvvvvvu..
(PID.TID 0000.0001)     29 .................................pqqrqqqqqqrrrqqppqqqpponmll...........vxxxxxxwwwwwxwwxw..
(PID.TID 0000.0001)     28 ...............................prrrrrqqrrrrrsrrsrssssssrqonmm.........wxxxxxxxyyyyyyyyxx..
(PID.TID 0000.0001)     27 ..............xx..............prrrrrrrrrssssssstttssssssrqpoop...uwww.wwxxxyyy++zzzzyy....
(PID.TID 0000.0001)     26 ..............wxx...........ppqrrrrrrsssrrstsstttssrrrrrrrqppqqp.wwwvvwwwwwxyy+++zzyxw....
(PID.TID 0000.0001)     25 ..............wxxv...kkk...ooopqrrrrrssrrrrrrrssssqqpppppppppppoo...vvutuuvvwxyyyxxvvu....
(PID.TID 0000.0001)     24 ............uvvwwur.lmlk...nmm.pqqqqrrrrrqqqqrrqqrpppppooooonmmmnooo.uuuuuuttuvvvuvuut....
(PID.TID 0000.0001)     23 ............vvuvtqp.lmml...mln..ppppqpqppppppqpppppppppqppponnnnnoopm....xvuuuvvvvuuut....
(PID.TID 0000.0001)     22 r...........vuttsqqpnppn...mm.oppqqrrqqqqqqppppqqrrrqqqrrppppoopooomjj......uuvvvvvuttssrr
(PID.TID 0000.0001)     21 qmm........ttsssssssrsqon.....opqqqqqqqrrrrqqqssssssrrrrrrrrpqqqppomll........tvvvvuttssrr
(PID.TID 0000.0001)     20 sqq.......sttssrrsrrrrpol......p.qrqpqrrrrrrrstttttsssrrsssrqrrrrqqqpo.........wwwvvvuuutt
(PID.TID 0000.0001)     19 tsr.......ssssrrrrpppppnmmm...oqq.....qrqqsrrstttuuuttssttssrrssrrrrqq...........wwwvuvvvv
(PID.TID 0000.0001)     18 wut.......ssrrrrrqppppppppoooorrr...poqqqprrrttttuuutuuuuuutttttttutsss..........yyxwwxwxx
(PID.TID 0000.0001)     17 wwu.......s.rrrrrrqppppqqqqqqqr.....rrsrqrsssuusrtuuuvvvwwvvvuuuuutttss.........xyzyyyyxxx
(PID.TID 0000.0001)     16 vvt......ss.qrrssrqrqpqrrrrrrr.......ssrrstsstusrsuuuvwwwwxxwwvvvuttttsr........yz+zzzxwww
(PID.TID 0000.0001)     15 utss....stt.rrssstttsrrsrstsr.........ssstttssttsuuttuvvvvwxwwwwwuttsssrr......xyyyyxyyxwv
(PID.TID 0000.0001)     14 utts....sstrrssstuuuuuuuuuutt.........stttuutttttttuttttttuvvvvvvutsrqrrr.....vxxwwwwxwvwv
(PID.TID 0000.0001)     13 uuut....ttttttttuuuuuvtuuuuuu.........ttttuutttttttuutsssstttttstsqrqqppp....uwwwvuvvvutvv
(PID.TID 0000.0001)     12 ttttttttttttttttttttttssuuuuutuuut....tttttttttttsssssrrrrrrrqqqqqppppoo.....rvvuuttttttuu
(PID.TID 0000.0001)     11 rqsttttttttuuttttsssssrrstttttttsss..ttttts.tsssrrrrqqqqqppppoonnooooooo....oruttttsssrqrs
(PID.TID 0000.0001)     10 pppqrssrqqrqpqrssrrqqqqqqrrrrrrrrrrs.sssssr.rssrrqqpppppppooooonnnoooonn..moqrrrqqqqqqqqqq
(PID.TID 0000.0001)      9 oonooooooooonnnooooooooooppppppqqqqqrrrqrq.pppqqqqqppppppppppoooooooooll.lmoqqqqppooooopoo
(PID.TID 0000.0001)      8 nnnoonooooooonnnnnnnoooonoonoooppopqqqqqqqppopppqqqpppppppppppppppooopon.lnopppoooonnnnooo
(PID.TID 0000.0001)      7 ooooooooooopponnnooooooonnnnnonnooooooooopppppppoooooooooopppppppppoopqnnmnoooonnnonnnnnno
(PID.TID 0000.0001)      6 oooonnoonnnnooooooooooooonnnnnnnnnnnnnnnnoooopppooooooooooooooppppppppppoooooooonnnnnmnnnn
(PID.TID 0000.0001)      5 oooonnnnnnnnnnnnnnnnnoooooonnnnnnonnnnnnnnnoooooooooooonnnnnnooooooopoooonoooonnnnnnnooooo
(PID.TID 0000.0001)      4 oooonnnooonnnnnnnnnnnnnnoooooonnnooooonnnooooooooppponnnnmmmnnnnmnnoonnnnn..nnnooooooooooo
(PID.TID 0000.0001)      3 ooonnnnnnn............................nnoooooonnooooonnnnnnnoonnnnnnnnmmm..ooopooooooooooo
(PID.TID 0000.0001)      2 ..........................................pppooooonnnnnnoooppppo..nnnn.....qqqpppoooooo...
(PID.TID 0000.0001)      1 ..........................................................................................
(PID.TID 0000.0001) // =======================================================
(PID.TID 0000.0001) // END OF FIELD                                          =
(PID.TID 0000.0001) // =======================================================
(PID.TID 0000.0001) 
(PID.TID 0000.0001) Start initial hydrostatic pressure computation
(PID.TID 0000.0001) Pressure is predetermined for buoyancyRelation OCEANIC
(PID.TID 0000.0001) 
(PID.TID 0000.0001)  MDS_READ_FIELD: opening global file: trenberth_taux.bin
(PID.TID 0000.0001)  MDS_READ_FIELD: opening global file: trenberth_tauy.bin
(PID.TID 0000.0001)  MDS_READ_FIELD: opening global file: ncep_qnet.bin
(PID.TID 0000.0001)  MDS_READ_FIELD: opening global file: lev_sst.bin
(PID.TID 0000.0001)  MDS_READ_FIELD: opening global file: lev_sss.bin
(PID.TID 0000.0001)  MDS_READ_FIELD: opening file: xx_theta.0000000000.001.001.data
(PID.TID 0000.0001)  MDS_READ_FIELD: opening file: xx_salt.0000000000.001.001.data
(PID.TID 0000.0001)  MDS_READ_FIELD: opening file: xx_diffkr.0000000000.001.001.data
(PID.TID 0000.0001)  MDS_READ_FIELD: opening file: xx_kapgm.0000000000.001.001.data
(PID.TID 0000.0001) // =======================================================
(PID.TID 0000.0001) // Model current state
(PID.TID 0000.0001) // =======================================================
(PID.TID 0000.0001) 
S/R EXTERNAL_FIELDS_LOAD: Reading new data:   12    1         0  0.000000000000E+00
(PID.TID 0000.0001)  MDS_READ_FIELD: opening global file: trenberth_taux.bin
(PID.TID 0000.0001)  MDS_READ_FIELD: opening global file: trenberth_taux.bin
(PID.TID 0000.0001)  MDS_READ_FIELD: opening global file: trenberth_tauy.bin
(PID.TID 0000.0001)  MDS_READ_FIELD: opening global file: trenberth_tauy.bin
(PID.TID 0000.0001)  MDS_READ_FIELD: opening global file: ncep_qnet.bin
(PID.TID 0000.0001)  MDS_READ_FIELD: opening global file: ncep_qnet.bin
(PID.TID 0000.0001)  MDS_READ_FIELD: opening global file: lev_sst.bin
(PID.TID 0000.0001)  MDS_READ_FIELD: opening global file: lev_sst.bin
(PID.TID 0000.0001)  MDS_READ_FIELD: opening global file: lev_sss.bin
(PID.TID 0000.0001)  MDS_READ_FIELD: opening global file: lev_sss.bin
time,SST,SSS,fu,fv,Q,E-P,i0,i1,a,b =   0.0000E+00  5.3151E-02  3.4364E+01 -4.0500E-02 -6.3753E-02  2.6510E+02  0.0000E+00    12     1  5.0000E-01  5.0000E-01
time,fu0,fu1,fu =   0.0000E+00 -4.5368E-02 -3.5633E-02 -4.0500E-02  5.000000000000000E-01  5.000000000000000E-01
(PID.TID 0000.0001)  MDS_READ_FIELD: opening file: xx_tauu.0000000000.001.001.data
(PID.TID 0000.0001)  MDS_READ_FIELD: opening file: xx_tauv.0000000000.001.001.data
(PID.TID 0000.0001)  MDS_READ_FIELD: opening file: xx_sflux.0000000000.001.001.data
(PID.TID 0000.0001)  MDS_READ_FIELD: opening file: xx_hflux.0000000000.001.001.data
 ph-test a  1 1
 ph-test b  1
 ph-test a  1 2
 ph-test b  1
 ph-test a  1 3
 ph-test b  1
 ph-test a  1 4
 ph-test b  1
 ph-test a  1 5
 ph-test b  1
 ph-test a  1 6
 ph-test b  1
 ph-test a  1 7
 ph-test b  1
 ph-test a  1 8
 ph-test b  1
 ph-test a  1 9
 ph-test b  1
 ph-test a  1 10
 ph-test b  1
 ph-test a  1 11
 ph-test b  1
 ph-test a  1 12
 ph-test b  1
 ph-test a  1 13
 ph-test b  1
 ph-test a  1 14
 ph-test b  1
 ph-test a  1 15
 ph-test b  1
 cg2d: Sum(rhs),rhsMax =   1.05956909912663E-14  2.53674886388737E+00
time,SST,SSS,fu,fv,Q,E-P,i0,i1,a,b =   4.3200E+04  8.3327E-02  3.4375E+01 -4.0338E-02 -6.3536E-02  2.6512E+02  0.0000E+00    12     1  5.1667E-01  4.8333E-01
time,fu0,fu1,fu =   4.3200E+04 -4.5368E-02 -3.5633E-02 -4.0338E-02  5.166666666666667E-01  4.833333333333333E-01
 ph-test a  1 1
 ph-test b  1
 ph-test a  1 2
 ph-test b  1
 ph-test a  1 3
 ph-test b  1
 ph-test a  1 4
 ph-test b  1
 ph-test a  1 5
 ph-test b  1
 ph-test a  1 6
 ph-test b  1
 ph-test a  1 7
 ph-test b  1
 ph-test a  1 8
 ph-test b  1
 ph-test a  1 9
 ph-test b  1
 ph-test a  1 10
 ph-test b  1
 ph-test a  1 11
 ph-test b  1
 ph-test a  1 12
 ph-test b  1
 ph-test a  1 13
 ph-test b  1
 ph-test a  1 14
 ph-test b  1
 ph-test a  1 15
 ph-test b  1
 cg2d: Sum(rhs),rhsMax =  -1.18585696817775E-14  4.94099340918605E+00
time,SST,SSS,fu,fv,Q,E-P,i0,i1,a,b =   8.6400E+04  1.1350E-01  3.4387E+01 -4.0176E-02 -6.3320E-02  2.6514E+02  0.0000E+00    12     1  5.3333E-01  4.6667E-01
time,fu0,fu1,fu =   8.6400E+04 -4.5368E-02 -3.5633E-02 -4.0176E-02  5.333333333333333E-01  4.666666666666667E-01
 ph-test a  1 1
 ph-test b  1
 ph-test a  1 2
 ph-test b  1
 ph-test a  1 3
 ph-test b  1
 ph-test a  1 4
 ph-test b  1
 ph-test a  1 5
 ph-test b  1
 ph-test a  1 6
 ph-test b  1
 ph-test a  1 7
 ph-test b  1
 ph-test a  1 8
 ph-test b  1
 ph-test a  1 9
 ph-test b  1
 ph-test a  1 10
 ph-test b  1
 ph-test a  1 11
 ph-test b  1
 ph-test a  1 12
 ph-test b  1
 ph-test a  1 13
 ph-test b  1
 ph-test a  1 14
 ph-test b  1
 ph-test a  1 15
 ph-test b  1
 cg2d: Sum(rhs),rhsMax =  -3.06699110552699E-15  6.30201510737097E+00
time,SST,SSS,fu,fv,Q,E-P,i0,i1,a,b =   1.2960E+05  1.4368E-01  3.4399E+01 -4.0014E-02 -6.3103E-02  2.6516E+02  0.0000E+00    12     1  5.5000E-01  4.5000E-01
time,fu0,fu1,fu =   1.2960E+05 -4.5368E-02 -3.5633E-02 -4.0014E-02  5.500000000000000E-01  4.500000000000000E-01
 ph-test a  1 1
 ph-test b  1
 ph-test a  1 2
 ph-test b  1
 ph-test a  1 3
 ph-test b  1
 ph-test a  1 4
 ph-test b  1
 ph-test a  1 5
 ph-test b  1
 ph-test a  1 6
 ph-test b  1
 ph-test a  1 7
 ph-test b  1
 ph-test a  1 8
 ph-test b  1
 ph-test a  1 9
 ph-test b  1
 ph-test a  1 10
 ph-test b  1
 ph-test a  1 11
 ph-test b  1
 ph-test a  1 12
 ph-test b  1
 ph-test a  1 13
 ph-test b  1
 ph-test a  1 14
 ph-test b  1
 ph-test a  1 15
 ph-test b  1
 cg2d: Sum(rhs),rhsMax =   2.22599716437344E-14  6.81670284430948E+00
time,SST,SSS,fu,fv,Q,E-P,i0,i1,a,b =   1.7280E+05  1.7385E-01  3.4410E+01 -3.9851E-02 -6.2886E-02  2.6519E+02  0.0000E+00    12     1  5.6667E-01  4.3333E-01
time,fu0,fu1,fu =   1.7280E+05 -4.5368E-02 -3.5633E-02 -3.9851E-02  5.666666666666667E-01  4.333333333333333E-01
 ph-test a  1 1
 ph-test b  1
 ph-test a  1 2
 ph-test b  1
 ph-test a  1 3
 ph-test b  1
 ph-test a  1 4
 ph-test b  1
 ph-test a  1 5
 ph-test b  1
 ph-test a  1 6
 ph-test b  1
 ph-test a  1 7
 ph-test b  1
 ph-test a  1 8
 ph-test b  1
 ph-test a  1 9
 ph-test b  1
 ph-test a  1 10
 ph-test b  1
 ph-test a  1 11
 ph-test b  1
 ph-test a  1 12
 ph-test b  1
 ph-test a  1 13
 ph-test b  1
 ph-test a  1 14
 ph-test b  1
 ph-test a  1 15
 ph-test b  1
 cg2d: Sum(rhs),rhsMax =  -2.51673681894715E-14  6.91786915802128E+00
time,SST,SSS,fu,fv,Q,E-P,i0,i1,a,b =   2.1600E+05  2.0403E-01  3.4422E+01 -3.9689E-02 -6.2670E-02  2.6521E+02  0.0000E+00    12     1  5.8333E-01  4.1667E-01
time,fu0,fu1,fu =   2.1600E+05 -4.5368E-02 -3.5633E-02 -3.9689E-02  5.833333333333334E-01  4.166666666666666E-01
 ph-test a  1 1
 ph-test b  1
 ph-test a  1 2
 ph-test b  1
 ph-test a  1 3
 ph-test b  1
 ph-test a  1 4
 ph-test b  1
 ph-test a  1 5
 ph-test b  1
 ph-test a  1 6
 ph-test b  1
 ph-test a  1 7
 ph-test b  1
 ph-test a  1 8
 ph-test b  1
 ph-test a  1 9
 ph-test b  1
 ph-test a  1 10
 ph-test b  1
 ph-test a  1 11
 ph-test b  1
 ph-test a  1 12
 ph-test b  1
 ph-test a  1 13
 ph-test b  1
 ph-test a  1 14
 ph-test b  1
 ph-test a  1 15
 ph-test b  1
 cg2d: Sum(rhs),rhsMax =  -5.82277281946375E-14  6.87448893655062E+00
time,SST,SSS,fu,fv,Q,E-P,i0,i1,a,b =   2.5920E+05  2.3421E-01  3.4434E+01 -3.9527E-02 -6.2453E-02  2.6523E+02  0.0000E+00    12     1  6.0000E-01  4.0000E-01
time,fu0,fu1,fu =   2.5920E+05 -4.5368E-02 -3.5633E-02 -3.9527E-02  6.000000000000000E-01  4.000000000000000E-01
 ph-test a  1 1
 ph-test b  1
 ph-test a  1 2
 ph-test b  1
 ph-test a  1 3
 ph-test b  1
 ph-test a  1 4
 ph-test b  1
 ph-test a  1 5
 ph-test b  1
 ph-test a  1 6
 ph-test b  1
 ph-test a  1 7
 ph-test b  1
 ph-test a  1 8
 ph-test b  1
 ph-test a  1 9
 ph-test b  1
 ph-test a  1 10
 ph-test b  1
 ph-test a  1 11
 ph-test b  1
 ph-test a  1 12
 ph-test b  1
 ph-test a  1 13
 ph-test b  1
 ph-test a  1 14
 ph-test b  1
 ph-test a  1 15
 ph-test b  1
 cg2d: Sum(rhs),rhsMax =   3.59096433144579E-14  7.24604825999480E+00
time,SST,SSS,fu,fv,Q,E-P,i0,i1,a,b =   3.0240E+05  2.6438E-01  3.4446E+01 -3.9365E-02 -6.2237E-02  2.6525E+02  0.0000E+00    12     1  6.1667E-01  3.8333E-01
time,fu0,fu1,fu =   3.0240E+05 -4.5368E-02 -3.5633E-02 -3.9365E-02  6.166666666666667E-01  3.833333333333333E-01
 ph-test a  1 1
 ph-test b  1
 ph-test a  1 2
 ph-test b  1
 ph-test a  1 3
 ph-test b  1
 ph-test a  1 4
 ph-test b  1
 ph-test a  1 5
 ph-test b  1
 ph-test a  1 6
 ph-test b  1
 ph-test a  1 7
 ph-test b  1
 ph-test a  1 8
 ph-test b  1
 ph-test a  1 9
 ph-test b  1
 ph-test a  1 10
 ph-test b  1
 ph-test a  1 11
 ph-test b  1
 ph-test a  1 12
 ph-test b  1
 ph-test a  1 13
 ph-test b  1
 ph-test a  1 14
 ph-test b  1
 ph-test a  1 15
 ph-test b  1
 cg2d: Sum(rhs),rhsMax =  -1.59763261647905E-13  7.86362075184324E+00
time,SST,SSS,fu,fv,Q,E-P,i0,i1,a,b =   3.4560E+05  2.9456E-01  3.4457E+01 -3.9202E-02 -6.2020E-02  2.6528E+02  0.0000E+00    12     1  6.3333E-01  3.6667E-01
time,fu0,fu1,fu =   3.4560E+05 -4.5368E-02 -3.5633E-02 -3.9202E-02  6.333333333333333E-01  3.666666666666667E-01
 ph-test a  1 1
 ph-test b  1
 ph-test a  1 2
 ph-test b  1
 ph-test a  1 3
 ph-test b  1
 ph-test a  1 4
 ph-test b  1
 ph-test a  1 5
 ph-test b  1
 ph-test a  1 6
 ph-test b  1
 ph-test a  1 7
 ph-test b  1
 ph-test a  1 8
 ph-test b  1
 ph-test a  1 9
 ph-test b  1
 ph-test a  1 10
 ph-test b  1
 ph-test a  1 11
 ph-test b  1
 ph-test a  1 12
 ph-test b  1
 ph-test a  1 13
 ph-test b  1
 ph-test a  1 14
 ph-test b  1
 ph-test a  1 15
 ph-test b  1
 cg2d: Sum(rhs),rhsMax =   8.68746264162668E-14  8.20455160636556E+00
time,SST,SSS,fu,fv,Q,E-P,i0,i1,a,b =   3.8880E+05  3.2473E-01  3.4469E+01 -3.9040E-02 -6.1804E-02  2.6530E+02  0.0000E+00    12     1  6.5000E-01  3.5000E-01
time,fu0,fu1,fu =   3.8880E+05 -4.5368E-02 -3.5633E-02 -3.9040E-02  6.500000000000000E-01  3.500000000000000E-01
 ph-test a  1 1
 ph-test b  1
 ph-test a  1 2
 ph-test b  1
 ph-test a  1 3
 ph-test b  1
 ph-test a  1 4
 ph-test b  1
 ph-test a  1 5
 ph-test b  1
 ph-test a  1 6
 ph-test b  1
 ph-test a  1 7
 ph-test b  1
 ph-test a  1 8
 ph-test b  1
 ph-test a  1 9
 ph-test b  1
 ph-test a  1 10
 ph-test b  1
 ph-test a  1 11
 ph-test b  1
 ph-test a  1 12
 ph-test b  1
 ph-test a  1 13
 ph-test b  1
 ph-test a  1 14
 ph-test b  1
 ph-test a  1 15
 ph-test b  1
 cg2d: Sum(rhs),rhsMax =   6.04640035956061E-14  8.29866218269600E+00
(PID.TID 0000.0001) %CHECKPOINT        10 ckptB
 --> objf_test(bi,bj)   =  0.000000000000000E+00
 --> objf_tracer(bi,bj) =  0.000000000000000E+00
 --> objf_atl(bi,bj)    = -0.456641051895146E-01
  local fc = -0.456641051895146E-01
 global fc = -0.456641051895146E-01
(PID.TID 0000.0001)  MDS_READ_FIELD: opening file: xx_theta.0000000000.001.001.data
grad-res -------------------------------
 grad-res     0    4   79   27    1    1    1    1   -.456642955874E-01 -.456646272798E-01 -.456641051895E-01
 grad-res     0    4    4 1875 2315    1    1    1   -.302112326368E-04 -.261045118140E-04 0.135933573853E+00
(PID.TID 0000.0001)   ADM  precision_derivative_cost =   -4.56642955874078E-02
(PID.TID 0000.0001)   ADM  precision_derivative_grad =   -3.02112326368196E-05
 ph-grd  ierr ---------------------------
 ph-grd  ierr =  0, icomp =  1875, ichknum =  4
(PID.TID 0000.0001) 
(PID.TID 0000.0001) // =======================================================
(PID.TID 0000.0001) // Gradient check results  >>> START <<<
(PID.TID 0000.0001) // =======================================================
(PID.TID 0000.0001) 
(PID.TID 0000.0001) 
(PID.TID 0000.0001)  EPS =  0.100E-01
(PID.TID 0000.0001) grdchk output:            procId               I        ITILEPOS        JTILEPOS           LAYER            X(I)      X(I)+/-EPS
(PID.TID 0000.0001) grdchk output:                                FC             FC1             FC2 FC1-FC2/(2*EPS)    ADJ GRAD(FC)   1-FDGRD/ADGRD
(PID.TID 0000.0001) grdchk output:                 0               1              76              27               1 0.000000000E+00 -.100000000E-01
(PID.TID 0000.0001) grdchk output:                   -.456642956E-01 -.456644413E-01 -.456641499E-01 -.145675968E-04 -.145655201E-04 -.142572150E-03
(PID.TID 0000.0001) 
(PID.TID 0000.0001) grdchk output:                 0               2              77              27               1 0.000000000E+00 -.100000000E-01
(PID.TID 0000.0001) grdchk output:                   -.456642956E-01 -.456644331E-01 -.456641581E-01 -.137505392E-04 -.137505799E-04 0.295774645E-05
(PID.TID 0000.0001) 
(PID.TID 0000.0001) grdchk output:                 0               3              78              27               1 0.000000000E+00 -.100000000E-01
(PID.TID 0000.0001) grdchk output:                   -.456642956E-01 -.456643877E-01 -.456642039E-01 -.919125526E-05 -.919197226E-05 0.780031665E-04
(PID.TID 0000.0001) 
(PID.TID 0000.0001) grdchk output:                 0               4              79              27               1 0.000000000E+00 -.100000000E-01
(PID.TID 0000.0001) grdchk output:                   -.456642956E-01 -.456646273E-01 -.456641052E-01 -.261045118E-04 -.302112326E-04 0.135933574E+00
(PID.TID 0000.0001) 
(PID.TID 0000.0001) 
(PID.TID 0000.0001) // =======================================================
(PID.TID 0000.0001) // Gradient check results  >>> END <<<
(PID.TID 0000.0001) // =======================================================
(PID.TID 0000.0001) 
(PID.TID 0000.0001)   Seconds in section "ALL                    [THE_MODEL_MAIN]":
(PID.TID 0000.0001)           User time:  237.93483
(PID.TID 0000.0001)         System time:  2.94455201
(PID.TID 0000.0001)     Wall clock time:  245.233214
(PID.TID 0000.0001)          No. starts: 1
(PID.TID 0000.0001)           No. stops: 1
(PID.TID 0000.0001)   Seconds in section "INITIALISE_FIXED       [THE_MODEL_MAIN]":
(PID.TID 0000.0001)           User time:  1.81372399
(PID.TID 0000.0001)         System time:  0.175973006
(PID.TID 0000.0001)     Wall clock time:  2.06861901
(PID.TID 0000.0001)          No. starts: 1
(PID.TID 0000.0001)           No. stops: 1
(PID.TID 0000.0001)   Seconds in section "ADTHE_MAIN_LOOP          [ADJOINT RUN]":
(PID.TID 0000.0001)           User time:  111.516048
(PID.TID 0000.0001)         System time:  1.64275098
(PID.TID 0000.0001)     Wall clock time:  116.223702
(PID.TID 0000.0001)          No. starts: 1
(PID.TID 0000.0001)           No. stops: 1
(PID.TID 0000.0001)   Seconds in section "LOAD_FIELDS_DRIVER  [FORWARD_STEP]":
(PID.TID 0000.0001)           User time:  0.145054817
(PID.TID 0000.0001)         System time:  0.0129978359
(PID.TID 0000.0001)     Wall clock time:  0.163667917
(PID.TID 0000.0001)          No. starts: 100
(PID.TID 0000.0001)           No. stops: 100
(PID.TID 0000.0001)   Seconds in section "EXTERNAL_FLDS_LOAD [LOAD_FLDS_DRIVER]":
(PID.TID 0000.0001)           User time:  0.1630373
(PID.TID 0000.0001)         System time:  0.0159978569
(PID.TID 0000.0001)     Wall clock time:  0.262747049
(PID.TID 0000.0001)          No. starts: 120
(PID.TID 0000.0001)           No. stops: 120
(PID.TID 0000.0001)   Seconds in section "I/O (WRITE)        [ADJOINT LOOP]":
(PID.TID 0000.0001)           User time:  0.243941784
(PID.TID 0000.0001)         System time:  0.15497601
(PID.TID 0000.0001)     Wall clock time:  0.510651112
(PID.TID 0000.0001)          No. starts: 150
(PID.TID 0000.0001)           No. stops: 150
(PID.TID 0000.0001)   Seconds in section "DO_ATMOSPHERIC_PHYS [FORWARD_STEP]":
(PID.TID 0000.0001)           User time:  0.006980896
(PID.TID 0000.0001)         System time:  0.
(PID.TID 0000.0001)     Wall clock time:  0.00403785706
(PID.TID 0000.0001)          No. starts: 100
(PID.TID 0000.0001)           No. stops: 100
(PID.TID 0000.0001)   Seconds in section "DO_OCEANIC_PHYS     [FORWARD_STEP]":
(PID.TID 0000.0001)           User time:  30.4243617
(PID.TID 0000.0001)         System time:  0.0249986053
(PID.TID 0000.0001)     Wall clock time:  30.465929
(PID.TID 0000.0001)          No. starts: 100
(PID.TID 0000.0001)           No. stops: 100
(PID.TID 0000.0001)   Seconds in section "DYNAMICS            [FORWARD_STEP]":
(PID.TID 0000.0001)           User time:  49.8724217
(PID.TID 0000.0001)         System time:  0.0339938998
(PID.TID 0000.0001)     Wall clock time:  49.9339654
(PID.TID 0000.0001)          No. starts: 100
(PID.TID 0000.0001)           No. stops: 100
(PID.TID 0000.0001)   Seconds in section "UPDATE_SURF_DR      [FORWARD_STEP]":
(PID.TID 0000.0001)           User time:  0.0849289894
(PID.TID 0000.0001)         System time:  0.
(PID.TID 0000.0001)     Wall clock time:  0.0806667805
(PID.TID 0000.0001)          No. starts: 100
(PID.TID 0000.0001)           No. stops: 100
(PID.TID 0000.0001)   Seconds in section "SOLVE_FOR_PRESSURE  [FORWARD_STEP]":
(PID.TID 0000.0001)           User time:  4.08940029
(PID.TID 0000.0001)         System time:  0.000999987125
(PID.TID 0000.0001)     Wall clock time:  4.10096097
(PID.TID 0000.0001)          No. starts: 100
(PID.TID 0000.0001)           No. stops: 100
(PID.TID 0000.0001)   Seconds in section "MOM_CORRECTION_STEP [FORWARD_STEP]":
(PID.TID 0000.0001)           User time:  1.95466208
(PID.TID 0000.0001)         System time:  0.
(PID.TID 0000.0001)     Wall clock time:  1.96206236
(PID.TID 0000.0001)          No. starts: 100
(PID.TID 0000.0001)           No. stops: 100
(PID.TID 0000.0001)   Seconds in section "UPDATE_ETAH         [FORWARD_STEP]":
(PID.TID 0000.0001)           User time:  0.0240402222
(PID.TID 0000.0001)         System time:  0.
(PID.TID 0000.0001)     Wall clock time:  0.0213611126
(PID.TID 0000.0001)          No. starts: 100
(PID.TID 0000.0001)           No. stops: 100
(PID.TID 0000.0001)   Seconds in section "CALC_SURF_DR      [FORWARD_STEP]":
(PID.TID 0000.0001)           User time:  0.0960268974
(PID.TID 0000.0001)         System time:  0.
(PID.TID 0000.0001)     Wall clock time:  0.0915026665
(PID.TID 0000.0001)          No. starts: 100
(PID.TID 0000.0001)           No. stops: 100
(PID.TID 0000.0001)   Seconds in section "BLOCKING_EXCHANGES  [FORWARD_STEP]":
(PID.TID 0000.0001)           User time:  0.598987103
(PID.TID 0000.0001)         System time:  0.000999987125
(PID.TID 0000.0001)     Wall clock time:  0.599661589
(PID.TID 0000.0001)          No. starts: 200
(PID.TID 0000.0001)           No. stops: 200
(PID.TID 0000.0001)   Seconds in section "THERMODYNAMICS      [FORWARD_STEP]":
(PID.TID 0000.0001)           User time:  56.7523632
(PID.TID 0000.0001)         System time:  0.0349931121
(PID.TID 0000.0001)     Wall clock time:  56.8153455
(PID.TID 0000.0001)          No. starts: 100
(PID.TID 0000.0001)           No. stops: 100
(PID.TID 0000.0001)   Seconds in section "TRC_CORRECTION_STEP [FORWARD_STEP]":
(PID.TID 0000.0001)           User time:  0.331903219
(PID.TID 0000.0001)         System time:  0.00100016594
(PID.TID 0000.0001)     Wall clock time:  0.347590923
(PID.TID 0000.0001)          No. starts: 100
(PID.TID 0000.0001)           No. stops: 100
(PID.TID 0000.0001)   Seconds in section "MONITOR             [FORWARD_STEP]":
(PID.TID 0000.0001)           User time:  1.00284934
(PID.TID 0000.0001)         System time:  0.00100001693
(PID.TID 0000.0001)     Wall clock time:  1.00465107
(PID.TID 0000.0001)          No. starts: 100
(PID.TID 0000.0001)           No. stops: 100
(PID.TID 0000.0001)   Seconds in section "COST_TILE           [FORWARD_STEP]":
(PID.TID 0000.0001)           User time:  1.91269612
(PID.TID 0000.0001)         System time:  0.00100001693
(PID.TID 0000.0001)     Wall clock time:  1.92827988
(PID.TID 0000.0001)          No. starts: 100
(PID.TID 0000.0001)           No. stops: 100
(PID.TID 0000.0001)   Seconds in section "DO_THE_MODEL_IO     [FORWARD_STEP]":
(PID.TID 0000.0001)           User time:  0.827865601
(PID.TID 0000.0001)         System time:  0.109982997
(PID.TID 0000.0001)     Wall clock time:  0.992939472
(PID.TID 0000.0001)          No. starts: 100
(PID.TID 0000.0001)           No. stops: 100
(PID.TID 0000.0001)   Seconds in section "DO_WRITE_PICKUP     [FORWARD_STEP]":
(PID.TID 0000.0001)           User time:  1.35078239
(PID.TID 0000.0001)         System time:  0.724889725
(PID.TID 0000.0001)     Wall clock time:  2.63349319
(PID.TID 0000.0001)          No. starts: 100
(PID.TID 0000.0001)           No. stops: 100
(PID.TID 0000.0001)   Seconds in section "CTRL_PACK           [THE_MODEL_MAIN]":
(PID.TID 0000.0001)           User time:  0.24596405
(PID.TID 0000.0001)         System time:  0.0369950533
(PID.TID 0000.0001)     Wall clock time:  0.344612122
(PID.TID 0000.0001)          No. starts: 1
(PID.TID 0000.0001)           No. stops: 1
(PID.TID 0000.0001)   Seconds in section "CTRL_PACK     [THE_MODEL_MAIN]":
(PID.TID 0000.0001)           User time:  0.233963013
(PID.TID 0000.0001)         System time:  0.0289950371
(PID.TID 0000.0001)     Wall clock time:  0.324429989
(PID.TID 0000.0001)          No. starts: 1
(PID.TID 0000.0001)           No. stops: 1
(PID.TID 0000.0001)   Seconds in section "GRDCHK_MAIN         [THE_MODEL_MAIN]":
(PID.TID 0000.0001)           User time:  124.121124
(PID.TID 0000.0001)         System time:  1.05283988
(PID.TID 0000.0001)     Wall clock time:  126.023182
(PID.TID 0000.0001)          No. starts: 1
(PID.TID 0000.0001)           No. stops: 1
(PID.TID 0000.0001)   Seconds in section "INITIALISE_VARIA    [THE_MAIN_LOOP]":
(PID.TID 0000.0001)           User time:  2.57256317
(PID.TID 0000.0001)         System time:  0.124980807
(PID.TID 0000.0001)     Wall clock time:  2.79555106
(PID.TID 0000.0001)          No. starts: 8
(PID.TID 0000.0001)           No. stops: 8
(PID.TID 0000.0001)   Seconds in section "MAIN LOOP           [THE_MAIN_LOOP]":
(PID.TID 0000.0001)           User time:  121.04464
(PID.TID 0000.0001)         System time:  0.771882653
(PID.TID 0000.0001)     Wall clock time:  122.505472
(PID.TID 0000.0001)          No. starts: 8
(PID.TID 0000.0001)           No. stops: 8
(PID.TID 0000.0001)   Seconds in section "FORWARD_STEP        [THE_MAIN_LOOP]":
(PID.TID 0000.0001)           User time:  118.896927
(PID.TID 0000.0001)         System time:  0.770882487
(PID.TID 0000.0001)     Wall clock time:  120.343547
(PID.TID 0000.0001)          No. starts: 80
(PID.TID 0000.0001)           No. stops: 80
(PID.TID 0000.0001)   Seconds in section "COST_FINAL         [ADJOINT SPIN-DOWN]":
(PID.TID 0000.0001)           User time:  0.00300598145
(PID.TID 0000.0001)         System time:  0.
(PID.TID 0000.0001)     Wall clock time:  0.0011947155
(PID.TID 0000.0001)          No. starts: 8
(PID.TID 0000.0001)           No. stops: 8
(PID.TID 0000.0001) // ======================================================
(PID.TID 0000.0001) // Tile <-> Tile communication statistics
(PID.TID 0000.0001) // ======================================================
(PID.TID 0000.0001) // o Tile number: 000001
(PID.TID 0000.0001) //         No. X exchanges =              0
(PID.TID 0000.0001) //            Max. X spins =              0
(PID.TID 0000.0001) //            Min. X spins =     1000000000
(PID.TID 0000.0001) //          Total. X spins =              0
(PID.TID 0000.0001) //            Avg. X spins =       0.00E+00
(PID.TID 0000.0001) //         No. Y exchanges =              0
(PID.TID 0000.0001) //            Max. Y spins =              0
(PID.TID 0000.0001) //            Min. Y spins =     1000000000
(PID.TID 0000.0001) //          Total. Y spins =              0
(PID.TID 0000.0001) //            Avg. Y spins =       0.00E+00
(PID.TID 0000.0001) // o Thread number: 000001
(PID.TID 0000.0001) //            No. barriers =          49952
(PID.TID 0000.0001) //      Max. barrier spins =              1
(PID.TID 0000.0001) //      Min. barrier spins =              1
(PID.TID 0000.0001) //     Total barrier spins =          49952
(PID.TID 0000.0001) //      Avg. barrier spins =       1.00E+00
