(PID.TID 0000.0001) 
(PID.TID 0000.0001) // ======================================================
(PID.TID 0000.0001) //                      MITgcm UV
(PID.TID 0000.0001) //                      =========
(PID.TID 0000.0001) // ======================================================
(PID.TID 0000.0001) // execution environment starting up...
(PID.TID 0000.0001) // Run starting Wed Apr  1 14:19:48 1998
(PID.TID 0000.0001) // on melville.lcs.mit.edu
(PID.TID 0000.0001) // account cnh
(PID.TID 0000.0001) // MITgcm UV Release: $Name:  $
(PID.TID 0000.0001) 
(PID.TID 0000.0001) // =======================================================
(PID.TID 0000.0001) // Execution Environment parameter file "eedata"
(PID.TID 0000.0001) // =======================================================
(PID.TID 0000.0001) ># Example "eedata" file
(PID.TID 0000.0001) ># Lines beginning "#" are comments
(PID.TID 0000.0001) ># nTx - No. threads per process in X
(PID.TID 0000.0001) ># nTy - No. threads per process in Y
(PID.TID 0000.0001) > &EEPARMS
(PID.TID 0000.0001) > nTx=1,nTy=1
(PID.TID 0000.0001) > /
(PID.TID 0000.0001) ># Note: Some systems use & as the
(PID.TID 0000.0001) ># namelist terminator. Other systems
(PID.TID 0000.0001) ># use a / character (as shown here).
(PID.TID 0000.0001) 
(PID.TID 0000.0001) // =======================================================
(PID.TID 0000.0001) // Computational Grid Specification ( see files "SIZE.h" )
(PID.TID 0000.0001) //                                  ( and "eedata"       )
(PID.TID 0000.0001) // =======================================================
(PID.TID 0000.0001)      nPx =    1 ; /* No. processes in X */
(PID.TID 0000.0001)      nPy =    1 ; /* No. processes in Y */
(PID.TID 0000.0001)      nSx =    1 ; /* No. tiles in X per process */
(PID.TID 0000.0001)      nSy =    1 ; /* No. tiles in Y per process */
(PID.TID 0000.0001)      sNx =   90 ; /* Tile size in X */
(PID.TID 0000.0001)      sNy =   40 ; /* Tile size in Y */
(PID.TID 0000.0001)      OLx =    3 ; /* Tile overlap distance in X */
(PID.TID 0000.0001)      OLy =    3 ; /* Tile overlap distance in Y */
(PID.TID 0000.0001)      nTx =    1 ; /* No. threads in X per process */
(PID.TID 0000.0001)      nTy =    1 ; /* No. threads in Y per process */
(PID.TID 0000.0001)       Nr =   15 ; /* No. levels in the vertical   */
(PID.TID 0000.0001)       nX =   90 ; /* Total domain size in X ( = nPx*nSx*sNx ) */
(PID.TID 0000.0001)       nY =   40 ; /* Total domain size in Y ( = nPy*nSy*sNy ) */
(PID.TID 0000.0001)   nTiles =    1 ; /* Total no. tiles per process ( = nSx*nSy ) */
(PID.TID 0000.0001)   nProcs =    1 ; /* Total no. processes ( = nPx*nPy ) */
(PID.TID 0000.0001) nThreads =    1 ; /* Total no. threads per process ( = nTx*nTy ) */
(PID.TID 0000.0001) usingMPI =    F ; /* Flag used to control whether MPI is in use */
(PID.TID 0000.0001)                   /*  note: To execute a program with MPI calls */
(PID.TID 0000.0001)                   /*  it must be launched appropriately e.g     */
(PID.TID 0000.0001)                   /*  "mpirun -np 64 ......"                    */
(PID.TID 0000.0001) 
(PID.TID 0000.0001) // ======================================================
(PID.TID 0000.0001) // Mapping of tiles to threads
(PID.TID 0000.0001) // ======================================================
(PID.TID 0000.0001) // -o- Thread   1, tiles (   1:   1,   1:   1)
(PID.TID 0000.0001) 
(PID.TID 0000.0001) // ======================================================
(PID.TID 0000.0001) // Tile <-> Tile connectvity table
(PID.TID 0000.0001) // ======================================================
(PID.TID 0000.0001) // Tile number: 000001 (process no. = 000001)
(PID.TID 0000.0001) //        WEST: Tile = 000001, Process = 000001, Comm = put
(PID.TID 0000.0001) //                bi = 000001, bj = 000001
(PID.TID 0000.0001) //        EAST: Tile = 000001, Process = 000001, Comm = put
(PID.TID 0000.0001) //                bi = 000001, bj = 000001
(PID.TID 0000.0001) //       SOUTH: Tile = 000001, Process = 000001, Comm = put
(PID.TID 0000.0001) //                bi = 000001, bj = 000001
(PID.TID 0000.0001) //       NORTH: Tile = 000001, Process = 000001, Comm = put
(PID.TID 0000.0001) //                bi = 000001, bj = 000001
(PID.TID 0000.0001) 
(PID.TID 0000.0001) // =======================================================
(PID.TID 0000.0001) // Model parameter file "data"
(PID.TID 0000.0001) // =======================================================
(PID.TID 0000.0001) ># ====================
(PID.TID 0000.0001) ># | Model parameters |
(PID.TID 0000.0001) ># ====================
(PID.TID 0000.0001) >#
(PID.TID 0000.0001) ># Continuous equation parameters
(PID.TID 0000.0001) > &PARM01
(PID.TID 0000.0001) > tRef = 15*20.,
(PID.TID 0000.0001) > sRef = 15*35.,
(PID.TID 0000.0001) > viscAz=1.E-3,
(PID.TID 0000.0001) > viscAh=5.E5,
(PID.TID 0000.0001) > diffKhT=0.0,
(PID.TID 0000.0001) > diffKzT=3.E-5,
(PID.TID 0000.0001) > diffKhS=0.0,
(PID.TID 0000.0001) > diffKzS=3.E-5,
(PID.TID 0000.0001) > beta=1.E-11,
(PID.TID 0000.0001) > f0=1.e-4,
(PID.TID 0000.0001) > tAlpha=2.E-4,
(PID.TID 0000.0001) > sBeta =7.4E-4,
(PID.TID 0000.0001) > gravity=9.81,
(PID.TID 0000.0001) > gBaro=9.81,
(PID.TID 0000.0001) > rhonil=1035.,
(PID.TID 0000.0001) > rigidLid=.FALSE.,
(PID.TID 0000.0001) > implicitFreeSurface=.TRUE.,
(PID.TID 0000.0001) > eosType = 'POLY3',
(PID.TID 0000.0001) > ivdc_kappa=100.,
(PID.TID 0000.0001) > implicitDiffusion=.TRUE.,
(PID.TID 0000.0001) > allowFreezing=.TRUE.,
(PID.TID 0000.0001) > tempAdvScheme       = 2
(PID.TID 0000.0001) > saltAdvScheme       = 2
(PID.TID 0000.0001) > tracerAdvScheme     = 2
(PID.TID 0000.0001) > tempStepping        = .TRUE.
(PID.TID 0000.0001) > saltStepping        = .TRUE.
(PID.TID 0000.0001) > tr1Stepping         = .TRUE.
(PID.TID 0000.0001) > multiDimAdvection   = .FALSE.
(PID.TID 0000.0001) > &
(PID.TID 0000.0001) >
(PID.TID 0000.0001) ># Elliptic solver parameters
(PID.TID 0000.0001) > &PARM02
(PID.TID 0000.0001) > cg2dMaxIters=1000,
(PID.TID 0000.0001) > cg2dTargetResidual=1.E-17,
(PID.TID 0000.0001) > &
(PID.TID 0000.0001) >
(PID.TID 0000.0001) ># Time stepping parameters
(PID.TID 0000.0001) > &PARM03
(PID.TID 0000.0001) > startTime =      0.,
(PID.TID 0000.0001) > endtime   = 864000.,
(PID.TID 0000.0001) >#nIter0  =  14400.,
(PID.TID 0000.0001) >#endTime = 311044000.,
(PID.TID 0000.0001) > deltaTmom = 1200.0,
(PID.TID 0000.0001) > tauCD =     321428.,
(PID.TID 0000.0001) > deltaTtracer= 43200.0,
(PID.TID 0000.0001) > deltaTClock = 43200.0,
(PID.TID 0000.0001) > abEps = 0.1,
(PID.TID 0000.0001) >#cAdjFreq = -1,
(PID.TID 0000.0001) > pChkptFreq= 31104000.,
(PID.TID 0000.0001) > chkptFreq=  31104000.,
(PID.TID 0000.0001) > dumpFreq=   31104000.,
(PID.TID 0000.0001) > taveFreq=   31104000.,
(PID.TID 0000.0001) > tauThetaClimRelax =  5184000.0,
(PID.TID 0000.0001) > tauSaltClimRelax = 311040000.0,
(PID.TID 0000.0001) > monitorFreq=1.,
(PID.TID 0000.0001) > periodicExternalForcing=.TRUE.,
(PID.TID 0000.0001) > externForcingPeriod=2592000.,
(PID.TID 0000.0001) > externForcingCycle=31104000.,
(PID.TID 0000.0001) > &
(PID.TID 0000.0001) >
(PID.TID 0000.0001) ># Gridding parameters
(PID.TID 0000.0001) > &PARM04
(PID.TID 0000.0001) > usingCartesianGrid=.FALSE.,
(PID.TID 0000.0001) > usingSphericalPolarGrid=.TRUE.,
(PID.TID 0000.0001) > delZ= 50., 70., 100., 140., 190.,
(PID.TID 0000.0001) >       240., 290., 340., 390., 440.,
(PID.TID 0000.0001) >       490., 540., 590., 640., 690.,
(PID.TID 0000.0001) > phiMin=-78.,
(PID.TID 0000.0001) > delY=40*4.,
(PID.TID 0000.0001) > delX=90*4.,
(PID.TID 0000.0001) > &
(PID.TID 0000.0001) >
(PID.TID 0000.0001) ># Input datasets
(PID.TID 0000.0001) > &PARM05
(PID.TID 0000.0001) > bathyFile=      'bathy.bin',
(PID.TID 0000.0001) > hydrogThetaFile='theta.bin',
(PID.TID 0000.0001) > hydrogSaltFile= 'sal.bin',
(PID.TID 0000.0001) > zonalWindFile=  'tren_taux.bin',
(PID.TID 0000.0001) > meridWindFile=  'tren_tauy.bin',
(PID.TID 0000.0001) > thetaClimFile=  'theta_surf.bin',
(PID.TID 0000.0001) > saltClimFile=   'sal_surf.bin',
(PID.TID 0000.0001) > surfQFile=      'shi_qnet.bin',
(PID.TID 0000.0001) > EmPmRFile=      'shi_empr.bin',
(PID.TID 0000.0001) > &
(PID.TID 0000.0001) 
(PID.TID 0000.0001) S/R INI_PARMS ; read PARM01 : OK
(PID.TID 0000.0001) S/R INI_PARMS ; read PARM02 : OK
(PID.TID 0000.0001) S/R INI_PARMS ; read PARM03 : OK
(PID.TID 0000.0001) S/R INI_PARMS ; read PARM04 : OK
(PID.TID 0000.0001) S/R INI_PARMS ; read PARM05 : OK
(PID.TID 0000.0001) %MON XC_max                       =   3.5800000000000E+02
(PID.TID 0000.0001) %MON XC_min                       =   2.0000000000000E+00
(PID.TID 0000.0001) %MON XC_mean                      =   1.8000000000000E+02
(PID.TID 0000.0001) %MON XC_sd                        =   1.0391663325314E+02
(PID.TID 0000.0001) %MON XG_max                       =   3.5600000000000E+02
(PID.TID 0000.0001) %MON XG_min                       =   4.0000000000000E+00
(PID.TID 0000.0001) %MON XG_mean                      =   1.8000000000000E+02
(PID.TID 0000.0001) %MON XG_sd                        =   1.0276186062932E+02
(PID.TID 0000.0001) %MON DXC_max                      =   4.4470989340816E+05
(PID.TID 0000.0001) %MON DXC_min                      =   7.7223062580781E+04
(PID.TID 0000.0001) %MON DXC_mean                     =   3.1353386340260E+05
(PID.TID 0000.0001) %MON DXC_sd                       =   1.1256651772502E+05
(PID.TID 0000.0001) %MON DXF_max                      =   4.4470989340816E+05
(PID.TID 0000.0001) %MON DXF_min                      =   7.7223062580781E+04
(PID.TID 0000.0001) %MON DXF_mean                     =   3.1353386340260E+05
(PID.TID 0000.0001) %MON DXF_sd                       =   1.1256651772502E+05
(PID.TID 0000.0001) %MON DXG_max                      =   4.4443898815675E+05
(PID.TID 0000.0001) %MON DXG_min                      =   9.2460385861875E+04
(PID.TID 0000.0001) %MON DXG_mean                     =   3.1372497618153E+05
(PID.TID 0000.0001) %MON DXG_sd                       =   1.1216447457560E+05
(PID.TID 0000.0001) %MON DXV_max                      =   4.4443898815675E+05
(PID.TID 0000.0001) %MON DXV_min                      =   9.2460385861875E+04
(PID.TID 0000.0001) %MON DXV_mean                     =   3.1372497618153E+05
(PID.TID 0000.0001) %MON DXV_sd                       =   1.1216447457560E+05
(PID.TID 0000.0001) %MON YC_max                       =   8.0000000000000E+01
(PID.TID 0000.0001) %MON YC_min                       =  -7.6000000000000E+01
(PID.TID 0000.0001) %MON YC_mean                      =   2.0512820512821E+00
(PID.TID 0000.0001) %MON YC_sd                        =   4.6760682979564E+01
(PID.TID 0000.0001) %MON YG_max                       =   7.8000000000000E+01
(PID.TID 0000.0001) %MON YG_min                       =  -7.8000000000000E+01
(PID.TID 0000.0001) %MON YG_mean                      =   0.0000000000000E+00
(PID.TID 0000.0001) %MON YG_sd                        =   4.6173585522461E+01
(PID.TID 0000.0001) %MON DYC_max                      =   4.4470989340816E+05
(PID.TID 0000.0001) %MON DYC_min                      =   4.4470989340816E+05
(PID.TID 0000.0001) %MON DYC_mean                     =   4.4470989340814E+05
(PID.TID 0000.0001) %MON DYC_sd                       =   1.9848812371492E-08
(PID.TID 0000.0001) %MON DYF_max                      =   4.4470989340816E+05
(PID.TID 0000.0001) %MON DYF_min                      =   4.4470989340816E+05
(PID.TID 0000.0001) %MON DYF_mean                     =   4.4470989340814E+05
(PID.TID 0000.0001) %MON DYF_sd                       =   1.9848812371492E-08
(PID.TID 0000.0001) %MON DYG_max                      =   4.4470989340816E+05
(PID.TID 0000.0001) %MON DYG_min                      =   4.4470989340816E+05
(PID.TID 0000.0001) %MON DYG_mean                     =   4.4470989340814E+05
(PID.TID 0000.0001) %MON DYG_sd                       =   1.9848812371492E-08
(PID.TID 0000.0001) %MON DYU_max                      =   4.4470989340816E+05
(PID.TID 0000.0001) %MON DYU_min                      =   4.4470989340816E+05
(PID.TID 0000.0001) %MON DYU_mean                     =   4.4470989340814E+05
(PID.TID 0000.0001) %MON DYU_sd                       =   1.9848812371492E-08
(PID.TID 0000.0001) %MON RA_max                       =   1.9772672958215E+11
(PID.TID 0000.0001) %MON RA_min                       =   3.4334886267982E+10
(PID.TID 0000.0001) %MON RA_mean                      =   1.3940329716694E+11
(PID.TID 0000.0001) %MON RA_sd                        =   5.0049278732354E+10
(PID.TID 0000.0001) %MON RAW_max                      =   1.9772672958215E+11
(PID.TID 0000.0001) %MON RAW_min                      =   3.4334886267982E+10
(PID.TID 0000.0001) %MON RAW_mean                     =   1.3940329716694E+11
(PID.TID 0000.0001) %MON RAW_sd                       =   5.0049278732354E+10
(PID.TID 0000.0001) %MON RAS_max                      =   1.9760627980089E+11
(PID.TID 0000.0001) %MON RAS_min                      =   4.1109698667291E+10
(PID.TID 0000.0001) %MON RAS_mean                     =   1.3948826965197E+11
(PID.TID 0000.0001) %MON RAS_sd                       =   4.9870522472902E+10
(PID.TID 0000.0001) %MON RAZ_max                      =   1.9760627980089E+11
(PID.TID 0000.0001) %MON RAZ_min                      =   4.1109698667291E+10
(PID.TID 0000.0001) %MON RAZ_mean                     =   1.3948826965197E+11
(PID.TID 0000.0001) %MON RAZ_sd                       =   4.9870522472902E+10
(PID.TID 0000.0001)  MDSREADFIELD: opening global file: bathy.bin
(PID.TID 0000.0001) // =======================================================
(PID.TID 0000.0001) // Field Model R_low (ini_masks_etc) at iteration          1
(PID.TID 0000.0001) // CMIN =         -5.200000000000000E+03
(PID.TID 0000.0001) // CMAX =         -5.000000000000000E+01
(PID.TID 0000.0001) // CINT =          1.907407407407407E+02
(PID.TID 0000.0001) // SYMBOLS (CMIN->CMAX): -abcdefghijklmnopqrstuvwxyz+
(PID.TID 0000.0001) //                  0.0: .
(PID.TID 0000.0001) // RANGE I (Lo:Hi:Step):(  -2:  93:   1)
(PID.TID 0000.0001) // RANGE J (Lo:Hi:Step):(  43:  -2:  -1)
(PID.TID 0000.0001) // RANGE K (Lo:Hi:Step):(   1:   1:   1)
(PID.TID 0000.0001) // =======================================================
(PID.TID 0000.0001) K =   1
(PID.TID 0000.0001) //                I=7       I=17      I=27      I=37      I=47      I=57      I=67      I=77      I=87
(PID.TID 0000.0001) // |--J--|**0123456|890123456|890123456|890123456|890123456|890123456|890123456|890123456|890123456|890123
(PID.TID 0000.0001) //     43 ................................................................................................
(PID.TID 0000.0001) //     42 ..............................................xxwvrojj...........................wvtt...........
(PID.TID 0000.0001) //     41 ................................................................................................
(PID.TID 0000.0001) //     40 ................................................................................................
(PID.TID 0000.0001) //     39 jjjjjorz................................................................................zojjjjjo
(PID.TID 0000.0001) //     38 rmmjjmm+...............................................................................zttrmmjjm
(PID.TID 0000.0001) //     37 vjjoxz........................................................................x+....zyzx.+vjjoxz
(PID.TID 0000.0001) //     36 twwz..........................................jjorz..........................tojj.jjorroortwwz..
(PID.TID 0000.0001) //     35 r..++.................................yvwz.gdjjjjjjtr.ddggjr..................oggggjojjoror..++.
(PID.TID 0000.0001) //     34 v......................................vvv--d---------ddgggjo..................wjgggggggdjv.....
(PID.TID 0000.0001) //     33 dd.....................................jj---------------ddggor...............zz.tjgdgggddddd....
(PID.TID 0000.0001) //     32 d......................................g-----------------dgggo...............ogdgd-dgjjgd-d.....
(PID.TID 0000.0001) //     31 .......................................--------------------ddd.............gd------dgogd--......
(PID.TID 0000.0001) //     30 -.....................................---------d-------------d............d--------gjg-----.....
(PID.TID 0000.0001) //     29 g.................................ztdg----------------------dggj.........o-------dggdg--dgg.....
(PID.TID 0000.0001) //     28 .................................yrdd---------------------dddggg......oj.d-------dd-----gj......
(PID.TID 0000.0001) //     27 ..................................-----------------ddd-----ddggggj...ggjrr-------gd----dg.......
(PID.TID 0000.0001) //     26 ..................gjj....t.....jgd----d--------d-----d-------dgggjg..j.gddg-----dgd----dj.......
(PID.TID 0000.0001) //     25 ................ggggg..jjoo...rgg.----d----------------------ddggggg....gggd----dg-----gg.......
(PID.TID 0000.0001) //     24 ...............ogggggt.ggjo...ggg.----------dd--------------dddggggjgdg.jgg.-od--dd----dg.......
(PID.TID 0000.0001) //     23 ................-dgddjogggg.++oogg----gdd----g------d-----dddddggggjgggj......jgddgg---ddd......
(PID.TID 0000.0001) //     22 ddddg..........--dgggjggggg..++..----dd-dggddgd------gd--ddggggggggjjggjj.......jggdgggd--ddddg.
(PID.TID 0000.0001) //     21 ---dg.........d--ddggddddddd.....ooggdgd-gogggd-------dddggggddgggggjjjjj........ggggdgd-----dg.
(PID.TID 0000.0001) //     20 d-dddg.......g--dgdgdd--dd--.......-...rrjrggg---------ddddddddggggggggg............g----dd-dddg
(PID.TID 0000.0001) //     19 gd---d.......gddggggj---------.gggd-t...--ggg--d---dd----ggdddgggggggggg-...........d---dggd---d
(PID.TID 0000.0001) //     18 g----d.......jggggggg---d--------jt....jggj--ggggd--g--dddgggggggggggggddd..........d---dgg----d
(PID.TID 0000.0001) //     17 gd---d.......j..dgggdd--d--------t......ddgddgjjo----dddggggggggjgggggdddg..........d---dggd---d
(PID.TID 0000.0001) //     16 gd---d......jo.--ggjgdd-d------g........vjjjd-ggo---ddddddggggggjgggggdggd-........gd---dggd---d
(PID.TID 0000.0001) //     15 d---gd......gg.---dgggdddd----d..........ddojddgr----dddddgggggjjggggggggdg.......ogd---dgd---gd
(PID.TID 0000.0001) //     14 gd---dg....rddg---ddggggddd----...........doggdg------dddggggggjjjgggggggg-......jggd--dgggd---d
(PID.TID 0000.0001) //     13 gdg---g...gj-dgddgddddgggggd---..........-dtgggg------d--ddgggggjjggggggggd.....jgggddddgjgdg---
(PID.TID 0000.0001) //     12 ggd---dgdgg---jgdd-ddgjggggg----.----....---ortj----------ddddgggjggggggggd....o----dgggjgggd---
(PID.TID 0000.0001) //     11 ggd--dd--gd--djgd--dggjgggggdddd-------xgd--gv.jd-d--d------ddggggggdggggg....o-------ggjjggd--d
(PID.TID 0000.0001) //     10 gggddd------gjjjd--gggjjjjgggggddddddddgg---g.toj----d------ddggggggdddggg...+d------ddggjgggddd
(PID.TID 0000.0001) //      9 jggggd-----ddggggdgjojjggggjgjgggggggdggd--dgvto--------ddddddggjggggdddgg...xd--------dggjggggd
(PID.TID 0000.0001) //      8 gojgggggg---dggdddddgrogdggggggggggggggggdddgvd--------ddggggggjggdd--dddg..zxrojjgddddggggojggg
(PID.TID 0000.0001) //      7 gggd----d---------dddgjd--ggggggddddgggggggd--------dddggggggjjgg-------ddgggggdggggd---dggggd--
(PID.TID 0000.0001) //      6 -------------------dddgogddgggggdddddgggggj-----dddddgjjggdd--------------ddgggggggggg--d-------
(PID.TID 0000.0001) //      5 --------------d--dgdggjjjjgg.ggggggggggggjjoggggggjjjgggggdd------d---ddddggg.xoggddddd---------
(PID.TID 0000.0001) //      4 ddgggggdddg.g..............................rojjjggggggggggggdddddddddgdgggj...wjggggddddddddgggg
(PID.TID 0000.0001) //      3 ..............................................oojggggggggggggjjojjjj..........vojgggggggg.......
(PID.TID 0000.0001) //      2 ..............................................xxwvrojj...........................wvtt...........
(PID.TID 0000.0001) //      1 ................................................................................................
(PID.TID 0000.0001) //      0 ................................................................................................
(PID.TID 0000.0001) //     -1 jjjjjorz................................................................................zojjjjjo
(PID.TID 0000.0001) //     -2 rmmjjmm+...............................................................................zttrmmjjm
(PID.TID 0000.0001) // =======================================================
(PID.TID 0000.0001) // END OF FIELD                                          =
(PID.TID 0000.0001) // =======================================================
(PID.TID 0000.0001) 
(PID.TID 0000.0001) // =======================================================
(PID.TID 0000.0001) // Field Model Ro_surf (ini_masks_etc) at iteration          1
(PID.TID 0000.0001) // CMIN =          1.000000000000000E+32
(PID.TID 0000.0001) // CMAX =         -1.000000000000000E+32
(PID.TID 0000.0001) // CINT =          0.000000000000000E+00
(PID.TID 0000.0001) // SYMBOLS (CMIN->CMAX): -abcdefghijklmnopqrstuvwxyz+
(PID.TID 0000.0001) //                  0.0: .
(PID.TID 0000.0001) // RANGE I (Lo:Hi:Step):(  -2:  93:   1)
(PID.TID 0000.0001) // RANGE J (Lo:Hi:Step):(  43:  -2:  -1)
(PID.TID 0000.0001) // RANGE K (Lo:Hi:Step):(   1:   1:   1)
(PID.TID 0000.0001) // =======================================================
(PID.TID 0000.0001) K =   1
(PID.TID 0000.0001) //                I=7       I=17      I=27      I=37      I=47      I=57      I=67      I=77      I=87
(PID.TID 0000.0001) // |--J--|**0123456|890123456|890123456|890123456|890123456|890123456|890123456|890123456|890123456|890123
(PID.TID 0000.0001) //     43 ................................................................................................
(PID.TID 0000.0001) //     42 ................................................................................................
(PID.TID 0000.0001) //     41 ................................................................................................
(PID.TID 0000.0001) //     40 ................................................................................................
(PID.TID 0000.0001) //     39 ................................................................................................
(PID.TID 0000.0001) //     38 ................................................................................................
(PID.TID 0000.0001) //     37 ................................................................................................
(PID.TID 0000.0001) //     36 ................................................................................................
(PID.TID 0000.0001) //     35 ................................................................................................
(PID.TID 0000.0001) //     34 ................................................................................................
(PID.TID 0000.0001) //     33 ................................................................................................
(PID.TID 0000.0001) //     32 ................................................................................................
(PID.TID 0000.0001) //     31 ................................................................................................
(PID.TID 0000.0001) //     30 ................................................................................................
(PID.TID 0000.0001) //     29 ................................................................................................
(PID.TID 0000.0001) //     28 ................................................................................................
(PID.TID 0000.0001) //     27 ................................................................................................
(PID.TID 0000.0001) //     26 ................................................................................................
(PID.TID 0000.0001) //     25 ................................................................................................
(PID.TID 0000.0001) //     24 ................................................................................................
(PID.TID 0000.0001) //     23 ................................................................................................
(PID.TID 0000.0001) //     22 ................................................................................................
(PID.TID 0000.0001) //     21 ................................................................................................
(PID.TID 0000.0001) //     20 ................................................................................................
(PID.TID 0000.0001) //     19 ................................................................................................
(PID.TID 0000.0001) //     18 ................................................................................................
(PID.TID 0000.0001) //     17 ................................................................................................
(PID.TID 0000.0001) //     16 ................................................................................................
(PID.TID 0000.0001) //     15 ................................................................................................
(PID.TID 0000.0001) //     14 ................................................................................................
(PID.TID 0000.0001) //     13 ................................................................................................
(PID.TID 0000.0001) //     12 ................................................................................................
(PID.TID 0000.0001) //     11 ................................................................................................
(PID.TID 0000.0001) //     10 ................................................................................................
(PID.TID 0000.0001) //      9 ................................................................................................
(PID.TID 0000.0001) //      8 ................................................................................................
(PID.TID 0000.0001) //      7 ................................................................................................
(PID.TID 0000.0001) //      6 ................................................................................................
(PID.TID 0000.0001) //      5 ................................................................................................
(PID.TID 0000.0001) //      4 ................................................................................................
(PID.TID 0000.0001) //      3 ................................................................................................
(PID.TID 0000.0001) //      2 ................................................................................................
(PID.TID 0000.0001) //      1 ................................................................................................
(PID.TID 0000.0001) //      0 ................................................................................................
(PID.TID 0000.0001) //     -1 ................................................................................................
(PID.TID 0000.0001) //     -2 ................................................................................................
(PID.TID 0000.0001) // =======================================================
(PID.TID 0000.0001) // END OF FIELD                                          =
(PID.TID 0000.0001) // =======================================================
(PID.TID 0000.0001) 
(PID.TID 0000.0001) // =======================================================
(PID.TID 0000.0001) // Field hFacC at iteration          1
(PID.TID 0000.0001) // CMIN =          1.000000000000000E+00
(PID.TID 0000.0001) // CMAX =          1.000000000000000E+00
(PID.TID 0000.0001) // CINT =          0.000000000000000E+00
(PID.TID 0000.0001) // SYMBOLS (CMIN->CMAX): -abcdefghijklmnopqrstuvwxyz+
(PID.TID 0000.0001) //                  0.0: .
(PID.TID 0000.0001) // RANGE I (Lo:Hi:Step):(  -2:  93:   1)
(PID.TID 0000.0001) // RANGE J (Lo:Hi:Step):(  43:  -2:  -1)
(PID.TID 0000.0001) // RANGE K (Lo:Hi:Step):(   1:   1:   1)
(PID.TID 0000.0001) // =======================================================
(PID.TID 0000.0001) K =   1
(PID.TID 0000.0001) //                I=7       I=17      I=27      I=37      I=47      I=57      I=67      I=77      I=87
(PID.TID 0000.0001) // |--J--|**0123456|890123456|890123456|890123456|890123456|890123456|890123456|890123456|890123456|890123
(PID.TID 0000.0001) //     43 ................................................................................................
(PID.TID 0000.0001) //     42 ..............................................--------...........................----...........
(PID.TID 0000.0001) //     41 ................................................................................................
(PID.TID 0000.0001) //     40 ................................................................................................
(PID.TID 0000.0001) //     39 --------................................................................................--------
(PID.TID 0000.0001) //     38 --------...............................................................................---------
(PID.TID 0000.0001) //     37 ------........................................................................--....----.-------
(PID.TID 0000.0001) //     36 ----..........................................-----..........................----.------------..
(PID.TID 0000.0001) //     35 -..--.................................----.----------.------..................-------------..--.
(PID.TID 0000.0001) //     34 -......................................----------------------..................------------.....
(PID.TID 0000.0001) //     33 --.....................................-----------------------...............--.------------....
(PID.TID 0000.0001) //     32 -......................................-----------------------...............--------------.....
(PID.TID 0000.0001) //     31 .......................................-----------------------.............---------------......
(PID.TID 0000.0001) //     30 -.....................................------------------------............-----------------.....
(PID.TID 0000.0001) //     29 -.................................------------------------------.........------------------.....
(PID.TID 0000.0001) //     28 .................................-------------------------------......--.-----------------......
(PID.TID 0000.0001) //     27 ..................................--------------------------------...--------------------.......
(PID.TID 0000.0001) //     26 ..................---....-.....------------------------------------..-.------------------.......
(PID.TID 0000.0001) //     25 ................-----..----...---.----------------------------------....-----------------.......
(PID.TID 0000.0001) //     24 ...............-------.----...---.-------------------------------------.---.-------------.......
(PID.TID 0000.0001) //     23 ................-----------.--------------------------------------------......------------......
(PID.TID 0000.0001) //     22 -----..........------------..--..----------------------------------------.......---------------.
(PID.TID 0000.0001) //     21 -----.........--------------.....----------------------------------------........--------------.
(PID.TID 0000.0001) //     20 ------.......---------------.......-...---------------------------------............------------
(PID.TID 0000.0001) //     19 ------.......-----------------.------...---------------------------------...........------------
(PID.TID 0000.0001) //     18 ------.......----------------------....-----------------------------------..........------------
(PID.TID 0000.0001) //     17 ------.......-..------------------......----------------------------------..........------------
(PID.TID 0000.0001) //     16 ------......--.-----------------........-----------------------------------........-------------
(PID.TID 0000.0001) //     15 ------......--.----------------..........----------------------------------.......--------------
(PID.TID 0000.0001) //     14 -------....--------------------...........---------------------------------......---------------
(PID.TID 0000.0001) //     13 -------...---------------------..........----------------------------------.....----------------
(PID.TID 0000.0001) //     12 --------------------------------.----....----------------------------------....-----------------
(PID.TID 0000.0001) //     11 ----------------------------------------------.---------------------------....------------------
(PID.TID 0000.0001) //     10 ---------------------------------------------.----------------------------...-------------------
(PID.TID 0000.0001) //      9 --------------------------------------------------------------------------...-------------------
(PID.TID 0000.0001) //      8 --------------------------------------------------------------------------..--------------------
(PID.TID 0000.0001) //      7 ------------------------------------------------------------------------------------------------
(PID.TID 0000.0001) //      6 ------------------------------------------------------------------------------------------------
(PID.TID 0000.0001) //      5 ----------------------------.------------------------------------------------.------------------
(PID.TID 0000.0001) //      4 -----------.-..............................--------------------------------...------------------
(PID.TID 0000.0001) //      3 ..............................................----------------------..........-----------.......
(PID.TID 0000.0001) //      2 ..............................................--------...........................----...........
(PID.TID 0000.0001) //      1 ................................................................................................
(PID.TID 0000.0001) //      0 ................................................................................................
(PID.TID 0000.0001) //     -1 --------................................................................................--------
(PID.TID 0000.0001) //     -2 --------...............................................................................---------
(PID.TID 0000.0001) // =======================================================
(PID.TID 0000.0001) // END OF FIELD                                          =
(PID.TID 0000.0001) // =======================================================
(PID.TID 0000.0001) 
(PID.TID 0000.0001) // =======================================================
(PID.TID 0000.0001) // Field hFacW at iteration          1
(PID.TID 0000.0001) // CMIN =          1.000000000000000E+00
(PID.TID 0000.0001) // CMAX =          1.000000000000000E+00
(PID.TID 0000.0001) // CINT =          0.000000000000000E+00
(PID.TID 0000.0001) // SYMBOLS (CMIN->CMAX): -abcdefghijklmnopqrstuvwxyz+
(PID.TID 0000.0001) //                  0.0: .
(PID.TID 0000.0001) // RANGE I (Lo:Hi:Step):(  -2:  93:   1)
(PID.TID 0000.0001) // RANGE J (Lo:Hi:Step):(  43:  -2:  -1)
(PID.TID 0000.0001) // RANGE K (Lo:Hi:Step):(   1:   1:   1)
(PID.TID 0000.0001) // =======================================================
(PID.TID 0000.0001) K =   1
(PID.TID 0000.0001) //                I=7       I=17      I=27      I=37      I=47      I=57      I=67      I=77      I=87
(PID.TID 0000.0001) // |--J--|**0123456|890123456|890123456|890123456|890123456|890123456|890123456|890123456|890123456|890123
(PID.TID 0000.0001) //     43 ...............................................---------------------...........----------.......
(PID.TID 0000.0001) //     42 ...............................................-------............................---...........
(PID.TID 0000.0001) //     41 ................................................................................................
(PID.TID 0000.0001) //     40 ................................................................................................
(PID.TID 0000.0001) //     39 --------.................................................................................-------
(PID.TID 0000.0001) //     38 --------................................................................................--------
(PID.TID 0000.0001) //     37 ------.........................................................................-.....---..------
(PID.TID 0000.0001) //     36 ----...........................................----...........................---..-----------..
(PID.TID 0000.0001) //     35 -...-..................................---..---------..-----...................------------...-.
(PID.TID 0000.0001) //     34 -.......................................---------------------...................-----------.....
(PID.TID 0000.0001) //     33 --......................................----------------------................-..-----------....
(PID.TID 0000.0001) //     32 -.......................................----------------------................-------------.....
(PID.TID 0000.0001) //     31 ........................................----------------------..............--------------......
(PID.TID 0000.0001) //     30 -......................................-----------------------.............----------------.....
(PID.TID 0000.0001) //     29 -..................................-----------------------------..........-----------------.....
(PID.TID 0000.0001) //     28 ..................................------------------------------.......-..----------------......
(PID.TID 0000.0001) //     27 ...................................-------------------------------....-------------------.......
(PID.TID 0000.0001) //     26 ...................--...........-----------------------------------.....-----------------.......
(PID.TID 0000.0001) //     25 .................----...---....--..---------------------------------.....----------------.......
(PID.TID 0000.0001) //     24 ................------..---....--..------------------------------------..--..------------.......
(PID.TID 0000.0001) //     23 .................----------..-------------------------------------------.......-----------......
(PID.TID 0000.0001) //     22 -----...........-----------...-...---------------------------------------........--------------.
(PID.TID 0000.0001) //     21 -----..........-------------......---------------------------------------.........-------------.
(PID.TID 0000.0001) //     20 ------........--------------............--------------------------------.............-----------
(PID.TID 0000.0001) //     19 ------........----------------..-----....--------------------------------............-----------
(PID.TID 0000.0001) //     18 ------........---------------------.....----------------------------------...........-----------
(PID.TID 0000.0001) //     17 ------...........-----------------.......---------------------------------...........-----------
(PID.TID 0000.0001) //     16 ------.......-..----------------.........----------------------------------.........------------
(PID.TID 0000.0001) //     15 ------.......-..---------------...........---------------------------------........-------------
(PID.TID 0000.0001) //     14 -------.....-------------------............--------------------------------.......--------------
(PID.TID 0000.0001) //     13 -------....--------------------...........---------------------------------......---------------
(PID.TID 0000.0001) //     12 --------------------------------..---.....---------------------------------.....----------------
(PID.TID 0000.0001) //     11 ----------------------------------------------..--------------------------.....-----------------
(PID.TID 0000.0001) //     10 ---------------------------------------------..---------------------------....------------------
(PID.TID 0000.0001) //      9 --------------------------------------------------------------------------....------------------
(PID.TID 0000.0001) //      8 --------------------------------------------------------------------------...-------------------
(PID.TID 0000.0001) //      7 ------------------------------------------------------------------------------------------------
(PID.TID 0000.0001) //      6 ------------------------------------------------------------------------------------------------
(PID.TID 0000.0001) //      5 ----------------------------..-----------------------------------------------..-----------------
(PID.TID 0000.0001) //      4 -----------.................................-------------------------------....-----------------
(PID.TID 0000.0001) //      3 ...............................................---------------------...........----------.......
(PID.TID 0000.0001) //      2 ...............................................-------............................---...........
(PID.TID 0000.0001) //      1 ................................................................................................
(PID.TID 0000.0001) //      0 ................................................................................................
(PID.TID 0000.0001) //     -1 --------.................................................................................-------
(PID.TID 0000.0001) //     -2 --------................................................................................--------
(PID.TID 0000.0001) // =======================================================
(PID.TID 0000.0001) // END OF FIELD                                          =
(PID.TID 0000.0001) // =======================================================
(PID.TID 0000.0001) 
(PID.TID 0000.0001) // =======================================================
(PID.TID 0000.0001) // Field hFacS at iteration          1
(PID.TID 0000.0001) // CMIN =          1.000000000000000E+00
(PID.TID 0000.0001) // CMAX =          1.000000000000000E+00
(PID.TID 0000.0001) // CINT =          0.000000000000000E+00
(PID.TID 0000.0001) // SYMBOLS (CMIN->CMAX): -abcdefghijklmnopqrstuvwxyz+
(PID.TID 0000.0001) //                  0.0: .
(PID.TID 0000.0001) // RANGE I (Lo:Hi:Step):(  -2:  93:   1)
(PID.TID 0000.0001) // RANGE J (Lo:Hi:Step):(  43:  -2:  -1)
(PID.TID 0000.0001) // RANGE K (Lo:Hi:Step):(   1:   1:   1)
(PID.TID 0000.0001) // =======================================================
(PID.TID 0000.0001) K =   1
(PID.TID 0000.0001) //                I=7       I=17      I=27      I=37      I=47      I=57      I=67      I=77      I=87
(PID.TID 0000.0001) // |--J--|**0123456|890123456|890123456|890123456|890123456|890123456|890123456|890123456|890123456|890123
(PID.TID 0000.0001) //     43 ................................................................................................
(PID.TID 0000.0001) //     42 ................................................................................................
(PID.TID 0000.0001) //     41 ................................................................................................
(PID.TID 0000.0001) //     40 ................................................................................................
(PID.TID 0000.0001) //     39 --------................................................................................--------
(PID.TID 0000.0001) //     38 ------.................................................................................-.-------
(PID.TID 0000.0001) //     37 ----..........................................................................--....----.-----..
(PID.TID 0000.0001) //     36 -..-..........................................-----...........................---.---------..-..
(PID.TID 0000.0001) //     35 -......................................---.----------.------...................------------.....
(PID.TID 0000.0001) //     34 -......................................----------------------...................-----------.....
(PID.TID 0000.0001) //     33 -......................................-----------------------...............--.-----------.....
(PID.TID 0000.0001) //     32 .......................................-----------------------...............-------------......
(PID.TID 0000.0001) //     31 .......................................-----------------------.............---------------......
(PID.TID 0000.0001) //     30 -.....................................------------------------............-----------------.....
(PID.TID 0000.0001) //     29 ..................................------------------------------.........-----------------......
(PID.TID 0000.0001) //     28 ..................................------------------------------......--.----------------.......
(PID.TID 0000.0001) //     27 ..................................--------------------------------...-.------------------.......
(PID.TID 0000.0001) //     26 ..................---....-.....--.---------------------------------.....-----------------.......
(PID.TID 0000.0001) //     25 ................-----..----...---.----------------------------------....---.-------------.......
(PID.TID 0000.0001) //     24 ................------.----...---.-------------------------------------.......-----------.......
(PID.TID 0000.0001) //     23 ................-----------..--..---------------------------------------........----------......
(PID.TID 0000.0001) //     22 -----..........------------......----------------------------------------........--------------.
(PID.TID 0000.0001) //     21 -----.........--------------.......-...---------------------------------............-----------.
(PID.TID 0000.0001) //     20 ------.......---------------.......-....--------------------------------............------------
(PID.TID 0000.0001) //     19 ------.......-----------------.----.....---------------------------------...........------------
(PID.TID 0000.0001) //     18 ------.......-..------------------......----------------------------------..........------------
(PID.TID 0000.0001) //     17 ------.......-..----------------........----------------------------------..........------------
(PID.TID 0000.0001) //     16 ------......--.----------------..........----------------------------------........-------------
(PID.TID 0000.0001) //     15 ------......--.----------------...........---------------------------------.......--------------
(PID.TID 0000.0001) //     14 -------....--------------------...........---------------------------------......---------------
(PID.TID 0000.0001) //     13 -------...---------------------..........----------------------------------.....----------------
(PID.TID 0000.0001) //     12 --------------------------------.----....-----.---------------------------.....-----------------
(PID.TID 0000.0001) //     11 ---------------------------------------------..---------------------------....------------------
(PID.TID 0000.0001) //     10 ---------------------------------------------.----------------------------...-------------------
(PID.TID 0000.0001) //      9 --------------------------------------------------------------------------...-------------------
(PID.TID 0000.0001) //      8 --------------------------------------------------------------------------..--------------------
(PID.TID 0000.0001) //      7 ------------------------------------------------------------------------------------------------
(PID.TID 0000.0001) //      6 ----------------------------.------------------------------------------------.------------------
(PID.TID 0000.0001) //      5 -----------.-..............................--------------------------------...------------------
(PID.TID 0000.0001) //      4 ..............................................----------------------..........-----------.......
(PID.TID 0000.0001) //      3 ..............................................--------...........................----...........
(PID.TID 0000.0001) //      2 ................................................................................................
(PID.TID 0000.0001) //      1 ................................................................................................
(PID.TID 0000.0001) //      0 ................................................................................................
(PID.TID 0000.0001) //     -1 --------................................................................................--------
(PID.TID 0000.0001) //     -2 ................................................................................................
(PID.TID 0000.0001) // =======================================================
(PID.TID 0000.0001) // END OF FIELD                                          =
(PID.TID 0000.0001) // =======================================================
(PID.TID 0000.0001) 
(PID.TID 0000.0001) %MON fCori_max                    =   1.4323448157692E-04
(PID.TID 0000.0001) %MON fCori_min                    =  -1.4112379284621E-04
(PID.TID 0000.0001) %MON fCori_mean                   =   3.6726790147928E-06
(PID.TID 0000.0001) %MON fCori_sd                     =   9.7510077443651E-05
(PID.TID 0000.0001) %MON fCoriG_max                   =   1.4226580169407E-04
(PID.TID 0000.0001) %MON fCoriG_min                   =  -1.4226580169407E-04
(PID.TID 0000.0001) %MON fCoriG_mean                  =   7.5291817533716E-23
(PID.TID 0000.0001) %MON fCoriG_sd                    =   9.6335367303778E-05
(PID.TID 0000.0001)  PACKAGES_BOOT: opening data.pkg
(PID.TID 0000.0001)  OPEN_COPY_DATA_FILE: opening file data.pkg
(PID.TID 0000.0001) // =======================================================
(PID.TID 0000.0001) // Parameter file "data.pkg"
(PID.TID 0000.0001) // =======================================================
(PID.TID 0000.0001) ># Packages
(PID.TID 0000.0001) > &PACKAGES
(PID.TID 0000.0001) > useGMRedi=.TRUE.
(PID.TID 0000.0001) > &
(PID.TID 0000.0001) >
(PID.TID 0000.0001) 
(PID.TID 0000.0001)  PACKAGES_BOOT: finished reading data.pkg
(PID.TID 0000.0001)  GM_READPARMS: opening data.gmredi
(PID.TID 0000.0001)  OPEN_COPY_DATA_FILE: opening file data.gmredi
(PID.TID 0000.0001) // =======================================================
(PID.TID 0000.0001) // Parameter file "data.gmredi"
(PID.TID 0000.0001) // =======================================================
(PID.TID 0000.0001) ># GM+Redi package parameters:
(PID.TID 0000.0001) >
(PID.TID 0000.0001) >#-from MOM :
(PID.TID 0000.0001) ># GM_background_K: 	G & Mc.W  diffusion coefficient
(PID.TID 0000.0001) ># GM_maxSlope    :	max slope of isopycnals
(PID.TID 0000.0001) ># GM_Scrit       :	transition for scaling diffusion coefficient
(PID.TID 0000.0001) ># GM_Sd          :	half width scaling for diffusion coefficient
(PID.TID 0000.0001) ># GM_taper_scheme:	slope clipping or one of the tapering schemes
(PID.TID 0000.0001) ># GM_Kmin_horiz  :	horizontal diffusion minimum value
(PID.TID 0000.0001) >
(PID.TID 0000.0001) >#-Option parameters (needs to "define" options in GMREDI_OPTIONS.h")
(PID.TID 0000.0001) ># GM_isopycK     :	isopycnal diffusion coefficient (default=GM_background_K)
(PID.TID 0000.0001) ># GM_AdvForm     :	turn on GM Advective form       (default=Skew flux form)
(PID.TID 0000.0001) >
(PID.TID 0000.0001) > &GM_PARM01
(PID.TID 0000.0001) >  GM_background_K    = 1.e+3,
(PID.TID 0000.0001) >  GM_taper_scheme    = 'gkw91',
(PID.TID 0000.0001) >  GM_maxSlope        = 1.e-2,
(PID.TID 0000.0001) >  GM_Kmin_horiz      = 50.,
(PID.TID 0000.0001) >  GM_Scrit           = 4.e-3,
(PID.TID 0000.0001) >  GM_Sd              = 1.e-3,
(PID.TID 0000.0001) ># GM_Visbeck_alpha   = 0.,
(PID.TID 0000.0001) ># GM_Visbeck_length  = 2.e+5,
(PID.TID 0000.0001) ># GM_Visbeck_depth   = 1.e+3,
(PID.TID 0000.0001) ># GM_Visbeck_maxval_K= 2.5e+3,
(PID.TID 0000.0001) > &end
(PID.TID 0000.0001) >
(PID.TID 0000.0001) >
(PID.TID 0000.0001) 
(PID.TID 0000.0001)  GM_READPARMS: finished reading data.gmredi
(PID.TID 0000.0001) GMREDI_CHECK: #define GMREDI
(PID.TID 0000.0001) GM_AdvForm =  /* if FALSE => use SkewFlux Form */
(PID.TID 0000.0001)                   F
(PID.TID 0000.0001)     ;
(PID.TID 0000.0001) GM_ExtraDiag =  /* Tensor Extra Diag (line 1&2) non 0 */
(PID.TID 0000.0001)                   F
(PID.TID 0000.0001)     ;
(PID.TID 0000.0001) GM_isopycK =   /* Background Isopyc. Diffusivity ( m^2/s ) */
(PID.TID 0000.0001)                 1.000000000000000E+03
(PID.TID 0000.0001)     ;
(PID.TID 0000.0001)  GM_skewflx*K =   /* Background GM_SkewFlx Diffusivity ( m^2/s ) */
(PID.TID 0000.0001)                 1.000000000000000E+03
(PID.TID 0000.0001)     ;
(PID.TID 0000.0001)  GM_advec*K =   /* Backg. GM-Advec(=Bolus) Diffusivity ( m^2/s ) */
(PID.TID 0000.0001)                 0.000000000000000E+00
(PID.TID 0000.0001)     ;
(PID.TID 0000.0001)  GM_Visbeck_alpha =   /* Visbeck alpha coeff. ( ) */
(PID.TID 0000.0001)                 0.000000000000000E+00
(PID.TID 0000.0001)     ;
(PID.TID 0000.0001)  Tapering/Cliping : gkw91
(PID.TID 0000.0001) // CG2D normalisation factor =          0.7375667548770356281382515E-04
(PID.TID 0000.0001) 
(PID.TID 0000.0001) // =======================================================
(PID.TID 0000.0001) // Model configuration
(PID.TID 0000.0001) // =======================================================
(PID.TID 0000.0001) //
(PID.TID 0000.0001) // "Physical" paramters ( PARM01 in namelist )
(PID.TID 0000.0001) //
(PID.TID 0000.0001) tRef =   /* Reference temperature profile ( oC or oK ) */
(PID.TID 0000.0001)    15 @  2.000000000000000E+01              /* K =  1: 15 */
(PID.TID 0000.0001)     ;
(PID.TID 0000.0001) sRef =   /* Reference salinity profile ( ppt ) */
(PID.TID 0000.0001)    15 @  3.500000000000000E+01              /* K =  1: 15 */
(PID.TID 0000.0001)     ;
(PID.TID 0000.0001) viscAh =   /* Lateral eddy viscosity ( m^2/s ) */
(PID.TID 0000.0001)                 5.000000000000000E+05
(PID.TID 0000.0001)     ;
(PID.TID 0000.0001) viscAh =   /* Lateral biharmonic viscosity ( m^4/s ) */
(PID.TID 0000.0001)                 0.000000000000000E+00
(PID.TID 0000.0001)     ;
(PID.TID 0000.0001) no_slip_sides =  /* Viscous BCs: No-slip sides */
(PID.TID 0000.0001)                   T
(PID.TID 0000.0001)     ;
(PID.TID 0000.0001) viscAz =   /* Vertical eddy viscosity ( m^2/s ) */
(PID.TID 0000.0001)                 1.000000000000000E-03
(PID.TID 0000.0001)     ;
(PID.TID 0000.0001) viscAr =   /* Vertical eddy viscosity ( units of r^2/s ) */
(PID.TID 0000.0001)                 1.000000000000000E-03
(PID.TID 0000.0001)     ;
(PID.TID 0000.0001) diffKhT =   /* Laplacian diffusion of heat laterally ( m^2/s ) */
(PID.TID 0000.0001)                 0.000000000000000E+00
(PID.TID 0000.0001)     ;
(PID.TID 0000.0001) diffK4T =   /* Bihaarmonic diffusion of heat laterally ( m^4/s ) */
(PID.TID 0000.0001)                 0.000000000000000E+00
(PID.TID 0000.0001)     ;
(PID.TID 0000.0001) diffKzT =   /* Laplacian diffusion of heat vertically ( m^2/s ) */
(PID.TID 0000.0001)                 3.000000000000000E-05
(PID.TID 0000.0001)     ;
(PID.TID 0000.0001) diffKrT =   /* Laplacian diffusion of heat vertically ( m^2/s ) */
(PID.TID 0000.0001)                 3.000000000000000E-05
(PID.TID 0000.0001)     ;
(PID.TID 0000.0001) diffKhS =   /* Laplacian diffusion of salt laterally ( m^2/s ) */
(PID.TID 0000.0001)                 0.000000000000000E+00
(PID.TID 0000.0001)     ;
(PID.TID 0000.0001) diffK4S =   /* Bihaarmonic diffusion of salt laterally ( m^4/s ) */
(PID.TID 0000.0001)                 0.000000000000000E+00
(PID.TID 0000.0001)     ;
(PID.TID 0000.0001) diffKzS =   /* Laplacian diffusion of salt vertically ( m^2/s ) */
(PID.TID 0000.0001)                 3.000000000000000E-05
(PID.TID 0000.0001)     ;
(PID.TID 0000.0001) diffKrS =   /* Laplacian diffusion of salt vertically ( m^2/s ) */
(PID.TID 0000.0001)                 3.000000000000000E-05
(PID.TID 0000.0001)     ;
(PID.TID 0000.0001) tAlpha =   /* Linear EOS thermal expansion coefficient ( 1/degree ) */
(PID.TID 0000.0001)                 2.000000000000000E-04
(PID.TID 0000.0001)     ;
(PID.TID 0000.0001) sBeta =   /* Linear EOS haline contraction coefficient ( 1/ppt ) */
(PID.TID 0000.0001)                 7.400000000000000E-04
(PID.TID 0000.0001)     ;
(PID.TID 0000.0001)   1  13.497  32.600  24.570  -0.202   0.771  -0.005  -0.002   0.000   0.000   0.000   0.000   0.000
(PID.TID 0000.0001)   2  13.488  32.600  24.840  -0.203   0.770  -0.005  -0.002   0.000   0.000   0.000   0.000   0.000
(PID.TID 0000.0001)   3  13.476  32.600  25.221  -0.205   0.770  -0.005  -0.002   0.000   0.000   0.000   0.000   0.000
(PID.TID 0000.0001)   4   8.469  35.150  28.657  -0.163   0.781  -0.005  -0.002   0.001   0.000   0.000   0.000   0.000
(PID.TID 0000.0001)   5   8.451  35.150  29.405  -0.167   0.780  -0.005  -0.002   0.001   0.000   0.000   0.000   0.000
(PID.TID 0000.0001)   6   5.940  34.900  30.574  -0.145   0.784  -0.006  -0.002   0.001   0.000   0.000   0.000   0.000
(PID.TID 0000.0001)   7   4.425  34.900  31.991  -0.135   0.786  -0.006  -0.003   0.000   0.000   0.000   0.000   0.000
(PID.TID 0000.0001)   8   2.911  34.750  33.505  -0.125   0.787  -0.006  -0.003   0.000   0.000   0.000   0.000   0.000
(PID.TID 0000.0001)   9   1.893  34.800  35.333  -0.123   0.787  -0.006  -0.003   0.000   0.000   0.000   0.000   0.000
(PID.TID 0000.0001)  10   1.367  34.800  37.279  -0.129   0.785  -0.006  -0.003  -0.001   0.000   0.000   0.000   0.000
(PID.TID 0000.0001)  11   1.328  34.800  39.372  -0.141   0.781  -0.006  -0.003  -0.002   0.000   0.000   0.000   0.000
(PID.TID 0000.0001)  12   0.792  34.800  41.739  -0.149   0.778  -0.006  -0.003  -0.001   0.000   0.000   0.000   0.000
(PID.TID 0000.0001)  13   0.737  34.750  44.192  -0.163   0.774  -0.005  -0.002  -0.003   0.000   0.000   0.000   0.000
(PID.TID 0000.0001)  14   0.188  34.750  46.956  -0.174   0.770  -0.005  -0.002  -0.002   0.000   0.000   0.000   0.000
(PID.TID 0000.0001)  15   0.596  34.750  49.726  -0.195   0.764  -0.005  -0.002  -0.001   0.000   0.000   0.000   0.000
(PID.TID 0000.0001) rhonil =   /* Reference density ( kg/m^3 ) */
(PID.TID 0000.0001)                 1.035000000000000E+03
(PID.TID 0000.0001)     ;
(PID.TID 0000.0001) rhoConst =   /* Reference density ( kg/m^3 ) */
(PID.TID 0000.0001)                 1.035000000000000E+03
(PID.TID 0000.0001)     ;
(PID.TID 0000.0001) gravity =   /* Gravitational acceleration ( m/s^2 ) */
(PID.TID 0000.0001)                 9.810000000000000E+00
(PID.TID 0000.0001)     ;
(PID.TID 0000.0001) gBaro =   /* Barotropic gravity ( m/s^2 ) */
(PID.TID 0000.0001)                 9.810000000000000E+00
(PID.TID 0000.0001)     ;
(PID.TID 0000.0001) f0 =   /* Reference coriolis parameter ( 1/s ) */
(PID.TID 0000.0001)                 1.000000000000000E-04
(PID.TID 0000.0001)     ;
(PID.TID 0000.0001) beta =   /* Beta ( 1/(m.s) ) */
(PID.TID 0000.0001)                 9.999999999999999E-12
(PID.TID 0000.0001)     ;
(PID.TID 0000.0001) freeSurfFac =   /* Implicit free surface factor */
(PID.TID 0000.0001)                 1.000000000000000E+00
(PID.TID 0000.0001)     ;
(PID.TID 0000.0001) implicitFreeSurface =   /* Implicit free surface on/off flag */
(PID.TID 0000.0001)                   T
(PID.TID 0000.0001)     ;
(PID.TID 0000.0001) rigidLid =   /* Rigid lid on/off flag */
(PID.TID 0000.0001)                   F
(PID.TID 0000.0001)     ;
(PID.TID 0000.0001) implicSurfPress =   /* Surface Pressure implicit factor (0-1)*/
(PID.TID 0000.0001)                 1.000000000000000E+00
(PID.TID 0000.0001)     ;
(PID.TID 0000.0001) implicDiv2Dflow =   /* Barot. Flow Div. implicit factor (0-1)*/
(PID.TID 0000.0001)                 1.000000000000000E+00
(PID.TID 0000.0001)     ;
(PID.TID 0000.0001) staggerTimeStep =   /* Stagger time stepping on/off flag */
(PID.TID 0000.0001)                   F
(PID.TID 0000.0001)     ;
(PID.TID 0000.0001) momStepping =  /* Momentum equation on/off flag */
(PID.TID 0000.0001)                   T
(PID.TID 0000.0001)     ;
(PID.TID 0000.0001) momAdvection =  /* Momentum advection on/off flag */
(PID.TID 0000.0001)                   T
(PID.TID 0000.0001)     ;
(PID.TID 0000.0001) momViscosity =  /* Momentum viscosity on/off flag */
(PID.TID 0000.0001)                   T
(PID.TID 0000.0001)     ;
(PID.TID 0000.0001) useCoriolis =  /* Coriolis on/off flag */
(PID.TID 0000.0001)                   T
(PID.TID 0000.0001)     ;
(PID.TID 0000.0001) momForcing =  /* Momentum forcing on/off flag */
(PID.TID 0000.0001)                   T
(PID.TID 0000.0001)     ;
(PID.TID 0000.0001) momPressureForcing =  /* Momentum pressure term on/off flag */
(PID.TID 0000.0001)                   T
(PID.TID 0000.0001)     ;
(PID.TID 0000.0001) tempStepping =  /* Temperature equation on/off flag */
(PID.TID 0000.0001)                   T
(PID.TID 0000.0001)     ;
(PID.TID 0000.0001) nonHydrostatic =  /* Non-Hydrostatic on/off flag */
(PID.TID 0000.0001)                   F
(PID.TID 0000.0001)     ;
(PID.TID 0000.0001) //
(PID.TID 0000.0001) // Elliptic solver(s) paramters ( PARM02 in namelist )
(PID.TID 0000.0001) //
(PID.TID 0000.0001) cg2dMaxIters =   /* Upper limit on 2d con. grad iterations  */
(PID.TID 0000.0001)                    1000
(PID.TID 0000.0001)     ;
(PID.TID 0000.0001) cg2dChkResFreq =   /* 2d con. grad convergence test frequency */
(PID.TID 0000.0001)                       1
(PID.TID 0000.0001)     ;
(PID.TID 0000.0001) cg2dTargetResidual =   /* 2d con. grad target residual  */
(PID.TID 0000.0001)                 1.000000000000000E-17
(PID.TID 0000.0001)     ;
(PID.TID 0000.0001) //
(PID.TID 0000.0001) // Time stepping paramters ( PARM03 in namelist )
(PID.TID 0000.0001) //
(PID.TID 0000.0001) nIter0 =   /* Base timestep number  */
(PID.TID 0000.0001)                       0
(PID.TID 0000.0001)     ;
(PID.TID 0000.0001) nTimeSteps =   /* Number of timesteps */
(PID.TID 0000.0001)                      20
(PID.TID 0000.0001)     ;
(PID.TID 0000.0001) deltatTmom =   /* Momentum equation timestep ( s ) */
(PID.TID 0000.0001)                 1.200000000000000E+03
(PID.TID 0000.0001)     ;
(PID.TID 0000.0001) deltatTtracer =   /* Tracer equation timestep ( s ) */
(PID.TID 0000.0001)                 4.320000000000000E+04
(PID.TID 0000.0001)     ;
(PID.TID 0000.0001) deltatTClock  =   /* Model clock timestep ( s ) */
(PID.TID 0000.0001)                 4.320000000000000E+04
(PID.TID 0000.0001)     ;
(PID.TID 0000.0001) cAdjFreq =   /* Convective adjustment interval ( s ) */
(PID.TID 0000.0001)                 0.000000000000000E+00
(PID.TID 0000.0001)     ;
(PID.TID 0000.0001) abeps =   /* Adams-Bashforth stabilizing weight */
(PID.TID 0000.0001)                 1.000000000000000E-01
(PID.TID 0000.0001)     ;
(PID.TID 0000.0001) tauCD =   /* CD coupling time-scale ( s ) */
(PID.TID 0000.0001)                 3.214280000000000E+05
(PID.TID 0000.0001)     ;
(PID.TID 0000.0001) rCD =   /* Normalised CD coupling parameter */
(PID.TID 0000.0001)                 9.962666600296178E-01
(PID.TID 0000.0001)     ;
(PID.TID 0000.0001) startTime =   /* Run start time ( s ). */
(PID.TID 0000.0001)                 0.000000000000000E+00
(PID.TID 0000.0001)     ;
(PID.TID 0000.0001) endTime =   /* Integration ending time ( s ). */
(PID.TID 0000.0001)                 8.640000000000000E+05
(PID.TID 0000.0001)     ;
(PID.TID 0000.0001) pChkPtFreq =   /* Permanent restart/checkpoint file interval ( s ). */
(PID.TID 0000.0001)                 3.110400000000000E+07
(PID.TID 0000.0001)     ;
(PID.TID 0000.0001) chkPtFreq =   /* Rolling restart/checkpoint file interval ( s ). */
(PID.TID 0000.0001)                 3.110400000000000E+07
(PID.TID 0000.0001)     ;
(PID.TID 0000.0001) dumpFreq =   /* Model state write out interval ( s ). */
(PID.TID 0000.0001)                 3.110400000000000E+07
(PID.TID 0000.0001)     ;
(PID.TID 0000.0001) //
(PID.TID 0000.0001) // Gridding paramters ( PARM04 in namelist )
(PID.TID 0000.0001) //
(PID.TID 0000.0001) usingCartesianGrid =   /* Cartesian coordinates flag ( True / False ) */
(PID.TID 0000.0001)                   F
(PID.TID 0000.0001)     ;
(PID.TID 0000.0001) usingSphericalPolarGrid =   /* Spherical coordinates flag ( True / False ) */
(PID.TID 0000.0001)                   T
(PID.TID 0000.0001)     ;
(PID.TID 0000.0001) groundAtK1 =   /* Lower Boundary (ground) at the surface(k=1) ( T / F ) */
(PID.TID 0000.0001)                   F
(PID.TID 0000.0001)     ;
(PID.TID 0000.0001) Ro_SeaLevel =   /* r(1) ( units of r ) */
(PID.TID 0000.0001)                 0.000000000000000E+00
(PID.TID 0000.0001)     ;
(PID.TID 0000.0001) rkFac =   /* minus Vertical index orientation  */
(PID.TID 0000.0001)                 1.000000000000000E+00
(PID.TID 0000.0001)     ;
(PID.TID 0000.0001) horiVertRatio =   /* Ratio on units : Horiz - Vertical */
(PID.TID 0000.0001)                 1.000000000000000E+00
(PID.TID 0000.0001)     ;
(PID.TID 0000.0001) delZ =   /* W spacing ( m ) */
(PID.TID 0000.0001)                 5.000000000000000E+01,      /* K =  1 */
(PID.TID 0000.0001)                 7.000000000000000E+01,      /* K =  2 */
(PID.TID 0000.0001)                 1.000000000000000E+02,      /* K =  3 */
(PID.TID 0000.0001)                 1.400000000000000E+02,      /* K =  4 */
(PID.TID 0000.0001)                 1.900000000000000E+02,      /* K =  5 */
(PID.TID 0000.0001)                 2.400000000000000E+02,      /* K =  6 */
(PID.TID 0000.0001)                 2.900000000000000E+02,      /* K =  7 */
(PID.TID 0000.0001)                 3.400000000000000E+02,      /* K =  8 */
(PID.TID 0000.0001)                 3.900000000000000E+02,      /* K =  9 */
(PID.TID 0000.0001)                 4.400000000000000E+02,      /* K = 10 */
(PID.TID 0000.0001)                 4.900000000000000E+02,      /* K = 11 */
(PID.TID 0000.0001)                 5.400000000000000E+02,      /* K = 12 */
(PID.TID 0000.0001)                 5.900000000000000E+02,      /* K = 13 */
(PID.TID 0000.0001)                 6.400000000000000E+02,      /* K = 14 */
(PID.TID 0000.0001)                 6.900000000000000E+02       /* K = 15 */
(PID.TID 0000.0001)     ;
(PID.TID 0000.0001) delP =   /* W spacing ( Pa ) */
(PID.TID 0000.0001)    15 @  1.234567000000000E+05              /* K =  1: 15 */
(PID.TID 0000.0001)     ;
(PID.TID 0000.0001) delR =   /* W spacing ( units of r ) */
(PID.TID 0000.0001)                 5.000000000000000E+01,      /* K =  1 */
(PID.TID 0000.0001)                 7.000000000000000E+01,      /* K =  2 */
(PID.TID 0000.0001)                 1.000000000000000E+02,      /* K =  3 */
(PID.TID 0000.0001)                 1.400000000000000E+02,      /* K =  4 */
(PID.TID 0000.0001)                 1.900000000000000E+02,      /* K =  5 */
(PID.TID 0000.0001)                 2.400000000000000E+02,      /* K =  6 */
(PID.TID 0000.0001)                 2.900000000000000E+02,      /* K =  7 */
(PID.TID 0000.0001)                 3.400000000000000E+02,      /* K =  8 */
(PID.TID 0000.0001)                 3.900000000000000E+02,      /* K =  9 */
(PID.TID 0000.0001)                 4.400000000000000E+02,      /* K = 10 */
(PID.TID 0000.0001)                 4.900000000000000E+02,      /* K = 11 */
(PID.TID 0000.0001)                 5.400000000000000E+02,      /* K = 12 */
(PID.TID 0000.0001)                 5.900000000000000E+02,      /* K = 13 */
(PID.TID 0000.0001)                 6.400000000000000E+02,      /* K = 14 */
(PID.TID 0000.0001)                 6.900000000000000E+02       /* K = 15 */
(PID.TID 0000.0001)     ;
(PID.TID 0000.0001) delX =   /* U spacing ( m - cartesian, degrees - spherical ) */
(PID.TID 0000.0001)    90 @  4.000000000000000E+00              /* I =  1: 90 */
(PID.TID 0000.0001)     ;
(PID.TID 0000.0001) delY =   /* V spacing ( m - cartesian, degrees - spherical ) */
(PID.TID 0000.0001)    40 @  4.000000000000000E+00              /* J =  1: 40 */
(PID.TID 0000.0001)     ;
(PID.TID 0000.0001) phiMin =    /* South edge (ignored - cartesian, degrees - spherical ) */
(PID.TID 0000.0001)                -7.800000000000000E+01
(PID.TID 0000.0001)     ;
(PID.TID 0000.0001) thetaMin =    /* West edge ( ignored - cartesian, degrees - spherical ) */
(PID.TID 0000.0001)                 0.000000000000000E+00
(PID.TID 0000.0001)     ;
(PID.TID 0000.0001) rSphere =    /* Radius ( ignored - cartesian, m - spherical ) */
(PID.TID 0000.0001)                 6.370000000000000E+06
(PID.TID 0000.0001)     ;
(PID.TID 0000.0001) xcoord =   /* P-point X coord ( m - cartesian, degrees - spherical ) */
(PID.TID 0000.0001)                 2.000000000000000E+00,      /* I =  1 */
(PID.TID 0000.0001)                 6.000000000000000E+00,      /* I =  2 */
(PID.TID 0000.0001)                 1.000000000000000E+01,      /* I =  3 */
(PID.TID 0000.0001)                 1.400000000000000E+01,      /* I =  4 */
(PID.TID 0000.0001)                 1.800000000000000E+01,      /* I =  5 */
(PID.TID 0000.0001)                 2.200000000000000E+01,      /* I =  6 */
(PID.TID 0000.0001)                 2.600000000000000E+01,      /* I =  7 */
(PID.TID 0000.0001)                 3.000000000000000E+01,      /* I =  8 */
(PID.TID 0000.0001)                 3.400000000000000E+01,      /* I =  9 */
(PID.TID 0000.0001)                 3.800000000000000E+01,      /* I = 10 */
(PID.TID 0000.0001)                 4.200000000000000E+01,      /* I = 11 */
(PID.TID 0000.0001)                 4.600000000000000E+01,      /* I = 12 */
(PID.TID 0000.0001)                 5.000000000000000E+01,      /* I = 13 */
(PID.TID 0000.0001)                 5.400000000000000E+01,      /* I = 14 */
(PID.TID 0000.0001)                 5.800000000000000E+01,      /* I = 15 */
(PID.TID 0000.0001)                 6.200000000000000E+01,      /* I = 16 */
(PID.TID 0000.0001)                 6.600000000000000E+01,      /* I = 17 */
(PID.TID 0000.0001)                 7.000000000000000E+01,      /* I = 18 */
(PID.TID 0000.0001)                 7.400000000000000E+01,      /* I = 19 */
(PID.TID 0000.0001)                 7.800000000000000E+01,      /* I = 20 */
(PID.TID 0000.0001)                 8.200000000000000E+01,      /* I = 21 */
(PID.TID 0000.0001)                 8.600000000000000E+01,      /* I = 22 */
(PID.TID 0000.0001)                 9.000000000000000E+01,      /* I = 23 */
(PID.TID 0000.0001)                 9.400000000000000E+01,      /* I = 24 */
(PID.TID 0000.0001)                 9.800000000000000E+01,      /* I = 25 */
(PID.TID 0000.0001)                 1.020000000000000E+02,      /* I = 26 */
(PID.TID 0000.0001)                 1.060000000000000E+02,      /* I = 27 */
(PID.TID 0000.0001)                 1.100000000000000E+02,      /* I = 28 */
(PID.TID 0000.0001)                 1.140000000000000E+02,      /* I = 29 */
(PID.TID 0000.0001)                 1.180000000000000E+02,      /* I = 30 */
(PID.TID 0000.0001)                 1.220000000000000E+02,      /* I = 31 */
(PID.TID 0000.0001)                 1.260000000000000E+02,      /* I = 32 */
(PID.TID 0000.0001)                 1.300000000000000E+02,      /* I = 33 */
(PID.TID 0000.0001)                 1.340000000000000E+02,      /* I = 34 */
(PID.TID 0000.0001)                 1.380000000000000E+02,      /* I = 35 */
(PID.TID 0000.0001)                 1.420000000000000E+02,      /* I = 36 */
(PID.TID 0000.0001)                 1.460000000000000E+02,      /* I = 37 */
(PID.TID 0000.0001)                 1.500000000000000E+02,      /* I = 38 */
(PID.TID 0000.0001)                 1.540000000000000E+02,      /* I = 39 */
(PID.TID 0000.0001)                 1.580000000000000E+02,      /* I = 40 */
(PID.TID 0000.0001)                 1.620000000000000E+02,      /* I = 41 */
(PID.TID 0000.0001)                 1.660000000000000E+02,      /* I = 42 */
(PID.TID 0000.0001)                 1.700000000000000E+02,      /* I = 43 */
(PID.TID 0000.0001)                 1.740000000000000E+02,      /* I = 44 */
(PID.TID 0000.0001)                 1.780000000000000E+02,      /* I = 45 */
(PID.TID 0000.0001)                 1.820000000000000E+02,      /* I = 46 */
(PID.TID 0000.0001)                 1.860000000000000E+02,      /* I = 47 */
(PID.TID 0000.0001)                 1.900000000000000E+02,      /* I = 48 */
(PID.TID 0000.0001)                 1.940000000000000E+02,      /* I = 49 */
(PID.TID 0000.0001)                 1.980000000000000E+02,      /* I = 50 */
(PID.TID 0000.0001)                 2.020000000000000E+02,      /* I = 51 */
(PID.TID 0000.0001)                 2.060000000000000E+02,      /* I = 52 */
(PID.TID 0000.0001)                 2.100000000000000E+02,      /* I = 53 */
(PID.TID 0000.0001)                 2.140000000000000E+02,      /* I = 54 */
(PID.TID 0000.0001)                 2.180000000000000E+02,      /* I = 55 */
(PID.TID 0000.0001)                 2.220000000000000E+02,      /* I = 56 */
(PID.TID 0000.0001)                 2.260000000000000E+02,      /* I = 57 */
(PID.TID 0000.0001)                 2.300000000000000E+02,      /* I = 58 */
(PID.TID 0000.0001)                 2.340000000000000E+02,      /* I = 59 */
(PID.TID 0000.0001)                 2.380000000000000E+02,      /* I = 60 */
(PID.TID 0000.0001)                 2.420000000000000E+02,      /* I = 61 */
(PID.TID 0000.0001)                 2.460000000000000E+02,      /* I = 62 */
(PID.TID 0000.0001)                 2.500000000000000E+02,      /* I = 63 */
(PID.TID 0000.0001)                 2.540000000000000E+02,      /* I = 64 */
(PID.TID 0000.0001)                 2.580000000000000E+02,      /* I = 65 */
(PID.TID 0000.0001)                 2.620000000000000E+02,      /* I = 66 */
(PID.TID 0000.0001)                 2.660000000000000E+02,      /* I = 67 */
(PID.TID 0000.0001)                 2.700000000000000E+02,      /* I = 68 */
(PID.TID 0000.0001)                 2.740000000000000E+02,      /* I = 69 */
(PID.TID 0000.0001)                 2.780000000000000E+02,      /* I = 70 */
(PID.TID 0000.0001)                 2.820000000000000E+02,      /* I = 71 */
(PID.TID 0000.0001)                 2.860000000000000E+02,      /* I = 72 */
(PID.TID 0000.0001)                 2.900000000000000E+02,      /* I = 73 */
(PID.TID 0000.0001)                 2.940000000000000E+02,      /* I = 74 */
(PID.TID 0000.0001)                 2.980000000000000E+02,      /* I = 75 */
(PID.TID 0000.0001)                 3.020000000000000E+02,      /* I = 76 */
(PID.TID 0000.0001)                 3.060000000000000E+02,      /* I = 77 */
(PID.TID 0000.0001)                 3.100000000000000E+02,      /* I = 78 */
(PID.TID 0000.0001)                 3.140000000000000E+02,      /* I = 79 */
(PID.TID 0000.0001)                 3.180000000000000E+02,      /* I = 80 */
(PID.TID 0000.0001)                 3.220000000000000E+02,      /* I = 81 */
(PID.TID 0000.0001)                 3.260000000000000E+02,      /* I = 82 */
(PID.TID 0000.0001)                 3.300000000000000E+02,      /* I = 83 */
(PID.TID 0000.0001)                 3.340000000000000E+02,      /* I = 84 */
(PID.TID 0000.0001)                 3.380000000000000E+02,      /* I = 85 */
(PID.TID 0000.0001)                 3.420000000000000E+02,      /* I = 86 */
(PID.TID 0000.0001)                 3.460000000000000E+02,      /* I = 87 */
(PID.TID 0000.0001)                 3.500000000000000E+02,      /* I = 88 */
(PID.TID 0000.0001)                 3.540000000000000E+02,      /* I = 89 */
(PID.TID 0000.0001)                 3.580000000000000E+02       /* I = 90 */
(PID.TID 0000.0001)     ;
(PID.TID 0000.0001) ycoord =   /* P-point Y coord ( m - cartesian, degrees - spherical ) */
(PID.TID 0000.0001)                -7.600000000000000E+01,      /* J =  1 */
(PID.TID 0000.0001)                -7.200000000000000E+01,      /* J =  2 */
(PID.TID 0000.0001)                -6.800000000000000E+01,      /* J =  3 */
(PID.TID 0000.0001)                -6.400000000000000E+01,      /* J =  4 */
(PID.TID 0000.0001)                -6.000000000000000E+01,      /* J =  5 */
(PID.TID 0000.0001)                -5.600000000000000E+01,      /* J =  6 */
(PID.TID 0000.0001)                -5.200000000000000E+01,      /* J =  7 */
(PID.TID 0000.0001)                -4.800000000000000E+01,      /* J =  8 */
(PID.TID 0000.0001)                -4.400000000000000E+01,      /* J =  9 */
(PID.TID 0000.0001)                -4.000000000000000E+01,      /* J = 10 */
(PID.TID 0000.0001)                -3.600000000000000E+01,      /* J = 11 */
(PID.TID 0000.0001)                -3.200000000000000E+01,      /* J = 12 */
(PID.TID 0000.0001)                -2.800000000000000E+01,      /* J = 13 */
(PID.TID 0000.0001)                -2.400000000000000E+01,      /* J = 14 */
(PID.TID 0000.0001)                -2.000000000000000E+01,      /* J = 15 */
(PID.TID 0000.0001)                -1.600000000000000E+01,      /* J = 16 */
(PID.TID 0000.0001)                -1.200000000000000E+01,      /* J = 17 */
(PID.TID 0000.0001)                -8.000000000000000E+00,      /* J = 18 */
(PID.TID 0000.0001)                -4.000000000000000E+00,      /* J = 19 */
(PID.TID 0000.0001)                 0.000000000000000E+00,      /* J = 20 */
(PID.TID 0000.0001)                 4.000000000000000E+00,      /* J = 21 */
(PID.TID 0000.0001)                 8.000000000000000E+00,      /* J = 22 */
(PID.TID 0000.0001)                 1.200000000000000E+01,      /* J = 23 */
(PID.TID 0000.0001)                 1.600000000000000E+01,      /* J = 24 */
(PID.TID 0000.0001)                 2.000000000000000E+01,      /* J = 25 */
(PID.TID 0000.0001)                 2.400000000000000E+01,      /* J = 26 */
(PID.TID 0000.0001)                 2.800000000000000E+01,      /* J = 27 */
(PID.TID 0000.0001)                 3.200000000000000E+01,      /* J = 28 */
(PID.TID 0000.0001)                 3.600000000000000E+01,      /* J = 29 */
(PID.TID 0000.0001)                 4.000000000000000E+01,      /* J = 30 */
(PID.TID 0000.0001)                 4.400000000000000E+01,      /* J = 31 */
(PID.TID 0000.0001)                 4.800000000000000E+01,      /* J = 32 */
(PID.TID 0000.0001)                 5.200000000000000E+01,      /* J = 33 */
(PID.TID 0000.0001)                 5.600000000000000E+01,      /* J = 34 */
(PID.TID 0000.0001)                 6.000000000000000E+01,      /* J = 35 */
(PID.TID 0000.0001)                 6.400000000000000E+01,      /* J = 36 */
(PID.TID 0000.0001)                 6.800000000000000E+01,      /* J = 37 */
(PID.TID 0000.0001)                 7.200000000000000E+01,      /* J = 38 */
(PID.TID 0000.0001)                 7.600000000000000E+01,      /* J = 39 */
(PID.TID 0000.0001)                 8.000000000000000E+01       /* J = 40 */
(PID.TID 0000.0001)     ;
(PID.TID 0000.0001) rcoord =   /* P-point R coordinate (  units of r ) */
(PID.TID 0000.0001)                -2.500000000000000E+01,      /* K =  1 */
(PID.TID 0000.0001)                -8.500000000000000E+01,      /* K =  2 */
(PID.TID 0000.0001)                -1.700000000000000E+02,      /* K =  3 */
(PID.TID 0000.0001)                -2.900000000000000E+02,      /* K =  4 */
(PID.TID 0000.0001)                -4.550000000000000E+02,      /* K =  5 */
(PID.TID 0000.0001)                -6.700000000000000E+02,      /* K =  6 */
(PID.TID 0000.0001)                -9.350000000000000E+02,      /* K =  7 */
(PID.TID 0000.0001)                -1.250000000000000E+03,      /* K =  8 */
(PID.TID 0000.0001)                -1.615000000000000E+03,      /* K =  9 */
(PID.TID 0000.0001)                -2.030000000000000E+03,      /* K = 10 */
(PID.TID 0000.0001)                -2.495000000000000E+03,      /* K = 11 */
(PID.TID 0000.0001)                -3.010000000000000E+03,      /* K = 12 */
(PID.TID 0000.0001)                -3.575000000000000E+03,      /* K = 13 */
(PID.TID 0000.0001)                -4.190000000000000E+03,      /* K = 14 */
(PID.TID 0000.0001)                -4.855000000000000E+03       /* K = 15 */
(PID.TID 0000.0001)     ;
(PID.TID 0000.0001) dxF =  /* dxF(:,1,:,1) ( m - cartesian, degrees - spherical ) */
(PID.TID 0000.0001)    90 @  1.075850604052271E+05              /* I =  1: 90 */
(PID.TID 0000.0001)     ;
(PID.TID 0000.0001) dxF =  /* dxF(1,:,1,:) ( m - cartesian, degrees - spherical ) */
(PID.TID 0000.0001)                 1.075850604052271E+05,      /* J =  1 */
(PID.TID 0000.0001)                 1.374229146297914E+05,      /* J =  2 */
(PID.TID 0000.0001)                 1.665912582279823E+05,      /* J =  3 */
(PID.TID 0000.0001)                 1.949479859617814E+05,      /* J =  4 */
(PID.TID 0000.0001)                 2.223549467040776E+05,      /* J =  5 */
(PID.TID 0000.0001)                 2.486786164970726E+05,      /* J =  6 */
(PID.TID 0000.0001)                 2.737907490675810E+05,      /* J =  7 */
(PID.TID 0000.0001)                 2.975690006299820E+05,      /* J =  8 */
(PID.TID 0000.0001)                 3.198975259328452E+05,      /* J =  9 */
(PID.TID 0000.0001)                 3.406675426453503E+05,      /* J = 10 */
(PID.TID 0000.0001)                 3.597778613338689E+05,      /* J = 11 */
(PID.TID 0000.0001)                 3.771353784467131E+05,      /* J = 12 */
(PID.TID 0000.0001)                 3.926555299052806E+05,      /* J = 13 */
(PID.TID 0000.0001)                 4.062627030917454E+05,      /* J = 14 */
(PID.TID 0000.0001)                 4.178906052261313E+05,      /* J = 15 */
(PID.TID 0000.0001)                 4.274825863380723E+05,      /* J = 16 */
(PID.TID 0000.0001)                 4.349919152597734E+05,      /* J = 17 */
(PID.TID 0000.0001)                 4.403820072955634E+05,      /* J = 18 */
(PID.TID 0000.0001)                 4.436266024588540E+05,      /* J = 19 */
(PID.TID 0000.0001)                 4.447098934081552E+05,      /* J = 20 */
(PID.TID 0000.0001)                 4.436266024588540E+05,      /* J = 21 */
(PID.TID 0000.0001)                 4.403820072955634E+05,      /* J = 22 */
(PID.TID 0000.0001)                 4.349919152597734E+05,      /* J = 23 */
(PID.TID 0000.0001)                 4.274825863380723E+05,      /* J = 24 */
(PID.TID 0000.0001)                 4.178906052261313E+05,      /* J = 25 */
(PID.TID 0000.0001)                 4.062627030917454E+05,      /* J = 26 */
(PID.TID 0000.0001)                 3.926555299052806E+05,      /* J = 27 */
(PID.TID 0000.0001)                 3.771353784467131E+05,      /* J = 28 */
(PID.TID 0000.0001)                 3.597778613338689E+05,      /* J = 29 */
(PID.TID 0000.0001)                 3.406675426453503E+05,      /* J = 30 */
(PID.TID 0000.0001)                 3.198975259328452E+05,      /* J = 31 */
(PID.TID 0000.0001)                 2.975690006299820E+05,      /* J = 32 */
(PID.TID 0000.0001)                 2.737907490675810E+05,      /* J = 33 */
(PID.TID 0000.0001)                 2.486786164970726E+05,      /* J = 34 */
(PID.TID 0000.0001)                 2.223549467040776E+05,      /* J = 35 */
(PID.TID 0000.0001)                 1.949479859617814E+05,      /* J = 36 */
(PID.TID 0000.0001)                 1.665912582279823E+05,      /* J = 37 */
(PID.TID 0000.0001)                 1.374229146297914E+05,      /* J = 38 */
(PID.TID 0000.0001)                 1.075850604052271E+05,      /* J = 39 */
(PID.TID 0000.0001)                 7.722306258078101E+04       /* J = 40 */
(PID.TID 0000.0001)     ;
(PID.TID 0000.0001) dyF =  /* dyF(:,1,:,1) ( m - cartesian, degrees - spherical ) */
(PID.TID 0000.0001)    90 @  4.447098934081552E+05              /* I =  1: 90 */
(PID.TID 0000.0001)     ;
(PID.TID 0000.0001) dyF =  /* dyF(1,:,1,:) ( m - cartesian, degrees - spherical ) */
(PID.TID 0000.0001)    40 @  4.447098934081552E+05              /* J =  1: 40 */
(PID.TID 0000.0001)     ;
(PID.TID 0000.0001) dxG =  /* dxG(:,1,:,1) ( m - cartesian, degrees - spherical ) */
(PID.TID 0000.0001)    90 @  9.246038586187513E+04              /* I =  1: 90 */
(PID.TID 0000.0001)     ;
(PID.TID 0000.0001) dxG =  /* dxG(1,:,1,:) ( m - cartesian, degrees - spherical ) */
(PID.TID 0000.0001)                 9.246038586187513E+04,      /* J =  1 */
(PID.TID 0000.0001)                 1.225786591246834E+05,      /* J =  2 */
(PID.TID 0000.0001)                 1.520997414818001E+05,      /* J =  3 */
(PID.TID 0000.0001)                 1.808798091874300E+05,      /* J =  4 */
(PID.TID 0000.0001)                 2.087786486446736E+05,      /* J =  5 */
(PID.TID 0000.0001)                 2.356603395120766E+05,      /* J =  6 */
(PID.TID 0000.0001)                 2.613939168938713E+05,      /* J =  7 */
(PID.TID 0000.0001)                 2.858540093877838E+05,      /* J =  8 */
(PID.TID 0000.0001)                 3.089214498819035E+05,      /* J =  9 */
(PID.TID 0000.0001)                 3.304838561248741E+05,      /* J = 10 */
(PID.TID 0000.0001)                 3.504361782409254E+05,      /* J = 11 */
(PID.TID 0000.0001)                 3.686812105223083E+05,      /* J = 12 */
(PID.TID 0000.0001)                 3.851300650057322E+05,      /* J = 13 */
(PID.TID 0000.0001)                 3.997026045255871E+05,      /* J = 14 */
(PID.TID 0000.0001)                 4.123278331341585E+05,      /* J = 15 */
(PID.TID 0000.0001)                 4.229442419867491E+05,      /* J = 16 */
(PID.TID 0000.0001)                 4.315001090065869E+05,      /* J = 17 */
(PID.TID 0000.0001)                 4.379537508695839E+05,      /* J = 18 */
(PID.TID 0000.0001)                 4.422737260813013E+05,      /* J = 19 */
(PID.TID 0000.0001)     2 @  4.444389881567501E+05,             /* J = 20: 21 */
(PID.TID 0000.0001)                 4.422737260813013E+05,      /* J = 22 */
(PID.TID 0000.0001)                 4.379537508695839E+05,      /* J = 23 */
(PID.TID 0000.0001)                 4.315001090065869E+05,      /* J = 24 */
(PID.TID 0000.0001)                 4.229442419867491E+05,      /* J = 25 */
(PID.TID 0000.0001)                 4.123278331341585E+05,      /* J = 26 */
(PID.TID 0000.0001)                 3.997026045255871E+05,      /* J = 27 */
(PID.TID 0000.0001)                 3.851300650057322E+05,      /* J = 28 */
(PID.TID 0000.0001)                 3.686812105223083E+05,      /* J = 29 */
(PID.TID 0000.0001)                 3.504361782409254E+05,      /* J = 30 */
(PID.TID 0000.0001)                 3.304838561248741E+05,      /* J = 31 */
(PID.TID 0000.0001)                 3.089214498819035E+05,      /* J = 32 */
(PID.TID 0000.0001)                 2.858540093877838E+05,      /* J = 33 */
(PID.TID 0000.0001)                 2.613939168938713E+05,      /* J = 34 */
(PID.TID 0000.0001)                 2.356603395120766E+05,      /* J = 35 */
(PID.TID 0000.0001)                 2.087786486446736E+05,      /* J = 36 */
(PID.TID 0000.0001)                 1.808798091874300E+05,      /* J = 37 */
(PID.TID 0000.0001)                 1.520997414818001E+05,      /* J = 38 */
(PID.TID 0000.0001)                 1.225786591246834E+05,      /* J = 39 */
(PID.TID 0000.0001)                 9.246038586187513E+04       /* J = 40 */
(PID.TID 0000.0001)     ;
(PID.TID 0000.0001) dyG =  /* dyG(:,1,:,1) ( m - cartesian, degrees - spherical ) */
(PID.TID 0000.0001)    90 @  4.447098934081552E+05              /* I =  1: 90 */
(PID.TID 0000.0001)     ;
(PID.TID 0000.0001) dyG =  /* dyG(1,:,1,:) ( m - cartesian, degrees - spherical ) */
(PID.TID 0000.0001)    40 @  4.447098934081552E+05              /* J =  1: 40 */
(PID.TID 0000.0001)     ;
(PID.TID 0000.0001) dxC =  /* dxC(:,1,:,1) ( m - cartesian, degrees - spherical ) */
(PID.TID 0000.0001)    90 @  1.075850604052271E+05              /* I =  1: 90 */
(PID.TID 0000.0001)     ;
(PID.TID 0000.0001) dxC =  /* dxC(1,:,1,:) ( m - cartesian, degrees - spherical ) */
(PID.TID 0000.0001)                 1.075850604052271E+05,      /* J =  1 */
(PID.TID 0000.0001)                 1.374229146297914E+05,      /* J =  2 */
(PID.TID 0000.0001)                 1.665912582279823E+05,      /* J =  3 */
(PID.TID 0000.0001)                 1.949479859617814E+05,      /* J =  4 */
(PID.TID 0000.0001)                 2.223549467040776E+05,      /* J =  5 */
(PID.TID 0000.0001)                 2.486786164970726E+05,      /* J =  6 */
(PID.TID 0000.0001)                 2.737907490675810E+05,      /* J =  7 */
(PID.TID 0000.0001)                 2.975690006299820E+05,      /* J =  8 */
(PID.TID 0000.0001)                 3.198975259328452E+05,      /* J =  9 */
(PID.TID 0000.0001)                 3.406675426453503E+05,      /* J = 10 */
(PID.TID 0000.0001)                 3.597778613338689E+05,      /* J = 11 */
(PID.TID 0000.0001)                 3.771353784467131E+05,      /* J = 12 */
(PID.TID 0000.0001)                 3.926555299052806E+05,      /* J = 13 */
(PID.TID 0000.0001)                 4.062627030917454E+05,      /* J = 14 */
(PID.TID 0000.0001)                 4.178906052261313E+05,      /* J = 15 */
(PID.TID 0000.0001)                 4.274825863380723E+05,      /* J = 16 */
(PID.TID 0000.0001)                 4.349919152597734E+05,      /* J = 17 */
(PID.TID 0000.0001)                 4.403820072955634E+05,      /* J = 18 */
(PID.TID 0000.0001)                 4.436266024588540E+05,      /* J = 19 */
(PID.TID 0000.0001)                 4.447098934081552E+05,      /* J = 20 */
(PID.TID 0000.0001)                 4.436266024588540E+05,      /* J = 21 */
(PID.TID 0000.0001)                 4.403820072955634E+05,      /* J = 22 */
(PID.TID 0000.0001)                 4.349919152597734E+05,      /* J = 23 */
(PID.TID 0000.0001)                 4.274825863380723E+05,      /* J = 24 */
(PID.TID 0000.0001)                 4.178906052261313E+05,      /* J = 25 */
(PID.TID 0000.0001)                 4.062627030917454E+05,      /* J = 26 */
(PID.TID 0000.0001)                 3.926555299052806E+05,      /* J = 27 */
(PID.TID 0000.0001)                 3.771353784467131E+05,      /* J = 28 */
(PID.TID 0000.0001)                 3.597778613338689E+05,      /* J = 29 */
(PID.TID 0000.0001)                 3.406675426453503E+05,      /* J = 30 */
(PID.TID 0000.0001)                 3.198975259328452E+05,      /* J = 31 */
(PID.TID 0000.0001)                 2.975690006299820E+05,      /* J = 32 */
(PID.TID 0000.0001)                 2.737907490675810E+05,      /* J = 33 */
(PID.TID 0000.0001)                 2.486786164970726E+05,      /* J = 34 */
(PID.TID 0000.0001)                 2.223549467040776E+05,      /* J = 35 */
(PID.TID 0000.0001)                 1.949479859617814E+05,      /* J = 36 */
(PID.TID 0000.0001)                 1.665912582279823E+05,      /* J = 37 */
(PID.TID 0000.0001)                 1.374229146297914E+05,      /* J = 38 */
(PID.TID 0000.0001)                 1.075850604052271E+05,      /* J = 39 */
(PID.TID 0000.0001)                 7.722306258078101E+04       /* J = 40 */
(PID.TID 0000.0001)     ;
(PID.TID 0000.0001) dyC =  /* dyC(:,1,:,1) ( m - cartesian, degrees - spherical ) */
(PID.TID 0000.0001)    90 @  4.447098934081552E+05              /* I =  1: 90 */
(PID.TID 0000.0001)     ;
(PID.TID 0000.0001) dyC =  /* dyC(1,:,1,:) ( m - cartesian, degrees - spherical ) */
(PID.TID 0000.0001)    40 @  4.447098934081552E+05              /* J =  1: 40 */
(PID.TID 0000.0001)     ;
(PID.TID 0000.0001) dxV =  /* dxV(:,1,:,1) ( m - cartesian, degrees - spherical ) */
(PID.TID 0000.0001)    90 @  9.246038586187513E+04              /* I =  1: 90 */
(PID.TID 0000.0001)     ;
(PID.TID 0000.0001) dxV =  /* dxV(1,:,1,:) ( m - cartesian, degrees - spherical ) */
(PID.TID 0000.0001)                 9.246038586187513E+04,      /* J =  1 */
(PID.TID 0000.0001)                 1.225786591246834E+05,      /* J =  2 */
(PID.TID 0000.0001)                 1.520997414818001E+05,      /* J =  3 */
(PID.TID 0000.0001)                 1.808798091874300E+05,      /* J =  4 */
(PID.TID 0000.0001)                 2.087786486446736E+05,      /* J =  5 */
(PID.TID 0000.0001)                 2.356603395120766E+05,      /* J =  6 */
(PID.TID 0000.0001)                 2.613939168938713E+05,      /* J =  7 */
(PID.TID 0000.0001)                 2.858540093877838E+05,      /* J =  8 */
(PID.TID 0000.0001)                 3.089214498819035E+05,      /* J =  9 */
(PID.TID 0000.0001)                 3.304838561248741E+05,      /* J = 10 */
(PID.TID 0000.0001)                 3.504361782409254E+05,      /* J = 11 */
(PID.TID 0000.0001)                 3.686812105223083E+05,      /* J = 12 */
(PID.TID 0000.0001)                 3.851300650057322E+05,      /* J = 13 */
(PID.TID 0000.0001)                 3.997026045255871E+05,      /* J = 14 */
(PID.TID 0000.0001)                 4.123278331341585E+05,      /* J = 15 */
(PID.TID 0000.0001)                 4.229442419867491E+05,      /* J = 16 */
(PID.TID 0000.0001)                 4.315001090065869E+05,      /* J = 17 */
(PID.TID 0000.0001)                 4.379537508695839E+05,      /* J = 18 */
(PID.TID 0000.0001)                 4.422737260813013E+05,      /* J = 19 */
(PID.TID 0000.0001)     2 @  4.444389881567501E+05,             /* J = 20: 21 */
(PID.TID 0000.0001)                 4.422737260813013E+05,      /* J = 22 */
(PID.TID 0000.0001)                 4.379537508695839E+05,      /* J = 23 */
(PID.TID 0000.0001)                 4.315001090065869E+05,      /* J = 24 */
(PID.TID 0000.0001)                 4.229442419867491E+05,      /* J = 25 */
(PID.TID 0000.0001)                 4.123278331341585E+05,      /* J = 26 */
(PID.TID 0000.0001)                 3.997026045255871E+05,      /* J = 27 */
(PID.TID 0000.0001)                 3.851300650057322E+05,      /* J = 28 */
(PID.TID 0000.0001)                 3.686812105223083E+05,      /* J = 29 */
(PID.TID 0000.0001)                 3.504361782409254E+05,      /* J = 30 */
(PID.TID 0000.0001)                 3.304838561248741E+05,      /* J = 31 */
(PID.TID 0000.0001)                 3.089214498819035E+05,      /* J = 32 */
(PID.TID 0000.0001)                 2.858540093877838E+05,      /* J = 33 */
(PID.TID 0000.0001)                 2.613939168938713E+05,      /* J = 34 */
(PID.TID 0000.0001)                 2.356603395120766E+05,      /* J = 35 */
(PID.TID 0000.0001)                 2.087786486446736E+05,      /* J = 36 */
(PID.TID 0000.0001)                 1.808798091874300E+05,      /* J = 37 */
(PID.TID 0000.0001)                 1.520997414818001E+05,      /* J = 38 */
(PID.TID 0000.0001)                 1.225786591246834E+05,      /* J = 39 */
(PID.TID 0000.0001)                 9.246038586187513E+04       /* J = 40 */
(PID.TID 0000.0001)     ;
(PID.TID 0000.0001) dyU =  /* dyU(:,1,:,1) ( m - cartesian, degrees - spherical ) */
(PID.TID 0000.0001)    90 @  4.447098934081552E+05              /* I =  1: 90 */
(PID.TID 0000.0001)     ;
(PID.TID 0000.0001) dyU =  /* dyU(1,:,1,:) ( m - cartesian, degrees - spherical ) */
(PID.TID 0000.0001)    40 @  4.447098934081552E+05              /* J =  1: 40 */
(PID.TID 0000.0001)     ;
(PID.TID 0000.0001) rA =  /* rA(:,1,:,1) ( m - cartesian, degrees - spherical ) */
(PID.TID 0000.0001)    90 @  4.783442523123644E+10              /* I =  1: 90 */
(PID.TID 0000.0001)     ;
(PID.TID 0000.0001) rA =  /* rA(1,:,1,:) ( m - cartesian, degrees - spherical ) */
(PID.TID 0000.0001)                 4.783442523123644E+10,      /* J =  1 */
(PID.TID 0000.0001)                 6.110091968306396E+10,      /* J =  2 */
(PID.TID 0000.0001)                 7.406973659603816E+10,      /* J =  3 */
(PID.TID 0000.0001)                 8.667769319778082E+10,      /* J =  4 */
(PID.TID 0000.0001)                 9.886336479107460E+10,      /* J =  5 */
(PID.TID 0000.0001)                 1.105673840088176E+11,      /* J =  6 */
(PID.TID 0000.0001)                 1.217327300458637E+11,      /* J =  7 */
(PID.TID 0000.0001)                 1.323050064586577E+11,      /* J =  8 */
(PID.TID 0000.0001)                 1.422327061792379E+11,      /* J =  9 */
(PID.TID 0000.0001)                 1.514674624524945E+11,      /* J = 10 */
(PID.TID 0000.0001)                 1.599642844741386E+11,      /* J = 11 */
(PID.TID 0000.0001)                 1.676817765813786E+11,      /* J = 12 */
(PID.TID 0000.0001)                 1.745823399284268E+11,      /* J = 13 */
(PID.TID 0000.0001)                 1.806323556642997E+11,      /* J = 14 */
(PID.TID 0000.0001)                 1.858023487204767E+11,      /* J = 15 */
(PID.TID 0000.0001)                 1.900671314104744E+11,      /* J = 16 */
(PID.TID 0000.0001)                 1.934059261417216E+11,      /* J = 17 */
(PID.TID 0000.0001)                 1.958024666419019E+11,      /* J = 18 */
(PID.TID 0000.0001)                 1.972450772065981E+11,      /* J = 19 */
(PID.TID 0000.0001)                 1.977267295821496E+11,      /* J = 20 */
(PID.TID 0000.0001)                 1.972450772065981E+11,      /* J = 21 */
(PID.TID 0000.0001)                 1.958024666419019E+11,      /* J = 22 */
(PID.TID 0000.0001)                 1.934059261417216E+11,      /* J = 23 */
(PID.TID 0000.0001)                 1.900671314104744E+11,      /* J = 24 */
(PID.TID 0000.0001)                 1.858023487204767E+11,      /* J = 25 */
(PID.TID 0000.0001)                 1.806323556642997E+11,      /* J = 26 */
(PID.TID 0000.0001)                 1.745823399284268E+11,      /* J = 27 */
(PID.TID 0000.0001)                 1.676817765813786E+11,      /* J = 28 */
(PID.TID 0000.0001)                 1.599642844741386E+11,      /* J = 29 */
(PID.TID 0000.0001)                 1.514674624524945E+11,      /* J = 30 */
(PID.TID 0000.0001)                 1.422327061792379E+11,      /* J = 31 */
(PID.TID 0000.0001)                 1.323050064586577E+11,      /* J = 32 */
(PID.TID 0000.0001)                 1.217327300458637E+11,      /* J = 33 */
(PID.TID 0000.0001)                 1.105673840088176E+11,      /* J = 34 */
(PID.TID 0000.0001)                 9.886336479107460E+10,      /* J = 35 */
(PID.TID 0000.0001)                 8.667769319778082E+10,      /* J = 36 */
(PID.TID 0000.0001)                 7.406973659603816E+10,      /* J = 37 */
(PID.TID 0000.0001)                 6.110091968306396E+10,      /* J = 38 */
(PID.TID 0000.0001)                 4.783442523123644E+10,      /* J = 39 */
(PID.TID 0000.0001)                 3.433488626798226E+10       /* J = 40 */
(PID.TID 0000.0001)     ;
(PID.TID 0000.0001) rAw =  /* rAw(:,1,:,1) ( m - cartesian, degrees - spherical ) */
(PID.TID 0000.0001)    90 @  4.783442523123644E+10              /* I =  1: 90 */
(PID.TID 0000.0001)     ;
(PID.TID 0000.0001) rAw =  /* rAw(1,:,1,:) ( m - cartesian, degrees - spherical ) */
(PID.TID 0000.0001)                 4.783442523123644E+10,      /* J =  1 */
(PID.TID 0000.0001)                 6.110091968306396E+10,      /* J =  2 */
(PID.TID 0000.0001)                 7.406973659603816E+10,      /* J =  3 */
(PID.TID 0000.0001)                 8.667769319778082E+10,      /* J =  4 */
(PID.TID 0000.0001)                 9.886336479107460E+10,      /* J =  5 */
(PID.TID 0000.0001)                 1.105673840088176E+11,      /* J =  6 */
(PID.TID 0000.0001)                 1.217327300458637E+11,      /* J =  7 */
(PID.TID 0000.0001)                 1.323050064586577E+11,      /* J =  8 */
(PID.TID 0000.0001)                 1.422327061792379E+11,      /* J =  9 */
(PID.TID 0000.0001)                 1.514674624524945E+11,      /* J = 10 */
(PID.TID 0000.0001)                 1.599642844741386E+11,      /* J = 11 */
(PID.TID 0000.0001)                 1.676817765813786E+11,      /* J = 12 */
(PID.TID 0000.0001)                 1.745823399284268E+11,      /* J = 13 */
(PID.TID 0000.0001)                 1.806323556642997E+11,      /* J = 14 */
(PID.TID 0000.0001)                 1.858023487204767E+11,      /* J = 15 */
(PID.TID 0000.0001)                 1.900671314104744E+11,      /* J = 16 */
(PID.TID 0000.0001)                 1.934059261417216E+11,      /* J = 17 */
(PID.TID 0000.0001)                 1.958024666419019E+11,      /* J = 18 */
(PID.TID 0000.0001)                 1.972450772065981E+11,      /* J = 19 */
(PID.TID 0000.0001)                 1.977267295821496E+11,      /* J = 20 */
(PID.TID 0000.0001)                 1.972450772065981E+11,      /* J = 21 */
(PID.TID 0000.0001)                 1.958024666419019E+11,      /* J = 22 */
(PID.TID 0000.0001)                 1.934059261417216E+11,      /* J = 23 */
(PID.TID 0000.0001)                 1.900671314104744E+11,      /* J = 24 */
(PID.TID 0000.0001)                 1.858023487204767E+11,      /* J = 25 */
(PID.TID 0000.0001)                 1.806323556642997E+11,      /* J = 26 */
(PID.TID 0000.0001)                 1.745823399284268E+11,      /* J = 27 */
(PID.TID 0000.0001)                 1.676817765813786E+11,      /* J = 28 */
(PID.TID 0000.0001)                 1.599642844741386E+11,      /* J = 29 */
(PID.TID 0000.0001)                 1.514674624524945E+11,      /* J = 30 */
(PID.TID 0000.0001)                 1.422327061792379E+11,      /* J = 31 */
(PID.TID 0000.0001)                 1.323050064586577E+11,      /* J = 32 */
(PID.TID 0000.0001)                 1.217327300458637E+11,      /* J = 33 */
(PID.TID 0000.0001)                 1.105673840088176E+11,      /* J = 34 */
(PID.TID 0000.0001)                 9.886336479107460E+10,      /* J = 35 */
(PID.TID 0000.0001)                 8.667769319778082E+10,      /* J = 36 */
(PID.TID 0000.0001)                 7.406973659603816E+10,      /* J = 37 */
(PID.TID 0000.0001)                 6.110091968306396E+10,      /* J = 38 */
(PID.TID 0000.0001)                 4.783442523123644E+10,      /* J = 39 */
(PID.TID 0000.0001)                 3.433488626798226E+10       /* J = 40 */
(PID.TID 0000.0001)     ;
(PID.TID 0000.0001) rAs =  /* rAs(:,1,:,1) ( m - cartesian, degrees - spherical ) */
(PID.TID 0000.0001)    90 @  4.110969866729052E+10              /* I =  1: 90 */
(PID.TID 0000.0001)     ;
(PID.TID 0000.0001) rAs =  /* rAs(1,:,1,:) ( m - cartesian, degrees - spherical ) */
(PID.TID 0000.0001)                 4.110969866729052E+10,      /* J =  1 */
(PID.TID 0000.0001)                 5.450087291636662E+10,      /* J =  2 */
(PID.TID 0000.0001)                 6.762652439100241E+10,      /* J =  3 */
(PID.TID 0000.0001)                 8.042270623660014E+10,      /* J =  4 */
(PID.TID 0000.0001)                 9.282707674147511E+10,      /* J =  5 */
(PID.TID 0000.0001)                 1.047792030594104E+11,      /* J =  6 */
(PID.TID 0000.0001)                 1.162208556324094E+11,      /* J =  7 */
(PID.TID 0000.0001)                 1.270962918792466E+11,      /* J =  8 */
(PID.TID 0000.0001)                 1.373525277677230E+11,      /* J =  9 */
(PID.TID 0000.0001)                 1.469395959475424E+11,      /* J = 10 */
(PID.TID 0000.0001)                 1.558107891862222E+11,      /* J = 11 */
(PID.TID 0000.0001)                 1.639228879220324E+11,      /* J = 12 */
(PID.TID 0000.0001)                 1.712363708253575E+11,      /* J = 13 */
(PID.TID 0000.0001)                 1.777156073426414E+11,      /* J = 14 */
(PID.TID 0000.0001)                 1.833290312848624E+11,      /* J = 15 */
(PID.TID 0000.0001)                 1.880492946148330E+11,      /* J = 16 */
(PID.TID 0000.0001)                 1.918534006840893E+11,      /* J = 17 */
(PID.TID 0000.0001)                 1.947228162702492E+11,      /* J = 18 */
(PID.TID 0000.0001)                 1.966435618690094E+11,      /* J = 19 */
(PID.TID 0000.0001)     2 @  1.976062798008856E+11,             /* J = 20: 21 */
(PID.TID 0000.0001)                 1.966435618690094E+11,      /* J = 22 */
(PID.TID 0000.0001)                 1.947228162702492E+11,      /* J = 23 */
(PID.TID 0000.0001)                 1.918534006840893E+11,      /* J = 24 */
(PID.TID 0000.0001)                 1.880492946148330E+11,      /* J = 25 */
(PID.TID 0000.0001)                 1.833290312848624E+11,      /* J = 26 */
(PID.TID 0000.0001)                 1.777156073426414E+11,      /* J = 27 */
(PID.TID 0000.0001)                 1.712363708253575E+11,      /* J = 28 */
(PID.TID 0000.0001)                 1.639228879220324E+11,      /* J = 29 */
(PID.TID 0000.0001)                 1.558107891862222E+11,      /* J = 30 */
(PID.TID 0000.0001)                 1.469395959475424E+11,      /* J = 31 */
(PID.TID 0000.0001)                 1.373525277677230E+11,      /* J = 32 */
(PID.TID 0000.0001)                 1.270962918792466E+11,      /* J = 33 */
(PID.TID 0000.0001)                 1.162208556324094E+11,      /* J = 34 */
(PID.TID 0000.0001)                 1.047792030594104E+11,      /* J = 35 */
(PID.TID 0000.0001)                 9.282707674147511E+10,      /* J = 36 */
(PID.TID 0000.0001)                 8.042270623660014E+10,      /* J = 37 */
(PID.TID 0000.0001)                 6.762652439100241E+10,      /* J = 38 */
(PID.TID 0000.0001)                 5.450087291636662E+10,      /* J = 39 */
(PID.TID 0000.0001)                 4.110969866729052E+10       /* J = 40 */
(PID.TID 0000.0001)     ;
(PID.TID 0000.0001) 
(PID.TID 0000.0001)  MDSREADFIELD: opening global file: theta.bin
(PID.TID 0000.0001) // =======================================================
(PID.TID 0000.0001) // Field Initial Temperature at iteration          1
(PID.TID 0000.0001) // CMIN =         -2.511639595031738E+00
(PID.TID 0000.0001) // CMAX =          2.946808624267578E+01
(PID.TID 0000.0001) // CINT =          1.184434290285464E+00
(PID.TID 0000.0001) // SYMBOLS (CMIN->CMAX): -abcdefghijklmnopqrstuvwxyz+
(PID.TID 0000.0001) //                  0.0: .
(PID.TID 0000.0001) // RANGE I (Lo:Hi:Step):(   1:  90:   1)
(PID.TID 0000.0001) // RANGE J (Lo:Hi:Step):(  40:   1:  -1)
(PID.TID 0000.0001) // RANGE K (Lo:Hi:Step):(   1:   1:   1)
(PID.TID 0000.0001) // =======================================================
(PID.TID 0000.0001) K =   1
(PID.TID 0000.0001)                I=10      I=20      I=30      I=40      I=50      I=60      I=70      I=80      I=90
(PID.TID 0000.0001) |--J--|123456789|123456789|123456789|123456789|123456789|123456789|123456789|123456789|123456789|
(PID.TID 0000.0001)     40 ..........................................................................................
(PID.TID 0000.0001)     39 cdeee................................................................................aaaab
(PID.TID 0000.0001)     38 fgggg...............................................................................abbbde
(PID.TID 0000.0001)     37 hhh........................................................................bb....deee.eeef
(PID.TID 0000.0001)     36 h..........................................bbba-..........................bccd.efghhiiihhh
(PID.TID 0000.0001)     35 hh.................................--aa.bbcddddccd.efgggg..................cdeeffghijjjj..
(PID.TID 0000.0001)     34 ....................................aabbcdeeeeeeeeffffghhh..................befgghijkkkk..
(PID.TID 0000.0001)     33 ....................................abccddeeeeefffffggghiii...............dd.cfjkkkllllkk.
(PID.TID 0000.0001)     32 ....................................bcddeefffgggghhhhiiijjj...............dcbcglnnmmmmml..
(PID.TID 0000.0001)     31 ....................................efhhiiijjjjjjjjkkkllllk.............hhklkjnppooonnm...
(PID.TID 0000.0001)     30 ...................................mmmnmmmmnmmmmmmmmnnnnnnm............loqrrrrrqqqpppooo..
(PID.TID 0000.0001)     29 ...............................qqqqqqqqqqqpppppppppppqqqpponn.........sssssssrrrrrrrqqqq..
(PID.TID 0000.0001)     28 ..............................ppssssssssssssrrrrrssrsssrrqppp......tt.uutttttttsttsssrr...
(PID.TID 0000.0001)     27 ...............................uuttuuuuuuuuuuuuuuuuuuttsssrrqrr...uuvvwvvvvvvvuuuuttts....
(PID.TID 0000.0001)     26 ...............vwv....v.....uuvvvvwwwwxxwwwwwwwwwwvvvuuutttsstuu..v.wwwxxxwwwwwvvuuutr....
(PID.TID 0000.0001)     25 .............wwwxx..xxxx...wvw.xxxyyyyyyyxxxxxxxxwwwvvvvvvvvvwwxx....yyxxxxxxxwwwvvutr....
(PID.TID 0000.0001)     24 ............wwwxxyy.xyyy...wxy.yyyyyyyyyyyyxxxxxxxxwwwwwwwwxxxyyyxwx.yyx.xxxxxxwwwwvus....
(PID.TID 0000.0001)     23 .............xxyyzzyyyyz.zyxyyyyzzzzzzzzyyyyyyyyyyyxxxxxxxxyyyyxxxwww......xyyxxxxxwwvv...
(PID.TID 0000.0001)     22 xx..........xyyyzzzyzzzz..xx..yzzzzzzzzzzzzzzzzzzyyyyyyyxxxxyyxxwxxxyx.......yyyyyyyyyxxxx
(PID.TID 0000.0001)     21 yy.........xxyyyzzzzzzzzz.....zzzzzz++++++zzzzyzyyyyyyxxwwwwwwwvwwwwwv........yyyyyyyyyyyy
(PID.TID 0000.0001)     20 xxx.......yyyyyyyzzzzzzz+.......z...z++++++zzzzzzyyyyyxxxwwwwvvvvvuuu............yyyxxxxxx
(PID.TID 0000.0001)     19 wvv.......zzzyyxxyzzzzzzzzz.zzzzzz...++++++++++++zzzyyyyxxxxxwwwwwwwvt...........yyyxxxwxx
(PID.TID 0000.0001)     18 vut.......zzzyyxxyyzzzzzzzzzz++z....z+++++++++++++++zzzzyyyxxxwwwvvwvuu..........yyyxxvvww
(PID.TID 0000.0001)     17 uut.......z..zyyyyyyzzzyyyzyzz+......zzzzzzzz++zzzzzzzzzzyyyxwwvvuvvuut..........yyxxwuuvv
(PID.TID 0000.0001)     16 uur......yy.yyyyyxxyyyyxxxxxy........zzyyzyyzyzzzyyyzyyyyyyxxwwvvvuuutts........yyyxxwvuuu
(PID.TID 0000.0001)     15 uts......yy.yyxxxwwwwwwwwvww..........yxxxxxxxxxxxxxxxxxxxxxxwvvvvuutsss.......xxxxxxwwvvu
(PID.TID 0000.0001)     14 utsp....xyxxxxwwwwwvuuuuuuuv...........wwwwwwwwwwwwwvvwwwwwwwwvvvuuutssr......uwwwwwwwvvvu
(PID.TID 0000.0001)     13 tttr...vwwwvvuuuuuutuutttttt..........wvvuuuuuuuuuuutuuuuvvwwvuuuttttssq.....vvvvvvuvvuuut
(PID.TID 0000.0001)     12 sssssttuuutssssssssrstsrrrrss.srrr....uuttssssssssrrrrrrrsttttttssssrrrp....tuuttsssssssss
(PID.TID 0000.0001)     11 ppprssssrrrqqqqqppoppqpopppppppppppqrrssrrr.rrqqqqqqppppqqrrppqqqqqqqqp....ppssrqqqqpppppp
(PID.TID 0000.0001)     10 lllnooonmmmmlnnnnnmmmnmlmmllmmnmnnooopqppp.ppppppoooooooooonmnnnoonnnoo...omoponmmnnnmmmll
(PID.TID 0000.0001)      9 ihhihhiihhhhghiihiiiijiiiijjjjkklmmmmnnmmnmlmmnnnnnmmmmmmllkkklmllkllmm...mlmmllkjiijjihhi
(PID.TID 0000.0001)      8 ffeeeeefeeefggffeeefgggffgggghiijijjjjkkkkkjjklllllllkkkkjjiijkkkjjjjjk..kkjjiihggffffeeee
(PID.TID 0000.0001)      7 ccccccddddddeedeedddddddeeffffffggfffghhiiiiijjjiiihhhhhhhhhhhiiiiiiiiiiiiihhgfedddcddcccc
(PID.TID 0000.0001)      6 bbbbccccccccccccdccccdddddddddeeddeedeeefghgggggfeeeddeeffffeefggggghhhhhgfeeddccbbbbbbbbb
(PID.TID 0000.0001)      5 bbcccbbbbcccccccccccccccc.cccccdddccccccddeeeeeedcbbbbcccdddddddeeeeeedddd.cbbbbbbbbbbbbbb
(PID.TID 0000.0001)      4 bbbbbbbb.b..............................bbbbbbbbbbbbbbbbbbbbbbbbbbbbbbbb...baaaaabbbbbbbbb
(PID.TID 0000.0001)      3 ...........................................baaaaabbbbaaaaaaaabbbb..........bbaaaaaabbb....
(PID.TID 0000.0001)      2 ...........................................bbbbaaaa...........................aaaa........
(PID.TID 0000.0001)      1 ..........................................................................................
(PID.TID 0000.0001) // =======================================================
(PID.TID 0000.0001) // END OF FIELD                                          =
(PID.TID 0000.0001) // =======================================================
(PID.TID 0000.0001) 
(PID.TID 0000.0001)  MDSREADFIELD: opening global file: sal.bin
(PID.TID 0000.0001) // =======================================================
(PID.TID 0000.0001) // Field Initial Salinity at iteration          1
(PID.TID 0000.0001) // CMIN =          3.166564941406250E+01
(PID.TID 0000.0001) // CMAX =          3.739540100097656E+01
(PID.TID 0000.0001) // CINT =          2.122130217375579E-01
(PID.TID 0000.0001) // SYMBOLS (CMIN->CMAX): -abcdefghijklmnopqrstuvwxyz+
(PID.TID 0000.0001) //                  0.0: .
(PID.TID 0000.0001) // RANGE I (Lo:Hi:Step):(   1:  90:   1)
(PID.TID 0000.0001) // RANGE J (Lo:Hi:Step):(  40:   1:  -1)
(PID.TID 0000.0001) // RANGE K (Lo:Hi:Step):(   1:   1:   1)
(PID.TID 0000.0001) // =======================================================
(PID.TID 0000.0001) K =   1
(PID.TID 0000.0001)                I=10      I=20      I=30      I=40      I=50      I=60      I=70      I=80      I=90
(PID.TID 0000.0001) |--J--|123456789|123456789|123456789|123456789|123456789|123456789|123456789|123456789|123456789|
(PID.TID 0000.0001)     40 ..........................................................................................
(PID.TID 0000.0001)     39 ppppo................................................................................lmmno
(PID.TID 0000.0001)     38 pponn...............................................................................jlmnop
(PID.TID 0000.0001)     37 ppn........................................................................hh....mnnn.ooop
(PID.TID 0000.0001)     36 o..........................................eddc-..........................hjjk.mopppqqpqqq
(PID.TID 0000.0001)     35 oo.................................ffff.ffggggec-a.ccdddd..................knnnnoopppqrq..
(PID.TID 0000.0001)     34 ....................................ffgffggggggeccdefeedbb..................hloonoppqrrr..
(PID.TID 0000.0001)     33 ....................................cfgfffffffeeeeeeeedddcc...............hh.imopqqrrrrqq.
(PID.TID 0000.0001)     32 ....................................cfgggggggggggffffeeeedc...............a-cflqssssssss..
(PID.TID 0000.0001)     31 ....................................hijjjjjkkkkkjiiihhggfee.............ggjlmmruuttttss...
(PID.TID 0000.0001)     30 ...................................mmmmmmmmnnmmmllkkkjjhgff............mruvwvuuuuuuuuuuu..
(PID.TID 0000.0001)     29 ...............................nnnnoonnnnnnooonnmmnnnmmljhghi.........tuwwwwwwwvvvvwwwww..
(PID.TID 0000.0001)     28 ..............................llooooonnooopppppppppppppomkiii......rt.vwwwxxxxxyxxyyyxw...
(PID.TID 0000.0001)     27 ...............................ooooopooppqqqqqqqrqqqqqqqonlkkln...vvvvvwwwxxyy+++zzzyx....
(PID.TID 0000.0001)     26 ...............wwv....r.....nmnoooopppppppqqqqrqqqppooooonnmmmnp..v.vvvvvvvwxy++++zyxv....
(PID.TID 0000.0001)     25 .............vvvwu..jgef...klk.nnoooopppooopopppponnmlmmmmmmmlmlm....tsssstuvxyyxxwuut....
(PID.TID 0000.0001)     24 ............tttvvso.fgff...jii.mmnnnooononnnnnonmnmllllkkkkkjiiijkkn.sss.tssrtuuuttssr....
(PID.TID 0000.0001)     23 .............tstroljgihf.aeihikllllmmmmmmlmmmmmllmlllllmmllkjijjjkklm......ssstuuttsrrr...
(PID.TID 0000.0001)     22 tt..........tsrrqnnmmllj..ii..klmmmnonnmmmnnnnnnnnnnnnnoommmlkkkkkkjfe.......uuutttsrqqqqq
(PID.TID 0000.0001)     21 ok.........rrqqpppppponll.....klnnnnnnnnnnooooppqpppppoooooomnmmmlkigg........utttttsrqqpo
(PID.TID 0000.0001)     20 poo.......qrrqpppqpopomkh.......n...mmnooooppqrqqrqqqqppqpppopoonnnon............uuuttssrr
(PID.TID 0000.0001)     19 ssq.......qqqpppoomlmmlkiji.gfjmmm...lnonnpppqrrrsssrrqqrqqpppppoopoon...........vvvuttuut
(PID.TID 0000.0001)     18 vus.......qppoooonllllllllllkkno....nnnnnnoooqrrrsssrssstssrrrrrqrsrqpq..........xxwvvvvvv
(PID.TID 0000.0001)     17 vut.......q..poooonmlmmnnmnnnno......pponopppssqprssstuuuuuttttstsrrrqp..........yyyyyxwww
(PID.TID 0000.0001)     16 tts......qq.opppppnonmmoooooo........qqpopqqprsrprsttuvvvvvvvvuuussrrqqp........yz+zzyxwvv
(PID.TID 0000.0001)     15 tsq......qq.opqpqqqqqooppqqp..........qqqrrrpqrqrsssstuuuuvwwvvuutrrqppp.......wxyyxxyxwvu
(PID.TID 0000.0001)     14 ssqp....qqqpppqqrsssssstsssr...........rrrsrrrrrrrrsssrrrstuuutttsrqpooo......uwwvvvvwvuuu
(PID.TID 0000.0001)     13 sssq...rrrrrrrrrssssttssttts..........rrssssrrrrrrrssqqpqqrrrrrqqpoonnml.....uvvutttttsstt
(PID.TID 0000.0001)     12 rrsrrrrrrsrrrrrrrrrrrrqqsttss.ssts....rrrrrrrrrrqqqqqpppooooonnnnnmmlmlk....oputssrrrrrqrs
(PID.TID 0000.0001)     11 onprrrrrrrrrrrrrqqqqppooqrqrrrqqpqqrrrrrrrq.qqqpppoonnnnnmlllllkkllkklk....kkqsrqrrpppoono
(PID.TID 0000.0001)     10 mlmnppppnnnnmnoppponnnnnnoooooooooppqqqqpp.pppppoonmmllmllkkkkkkkkkkkki...iknoonnoonnnnnnm
(PID.TID 0000.0001)      9 kkkkkkkkkkkkjjkkkkkjklllllmmmmmnnnnnooonnonmmmnnnnnmmmmmlllllllkkkkkkkg...ikmnnmmllkkllllk
(PID.TID 0000.0001)      8 jjjkkkkkkkkkkjjjjjjjkkkkjkkkkkkllllmmmnmmmmlllmmmnmmmmllllmlllllllllklk..giklllkkkkkkkkkkk
(PID.TID 0000.0001)      7 kkklkkkkkkkllkkkkkkkkkkkjjjjjjjjkkkkkkkklllllllllllkkkkkkllllllllllllmmiijkkkkkjjjkjjjjjjj
(PID.TID 0000.0001)      6 kkkkjjkjjjjjkkkkkkkkkkkkkjjjjjjjjjjjjjjjjjjkkkkkkkkkkkkkkkkkklllllllllllkkkkkkkkjjjjiijjjj
(PID.TID 0000.0001)      5 kkkkjjjjjjjjjjjjjjjjjjkkk.kjjjjjjkjjjjjjjjjjkkkkkkkkkkkkjjjjkkkkkkkklkkkjj.kkkkjjjjjjkkkkk
(PID.TID 0000.0001)      4 llkkkjjk.k..............................jkkkkkkklllkkjjjiiiijjjiiijjjjjj...kkjjkkkklllkkkk
(PID.TID 0000.0001)      3 ...........................................kkkjkkkkkjjiiiijjjjjjj..........kklllllllll....
(PID.TID 0000.0001)      2 ...........................................lllkkkkk...........................mmll........
(PID.TID 0000.0001)      1 ..........................................................................................
(PID.TID 0000.0001) // =======================================================
(PID.TID 0000.0001) // END OF FIELD                                          =
(PID.TID 0000.0001) // =======================================================
(PID.TID 0000.0001) 
(PID.TID 0000.0001)  MDSREADFIELD: opening global file: tren_taux.bin
(PID.TID 0000.0001)  MDSREADFIELD: opening global file: tren_tauy.bin
(PID.TID 0000.0001)  MDSREADFIELD: opening global file: shi_qnet.bin
(PID.TID 0000.0001)  MDSREADFIELD: opening global file: shi_empr.bin
(PID.TID 0000.0001)  MDSREADFIELD: opening global file: theta_surf.bin
(PID.TID 0000.0001)  MDSREADFIELD: opening global file: sal_surf.bin
(PID.TID 0000.0001) // =======================================================
(PID.TID 0000.0001) // Model current state
(PID.TID 0000.0001) // =======================================================
(PID.TID 0000.0001) 
(PID.TID 0000.0001) // =======================================================
(PID.TID 0000.0001) // Begin MONITOR dynamic field statistics
(PID.TID 0000.0001) // =======================================================
(PID.TID 0000.0001) %MON time_tsnumber                =                     0
(PID.TID 0000.0001) %MON time_secondsf                =   0.0000000000000E+00
(PID.TID 0000.0001) %MON time_secondsi                =                     0
(PID.TID 0000.0001) %MON dynstat_eta_max              =   0.0000000000000E+00
(PID.TID 0000.0001) %MON dynstat_eta_min              =   0.0000000000000E+00
(PID.TID 0000.0001) %MON dynstat_eta_mean             =   0.0000000000000E+00
(PID.TID 0000.0001) %MON dynstat_eta_sd               =   0.0000000000000E+00
(PID.TID 0000.0001) %MON dynstat_eta_del2             =   0.0000000000000E+00
(PID.TID 0000.0001) %MON dynstat_uvel_max             =   0.0000000000000E+00
(PID.TID 0000.0001) %MON dynstat_uvel_min             =   0.0000000000000E+00
(PID.TID 0000.0001) %MON dynstat_uvel_mean            =   0.0000000000000E+00
(PID.TID 0000.0001) %MON dynstat_uvel_sd              =   0.0000000000000E+00
(PID.TID 0000.0001) %MON dynstat_uvel_del2            =   0.0000000000000E+00
(PID.TID 0000.0001) %MON dynstat_vvel_max             =   0.0000000000000E+00
(PID.TID 0000.0001) %MON dynstat_vvel_min             =   0.0000000000000E+00
(PID.TID 0000.0001) %MON dynstat_vvel_mean            =   0.0000000000000E+00
(PID.TID 0000.0001) %MON dynstat_vvel_sd              =   0.0000000000000E+00
(PID.TID 0000.0001) %MON dynstat_vvel_del2            =   0.0000000000000E+00
(PID.TID 0000.0001) %MON dynstat_wvel_max             =   0.0000000000000E+00
(PID.TID 0000.0001) %MON dynstat_wvel_min             =   0.0000000000000E+00
(PID.TID 0000.0001) %MON dynstat_wvel_mean            =   0.0000000000000E+00
(PID.TID 0000.0001) %MON dynstat_wvel_sd              =   0.0000000000000E+00
(PID.TID 0000.0001) %MON dynstat_wvel_del2            =   0.0000000000000E+00
(PID.TID 0000.0001) %MON dynstat_theta_max            =   2.9468086242676E+01
(PID.TID 0000.0001) %MON dynstat_theta_min            =  -2.5116395950317E+00
(PID.TID 0000.0001) %MON dynstat_theta_mean           =   3.4705461492347E+00
(PID.TID 0000.0001) %MON dynstat_theta_sd             =   4.2402245232329E+00
(PID.TID 0000.0001) %MON dynstat_theta_del2           =   1.5375138401156E-01
(PID.TID 0000.0001) %MON dynstat_salt_max             =   3.7402008056641E+01
(PID.TID 0000.0001) %MON dynstat_salt_min             =   3.1665649414062E+01
(PID.TID 0000.0001) %MON dynstat_salt_mean            =   3.4719323675863E+01
(PID.TID 0000.0001) %MON dynstat_salt_sd              =   2.8104212645721E-01
(PID.TID 0000.0001) %MON dynstat_salt_del2            =   2.4955272592180E-02
(PID.TID 0000.0001) %MON advcfl_uvel_max              =   0.0000000000000E+00
(PID.TID 0000.0001) %MON advcfl_vvel_max              =   0.0000000000000E+00
(PID.TID 0000.0001) %MON advcfl_wvel_max              =   0.0000000000000E+00
(PID.TID 0000.0001) %MON advcfl_W_hf_max              =   0.0000000000000E+00
(PID.TID 0000.0001) %MON ke_max                       =   0.0000000000000E+00
(PID.TID 0000.0001) %MON ke_mean                      =   0.0000000000000E+00
(PID.TID 0000.0001) %MON ke_volint                    =   0.0000000000000E+00
(PID.TID 0000.0001) %MON ke_volmean                   =   0.0000000000000E+00
(PID.TID 0000.0001) // =======================================================
(PID.TID 0000.0001) // End MONITOR dynamic field statistics
(PID.TID 0000.0001) // =======================================================
 S/R EXTERNAL_FIELDS_LOAD: Reading new data  0. 0
(PID.TID 0000.0001)  MDSREADFIELD: opening global file: tren_taux.bin
(PID.TID 0000.0001)  MDSREADFIELD: opening global file: tren_taux.bin
(PID.TID 0000.0001)  MDSREADFIELD: opening global file: tren_tauy.bin
(PID.TID 0000.0001)  MDSREADFIELD: opening global file: tren_tauy.bin
(PID.TID 0000.0001)  MDSREADFIELD: opening global file: shi_qnet.bin
(PID.TID 0000.0001)  MDSREADFIELD: opening global file: shi_qnet.bin
(PID.TID 0000.0001)  MDSREADFIELD: opening global file: shi_empr.bin
(PID.TID 0000.0001)  MDSREADFIELD: opening global file: shi_empr.bin
(PID.TID 0000.0001)  MDSREADFIELD: opening global file: theta_surf.bin
(PID.TID 0000.0001)  MDSREADFIELD: opening global file: theta_surf.bin
(PID.TID 0000.0001)  MDSREADFIELD: opening global file: sal_surf.bin
(PID.TID 0000.0001)  MDSREADFIELD: opening global file: sal_surf.bin
time,SST,SSS,fu,fv,Q,E-P,i0,i1,a,b =   0.0000E+00  0.0000E+00  0.0000E+00  0.0000E+00  0.0000E+00  2.4389E-01  0.0000E+00    12     1  5.0000E-01  5.0000E-01
time,fu0,fu1,fu =   0.0000E+00  0.0000E+00  0.0000E+00  0.0000E+00  5.0000E-01  5.0000E-01
 cg2d: Sum(rhs),rhsMax =   6.30745455865167E-15  2.92934433413851E+00
(PID.TID 0000.0001)                    cg2d_init_res =    6.28101049391337E+00
(PID.TID 0000.0001)                       cg2d_iters =    30
(PID.TID 0000.0001)                         cg2d_res =    2.17434230043815E-18
(PID.TID 0000.0001) // =======================================================
(PID.TID 0000.0001) // Begin MONITOR dynamic field statistics
(PID.TID 0000.0001) // =======================================================
(PID.TID 0000.0001) %MON time_tsnumber                =                     1
(PID.TID 0000.0001) %MON time_secondsf                =   4.3200000000000E+04
(PID.TID 0000.0001) %MON time_secondsi                =                 43200
(PID.TID 0000.0001) %MON dynstat_eta_max              =   1.2965945173527E-01
(PID.TID 0000.0001) %MON dynstat_eta_min              =  -1.4742405589625E-01
(PID.TID 0000.0001) %MON dynstat_eta_mean             =   7.3941102310975E-19
(PID.TID 0000.0001) %MON dynstat_eta_sd               =   2.7815690198747E-02
(PID.TID 0000.0001) %MON dynstat_eta_del2             =   1.1580616689925E-02
(PID.TID 0000.0001) %MON dynstat_uvel_max             =   7.6889830474032E-03
(PID.TID 0000.0001) %MON dynstat_uvel_min             =  -8.9072479547210E-03
(PID.TID 0000.0001) %MON dynstat_uvel_mean            =  -3.3930936820337E-04
(PID.TID 0000.0001) %MON dynstat_uvel_sd              =   1.1013980138751E-03
(PID.TID 0000.0001) %MON dynstat_uvel_del2            =   3.3482206453628E-04
(PID.TID 0000.0001) %MON dynstat_vvel_max             =   1.7097888078750E-02
(PID.TID 0000.0001) %MON dynstat_vvel_min             =  -1.6285445607561E-02
(PID.TID 0000.0001) %MON dynstat_vvel_mean            =   9.3754111050149E-04
(PID.TID 0000.0001) %MON dynstat_vvel_sd              =   3.4586543022488E-03
(PID.TID 0000.0001) %MON dynstat_vvel_del2            =   4.9498020314432E-04
(PID.TID 0000.0001) %MON dynstat_wvel_max             =   0.0000000000000E+00
(PID.TID 0000.0001) %MON dynstat_wvel_min             =   0.0000000000000E+00
(PID.TID 0000.0001) %MON dynstat_wvel_mean            =   0.0000000000000E+00
(PID.TID 0000.0001) %MON dynstat_wvel_sd              =   0.0000000000000E+00
(PID.TID 0000.0001) %MON dynstat_wvel_del2            =   0.0000000000000E+00
(PID.TID 0000.0001) %MON dynstat_theta_max            =   2.9475217830319E+01
(PID.TID 0000.0001) %MON dynstat_theta_min            =  -1.8983425752574E+00
(PID.TID 0000.0001) %MON dynstat_theta_mean           =   3.4705826471869E+00
(PID.TID 0000.0001) %MON dynstat_theta_sd             =   4.2400033789808E+00
(PID.TID 0000.0001) %MON dynstat_theta_del2           =   1.5374949928227E-01
(PID.TID 0000.0001) %MON dynstat_salt_max             =   3.7401976106105E+01
(PID.TID 0000.0001) %MON dynstat_salt_min             =   3.1665292434110E+01
(PID.TID 0000.0001) %MON dynstat_salt_mean            =   3.4719323642420E+01
(PID.TID 0000.0001) %MON dynstat_salt_sd              =   2.8093701688132E-01
(PID.TID 0000.0001) %MON dynstat_salt_del2            =   2.5054028438904E-02
(PID.TID 0000.0001) %MON advcfl_uvel_max              =   1.5976785592346E-03
(PID.TID 0000.0001) %MON advcfl_vvel_max              =   1.6609227182721E-03
(PID.TID 0000.0001) %MON advcfl_wvel_max              =   0.0000000000000E+00
(PID.TID 0000.0001) %MON advcfl_W_hf_max              =   0.0000000000000E+00
(PID.TID 0000.0001) %MON ke_max                       =   1.3973673493401E-04
(PID.TID 0000.0001) %MON ke_mean                      =   5.5029452115058E-06
(PID.TID 0000.0001) %MON ke_volint                    =   9.3826452292699E+12
(PID.TID 0000.0001) %MON ke_volmean                   =   6.4720891782280E-06
(PID.TID 0000.0001) // =======================================================
(PID.TID 0000.0001) // End MONITOR dynamic field statistics
(PID.TID 0000.0001) // =======================================================
time,SST,SSS,fu,fv,Q,E-P,i0,i1,a,b =   4.3200E+04  0.0000E+00  0.0000E+00  0.0000E+00  0.0000E+00  2.3576E-01  0.0000E+00    12     1  5.1667E-01  4.8333E-01
time,fu0,fu1,fu =   4.3200E+04  0.0000E+00  0.0000E+00  0.0000E+00  5.1667E-01  4.8333E-01
 cg2d: Sum(rhs),rhsMax =   9.81159598012482E-15  5.02830526447848E+00
(PID.TID 0000.0001)                    cg2d_init_res =    3.98200490176491E+00
(PID.TID 0000.0001)                       cg2d_iters =    29
(PID.TID 0000.0001)                         cg2d_res =    8.69685972098250E-18
(PID.TID 0000.0001) // =======================================================
(PID.TID 0000.0001) // Begin MONITOR dynamic field statistics
(PID.TID 0000.0001) // =======================================================
(PID.TID 0000.0001) %MON time_tsnumber                =                     2
(PID.TID 0000.0001) %MON time_secondsf                =   8.6400000000000E+04
(PID.TID 0000.0001) %MON time_secondsi                =                 86400
(PID.TID 0000.0001) %MON dynstat_eta_max              =   2.6054200419751E-01
(PID.TID 0000.0001) %MON dynstat_eta_min              =  -2.8927812098527E-01
(PID.TID 0000.0001) %MON dynstat_eta_mean             =  -1.2459537042144E-18
(PID.TID 0000.0001) %MON dynstat_eta_sd               =   6.4556476832451E-02
(PID.TID 0000.0001) %MON dynstat_eta_del2             =   2.2413901649225E-02
(PID.TID 0000.0001) %MON dynstat_uvel_max             =   1.6303235607071E-02
(PID.TID 0000.0001) %MON dynstat_uvel_min             =  -1.6680131142805E-02
(PID.TID 0000.0001) %MON dynstat_uvel_mean            =  -8.5830057606122E-04
(PID.TID 0000.0001) %MON dynstat_uvel_sd              =   1.9542483739927E-03
(PID.TID 0000.0001) %MON dynstat_uvel_del2            =   6.1788722914719E-04
(PID.TID 0000.0001) %MON dynstat_vvel_max             =   3.0492303768446E-02
(PID.TID 0000.0001) %MON dynstat_vvel_min             =  -2.7398821930038E-02
(PID.TID 0000.0001) %MON dynstat_vvel_mean            =   1.8242255951146E-03
(PID.TID 0000.0001) %MON dynstat_vvel_sd              =   6.3234862150954E-03
(PID.TID 0000.0001) %MON dynstat_vvel_del2            =   8.8170183362676E-04
(PID.TID 0000.0001) %MON dynstat_wvel_max             =   1.1581504179293E-04
(PID.TID 0000.0001) %MON dynstat_wvel_min             =  -1.3438811162648E-04
(PID.TID 0000.0001) %MON dynstat_wvel_mean            =   9.3719823396740E-23
(PID.TID 0000.0001) %MON dynstat_wvel_sd              =   1.7379382638303E-05
(PID.TID 0000.0001) %MON dynstat_wvel_del2            =   8.5422144339682E-06
(PID.TID 0000.0001) %MON dynstat_theta_max            =   2.9471589207852E+01
(PID.TID 0000.0001) %MON dynstat_theta_min            =  -1.8983608104440E+00
(PID.TID 0000.0001) %MON dynstat_theta_mean           =   3.4697303755028E+00
(PID.TID 0000.0001) %MON dynstat_theta_sd             =   4.2381866549150E+00
(PID.TID 0000.0001) %MON dynstat_theta_del2           =   1.5133751766308E-01
(PID.TID 0000.0001) %MON dynstat_salt_max             =   3.7399558359253E+01
(PID.TID 0000.0001) %MON dynstat_salt_min             =   3.1674528263102E+01
(PID.TID 0000.0001) %MON dynstat_salt_mean            =   3.4719250520224E+01
(PID.TID 0000.0001) %MON dynstat_salt_sd              =   2.8093059909883E-01
(PID.TID 0000.0001) %MON dynstat_salt_del2            =   2.5022256520268E-02
(PID.TID 0000.0001) %MON advcfl_uvel_max              =   4.1540215752604E-03
(PID.TID 0000.0001) %MON advcfl_vvel_max              =   2.9620827922258E-03
(PID.TID 0000.0001) %MON advcfl_wvel_max              =   2.1229064049060E-01
(PID.TID 0000.0001) %MON advcfl_W_hf_max              =   2.1544753516333E-01
(PID.TID 0000.0001) %MON ke_max                       =   4.5991747673776E-04
(PID.TID 0000.0001) %MON ke_mean                      =   1.9418635426845E-05
(PID.TID 0000.0001) %MON ke_volint                    =   3.1698931882197E+13
(PID.TID 0000.0001) %MON ke_volmean                   =   2.1865722190598E-05
(PID.TID 0000.0001) // =======================================================
(PID.TID 0000.0001) // End MONITOR dynamic field statistics
(PID.TID 0000.0001) // =======================================================
time,SST,SSS,fu,fv,Q,E-P,i0,i1,a,b =   8.6400E+04  0.0000E+00  0.0000E+00  0.0000E+00  0.0000E+00  2.2763E-01  0.0000E+00    12     1  5.3333E-01  4.6667E-01
time,fu0,fu1,fu =   8.6400E+04  0.0000E+00  0.0000E+00  0.0000E+00  5.3333E-01  4.6667E-01
 cg2d: Sum(rhs),rhsMax =   1.59594559789866E-15  5.44212547613770E+00
(PID.TID 0000.0001)                    cg2d_init_res =    3.03712877491157E+00
(PID.TID 0000.0001)                       cg2d_iters =    29
(PID.TID 0000.0001)                         cg2d_res =    7.95284391778924E-18
(PID.TID 0000.0001) // =======================================================
(PID.TID 0000.0001) // Begin MONITOR dynamic field statistics
(PID.TID 0000.0001) // =======================================================
(PID.TID 0000.0001) %MON time_tsnumber                =                     3
(PID.TID 0000.0001) %MON time_secondsf                =   1.2960000000000E+05
(PID.TID 0000.0001) %MON time_secondsi                =                129600
(PID.TID 0000.0001) %MON dynstat_eta_max              =   3.9570908190457E-01
(PID.TID 0000.0001) %MON dynstat_eta_min              =  -4.2151662089354E-01
(PID.TID 0000.0001) %MON dynstat_eta_mean             =   1.0257001181826E-19
(PID.TID 0000.0001) %MON dynstat_eta_sd               =   1.0024513878578E-01
(PID.TID 0000.0001) %MON dynstat_eta_del2             =   2.7179686298660E-02
(PID.TID 0000.0001) %MON dynstat_uvel_max             =   2.5364754931308E-02
(PID.TID 0000.0001) %MON dynstat_uvel_min             =  -3.1733890027556E-02
(PID.TID 0000.0001) %MON dynstat_uvel_mean            =  -1.5288627581615E-03
(PID.TID 0000.0001) %MON dynstat_uvel_sd              =   2.8263292929592E-03
(PID.TID 0000.0001) %MON dynstat_uvel_del2            =   8.9598893134275E-04
(PID.TID 0000.0001) %MON dynstat_vvel_max             =   4.0555241702627E-02
(PID.TID 0000.0001) %MON dynstat_vvel_min             =  -3.3596339374961E-02
(PID.TID 0000.0001) %MON dynstat_vvel_mean            =   2.6280270516933E-03
(PID.TID 0000.0001) %MON dynstat_vvel_sd              =   8.6655990144499E-03
(PID.TID 0000.0001) %MON dynstat_vvel_del2            =   1.2326128964965E-03
(PID.TID 0000.0001) %MON dynstat_wvel_max             =   1.4552750063628E-04
(PID.TID 0000.0001) %MON dynstat_wvel_min             =  -1.5871028740540E-04
(PID.TID 0000.0001) %MON dynstat_wvel_mean            =   6.2502093324364E-22
(PID.TID 0000.0001) %MON dynstat_wvel_sd              =   2.5025036116638E-05
(PID.TID 0000.0001) %MON dynstat_wvel_del2            =   9.7572730750179E-06
(PID.TID 0000.0001) %MON dynstat_theta_max            =   2.9472802771516E+01
(PID.TID 0000.0001) %MON dynstat_theta_min            =  -1.8983636406110E+00
(PID.TID 0000.0001) %MON dynstat_theta_mean           =   3.4684928477639E+00
(PID.TID 0000.0001) %MON dynstat_theta_sd             =   4.2356402158437E+00
(PID.TID 0000.0001) %MON dynstat_theta_del2           =   1.4942530783117E-01
(PID.TID 0000.0001) %MON dynstat_salt_max             =   3.7398575645353E+01
(PID.TID 0000.0001) %MON dynstat_salt_min             =   3.1689609927583E+01
(PID.TID 0000.0001) %MON dynstat_salt_mean            =   3.4719142500261E+01
(PID.TID 0000.0001) %MON dynstat_salt_sd              =   2.8096765432004E-01
(PID.TID 0000.0001) %MON dynstat_salt_del2            =   2.4962987600893E-02
(PID.TID 0000.0001) %MON advcfl_uvel_max              =   7.0321529223656E-03
(PID.TID 0000.0001) %MON advcfl_vvel_max              =   3.9396165174709E-03
(PID.TID 0000.0001) %MON advcfl_wvel_max              =   2.3236312360813E-01
(PID.TID 0000.0001) %MON advcfl_W_hf_max              =   2.3816752163659E-01
(PID.TID 0000.0001) %MON ke_max                       =   8.5645730714507E-04
(PID.TID 0000.0001) %MON ke_mean                      =   3.9496334445297E-05
(PID.TID 0000.0001) %MON ke_volint                    =   6.1151740161886E+13
(PID.TID 0000.0001) %MON ke_volmean                   =   4.2182082564188E-05
(PID.TID 0000.0001) // =======================================================
(PID.TID 0000.0001) // End MONITOR dynamic field statistics
(PID.TID 0000.0001) // =======================================================
time,SST,SSS,fu,fv,Q,E-P,i0,i1,a,b =   1.2960E+05  0.0000E+00  0.0000E+00  0.0000E+00  0.0000E+00  2.1950E-01  0.0000E+00    12     1  5.5000E-01  4.5000E-01
time,fu0,fu1,fu =   1.2960E+05  0.0000E+00  0.0000E+00  0.0000E+00  5.5000E-01  4.5000E-01
 cg2d: Sum(rhs),rhsMax =   6.24361673473572E-14  5.98353222656544E+00
(PID.TID 0000.0001)                    cg2d_init_res =    2.61168225950977E+00
(PID.TID 0000.0001)                       cg2d_iters =    29
(PID.TID 0000.0001)                         cg2d_res =    7.57098771117380E-18
(PID.TID 0000.0001) // =======================================================
(PID.TID 0000.0001) // Begin MONITOR dynamic field statistics
(PID.TID 0000.0001) // =======================================================
(PID.TID 0000.0001) %MON time_tsnumber                =                     4
(PID.TID 0000.0001) %MON time_secondsf                =   1.7280000000000E+05
(PID.TID 0000.0001) %MON time_secondsi                =                172800
(PID.TID 0000.0001) %MON dynstat_eta_max              =   5.2665165913120E-01
(PID.TID 0000.0001) %MON dynstat_eta_min              =  -5.1540332355493E-01
(PID.TID 0000.0001) %MON dynstat_eta_mean             =  -2.9743007898554E-17
(PID.TID 0000.0001) %MON dynstat_eta_sd               =   1.3424312005640E-01
(PID.TID 0000.0001) %MON dynstat_eta_del2             =   2.7587509468122E-02
(PID.TID 0000.0001) %MON dynstat_uvel_max             =   3.5390325263172E-02
(PID.TID 0000.0001) %MON dynstat_uvel_min             =  -4.8742900881067E-02
(PID.TID 0000.0001) %MON dynstat_uvel_mean            =  -2.3202087158777E-03
(PID.TID 0000.0001) %MON dynstat_uvel_sd              =   3.8266212781874E-03
(PID.TID 0000.0001) %MON dynstat_uvel_del2            =   1.1575654900432E-03
(PID.TID 0000.0001) %MON dynstat_vvel_max             =   4.9937034286576E-02
(PID.TID 0000.0001) %MON dynstat_vvel_min             =  -3.6189222931252E-02
(PID.TID 0000.0001) %MON dynstat_vvel_mean            =   3.3214356795820E-03
(PID.TID 0000.0001) %MON dynstat_vvel_sd              =   1.0603716569710E-02
(PID.TID 0000.0001) %MON dynstat_vvel_del2            =   1.5806236197092E-03
(PID.TID 0000.0001) %MON dynstat_wvel_max             =   1.4630736548302E-04
(PID.TID 0000.0001) %MON dynstat_wvel_min             =  -1.7710237903370E-04
(PID.TID 0000.0001) %MON dynstat_wvel_mean            =   7.4635519333996E-23
(PID.TID 0000.0001) %MON dynstat_wvel_sd              =   2.7481795510931E-05
(PID.TID 0000.0001) %MON dynstat_wvel_del2            =   7.8672373018112E-06
(PID.TID 0000.0001) %MON dynstat_theta_max            =   2.9481335689371E+01
(PID.TID 0000.0001) %MON dynstat_theta_min            =  -1.8983669617847E+00
(PID.TID 0000.0001) %MON dynstat_theta_mean           =   3.4669665955653E+00
(PID.TID 0000.0001) %MON dynstat_theta_sd             =   4.2325015271149E+00
(PID.TID 0000.0001) %MON dynstat_theta_del2           =   1.4852844032176E-01
(PID.TID 0000.0001) %MON dynstat_salt_max             =   3.7398714029555E+01
(PID.TID 0000.0001) %MON dynstat_salt_min             =   3.1670617411472E+01
(PID.TID 0000.0001) %MON dynstat_salt_mean            =   3.4719010093823E+01
(PID.TID 0000.0001) %MON dynstat_salt_sd              =   2.8102808593388E-01
(PID.TID 0000.0001) %MON dynstat_salt_del2            =   2.4907411209131E-02
(PID.TID 0000.0001) %MON advcfl_uvel_max              =   1.0801308398615E-02
(PID.TID 0000.0001) %MON advcfl_vvel_max              =   4.8509824340700E-03
(PID.TID 0000.0001) %MON advcfl_wvel_max              =   2.2172541442006E-01
(PID.TID 0000.0001) %MON advcfl_W_hf_max              =   2.2278049026159E-01
(PID.TID 0000.0001) %MON ke_max                       =   1.2811199882989E-03
(PID.TID 0000.0001) %MON ke_mean                      =   6.4505058378315E-05
(PID.TID 0000.0001) %MON ke_volint                    =   9.5086158269466E+13
(PID.TID 0000.0001) %MON ke_volmean                   =   6.5589828976511E-05
(PID.TID 0000.0001) // =======================================================
(PID.TID 0000.0001) // End MONITOR dynamic field statistics
(PID.TID 0000.0001) // =======================================================
time,SST,SSS,fu,fv,Q,E-P,i0,i1,a,b =   1.7280E+05  0.0000E+00  0.0000E+00  0.0000E+00  0.0000E+00  2.1137E-01  0.0000E+00    12     1  5.6667E-01  4.3333E-01
time,fu0,fu1,fu =   1.7280E+05  0.0000E+00  0.0000E+00  0.0000E+00  5.6667E-01  4.3333E-01
 cg2d: Sum(rhs),rhsMax =   1.90680804479371E-14  7.05751078153123E+00
(PID.TID 0000.0001)                    cg2d_init_res =    2.17512760313219E+00
(PID.TID 0000.0001)                       cg2d_iters =    29
(PID.TID 0000.0001)                         cg2d_res =    6.02582818838662E-18
(PID.TID 0000.0001) // =======================================================
(PID.TID 0000.0001) // Begin MONITOR dynamic field statistics
(PID.TID 0000.0001) // =======================================================
(PID.TID 0000.0001) %MON time_tsnumber                =                     5
(PID.TID 0000.0001) %MON time_secondsf                =   2.1600000000000E+05
(PID.TID 0000.0001) %MON time_secondsi                =                216000
(PID.TID 0000.0001) %MON dynstat_eta_max              =   6.5459534429490E-01
(PID.TID 0000.0001) %MON dynstat_eta_min              =  -6.4233360271081E-01
(PID.TID 0000.0001) %MON dynstat_eta_mean             =  -5.2764063189346E-17
(PID.TID 0000.0001) %MON dynstat_eta_sd               =   1.6746915665734E-01
(PID.TID 0000.0001) %MON dynstat_eta_del2             =   2.6418673505525E-02
(PID.TID 0000.0001) %MON dynstat_uvel_max             =   4.5974437881014E-02
(PID.TID 0000.0001) %MON dynstat_uvel_min             =  -6.4720968753818E-02
(PID.TID 0000.0001) %MON dynstat_uvel_mean            =  -3.1975396683577E-03
(PID.TID 0000.0001) %MON dynstat_uvel_sd              =   4.9384525197867E-03
(PID.TID 0000.0001) %MON dynstat_uvel_del2            =   1.3865218231248E-03
(PID.TID 0000.0001) %MON dynstat_vvel_max             =   6.2056887429766E-02
(PID.TID 0000.0001) %MON dynstat_vvel_min             =  -4.4648596649024E-02
(PID.TID 0000.0001) %MON dynstat_vvel_mean            =   3.8836393506662E-03
(PID.TID 0000.0001) %MON dynstat_vvel_sd              =   1.2166693144030E-02
(PID.TID 0000.0001) %MON dynstat_vvel_del2            =   1.8924720806802E-03
(PID.TID 0000.0001) %MON dynstat_wvel_max             =   1.5591368940765E-04
(PID.TID 0000.0001) %MON dynstat_wvel_min             =  -1.8920129514308E-04
(PID.TID 0000.0001) %MON dynstat_wvel_mean            =  -1.0417651154706E-21
(PID.TID 0000.0001) %MON dynstat_wvel_sd              =   2.9179918883968E-05
(PID.TID 0000.0001) %MON dynstat_wvel_del2            =   7.2680508408400E-06
(PID.TID 0000.0001) %MON dynstat_theta_max            =   2.9490245898352E+01
(PID.TID 0000.0001) %MON dynstat_theta_min            =  -1.8991389571441E+00
(PID.TID 0000.0001) %MON dynstat_theta_mean           =   3.4652257703462E+00
(PID.TID 0000.0001) %MON dynstat_theta_sd             =   4.2288666538283E+00
(PID.TID 0000.0001) %MON dynstat_theta_del2           =   1.4816756030305E-01
(PID.TID 0000.0001) %MON dynstat_salt_max             =   3.7398545662510E+01
(PID.TID 0000.0001) %MON dynstat_salt_min             =   3.1633438687820E+01
(PID.TID 0000.0001) %MON dynstat_salt_mean            =   3.4718862032100E+01
(PID.TID 0000.0001) %MON dynstat_salt_sd              =   2.8109473526857E-01
(PID.TID 0000.0001) %MON dynstat_salt_del2            =   2.4863540806322E-02
(PID.TID 0000.0001) %MON advcfl_uvel_max              =   1.4342009415337E-02
(PID.TID 0000.0001) %MON advcfl_vvel_max              =   6.0283289773934E-03
(PID.TID 0000.0001) %MON advcfl_wvel_max              =   2.3274618029240E-01
(PID.TID 0000.0001) %MON advcfl_W_hf_max              =   2.3260029311519E-01
(PID.TID 0000.0001) %MON ke_max                       =   1.7169595689029E-03
(PID.TID 0000.0001) %MON ke_mean                      =   9.2936568288637E-05
(PID.TID 0000.0001) %MON ke_volint                    =   1.3108923509416E+14
(PID.TID 0000.0001) %MON ke_volmean                   =   9.0424523053304E-05
(PID.TID 0000.0001) // =======================================================
(PID.TID 0000.0001) // End MONITOR dynamic field statistics
(PID.TID 0000.0001) // =======================================================
time,SST,SSS,fu,fv,Q,E-P,i0,i1,a,b =   2.1600E+05  0.0000E+00  0.0000E+00  0.0000E+00  0.0000E+00  2.0324E-01  0.0000E+00    12     1  5.8333E-01  4.1667E-01
time,fu0,fu1,fu =   2.1600E+05  0.0000E+00  0.0000E+00  0.0000E+00  5.8333E-01  4.1667E-01
 cg2d: Sum(rhs),rhsMax =  -8.50430836862870E-14  8.11141919169837E+00
(PID.TID 0000.0001)                    cg2d_init_res =    1.84441413784269E+00
(PID.TID 0000.0001)                       cg2d_iters =    29
(PID.TID 0000.0001)                         cg2d_res =    5.09937809497987E-18
(PID.TID 0000.0001) // =======================================================
(PID.TID 0000.0001) // Begin MONITOR dynamic field statistics
(PID.TID 0000.0001) // =======================================================
(PID.TID 0000.0001) %MON time_tsnumber                =                     6
(PID.TID 0000.0001) %MON time_secondsf                =   2.5920000000000E+05
(PID.TID 0000.0001) %MON time_secondsi                =                259200
(PID.TID 0000.0001) %MON dynstat_eta_max              =   7.7411343744537E-01
(PID.TID 0000.0001) %MON dynstat_eta_min              =  -7.3672090169936E-01
(PID.TID 0000.0001) %MON dynstat_eta_mean             =   3.4931265026136E-17
(PID.TID 0000.0001) %MON dynstat_eta_sd               =   2.0010840030569E-01
(PID.TID 0000.0001) %MON dynstat_eta_del2             =   2.5140312048574E-02
(PID.TID 0000.0001) %MON dynstat_uvel_max             =   5.6720816271074E-02
(PID.TID 0000.0001) %MON dynstat_uvel_min             =  -7.7135300763902E-02
(PID.TID 0000.0001) %MON dynstat_uvel_mean            =  -4.1236347434959E-03
(PID.TID 0000.0001) %MON dynstat_uvel_sd              =   6.1343389428888E-03
(PID.TID 0000.0001) %MON dynstat_uvel_del2            =   1.5929121443889E-03
(PID.TID 0000.0001) %MON dynstat_vvel_max             =   7.2268475040671E-02
(PID.TID 0000.0001) %MON dynstat_vvel_min             =  -5.5269225199460E-02
(PID.TID 0000.0001) %MON dynstat_vvel_mean            =   4.3027503033523E-03
(PID.TID 0000.0001) %MON dynstat_vvel_sd              =   1.3369758194245E-02
(PID.TID 0000.0001) %MON dynstat_vvel_del2            =   2.1634772805204E-03
(PID.TID 0000.0001) %MON dynstat_wvel_max             =   1.6783176432799E-04
(PID.TID 0000.0001) %MON dynstat_wvel_min             =  -1.9594140230127E-04
(PID.TID 0000.0001) %MON dynstat_wvel_mean            =   2.4855641185423E-21
(PID.TID 0000.0001) %MON dynstat_wvel_sd              =   3.0904726866458E-05
(PID.TID 0000.0001) %MON dynstat_wvel_del2            =   7.9877333897386E-06
(PID.TID 0000.0001) %MON dynstat_theta_max            =   2.9495824134894E+01
(PID.TID 0000.0001) %MON dynstat_theta_min            =  -1.8991382729593E+00
(PID.TID 0000.0001) %MON dynstat_theta_mean           =   3.4633411515540E+00
(PID.TID 0000.0001) %MON dynstat_theta_sd             =   4.2248258756109E+00
(PID.TID 0000.0001) %MON dynstat_theta_del2           =   1.4778108030463E-01
(PID.TID 0000.0001) %MON dynstat_salt_max             =   3.7399175316761E+01
(PID.TID 0000.0001) %MON dynstat_salt_min             =   3.1586370890381E+01
(PID.TID 0000.0001) %MON dynstat_salt_mean            =   3.4718704981244E+01
(PID.TID 0000.0001) %MON dynstat_salt_sd              =   2.8115691696676E-01
(PID.TID 0000.0001) %MON dynstat_salt_del2            =   2.4811318186716E-02
(PID.TID 0000.0001) %MON advcfl_uvel_max              =   1.7092995224141E-02
(PID.TID 0000.0001) %MON advcfl_vvel_max              =   7.0203028267050E-03
(PID.TID 0000.0001) %MON advcfl_wvel_max              =   2.5829706704129E-01
(PID.TID 0000.0001) %MON advcfl_W_hf_max              =   2.4743657452970E-01
(PID.TID 0000.0001) %MON ke_max                       =   2.4504467805753E-03
(PID.TID 0000.0001) %MON ke_mean                      =   1.2337231699262E-04
(PID.TID 0000.0001) %MON ke_volint                    =   1.6711297177743E+14
(PID.TID 0000.0001) %MON ke_volmean                   =   1.1527346816953E-04
(PID.TID 0000.0001) // =======================================================
(PID.TID 0000.0001) // End MONITOR dynamic field statistics
(PID.TID 0000.0001) // =======================================================
time,SST,SSS,fu,fv,Q,E-P,i0,i1,a,b =   2.5920E+05  0.0000E+00  0.0000E+00  0.0000E+00  0.0000E+00  1.9511E-01  0.0000E+00    12     1  6.0000E-01  4.0000E-01
time,fu0,fu1,fu =   2.5920E+05  0.0000E+00  0.0000E+00  0.0000E+00  6.0000E-01  4.0000E-01
 cg2d: Sum(rhs),rhsMax =   1.54522228346110E-13  9.00952245131173E+00
(PID.TID 0000.0001)                    cg2d_init_res =    1.61463647508511E+00
(PID.TID 0000.0001)                       cg2d_iters =    29
(PID.TID 0000.0001)                         cg2d_res =    4.52854925319993E-18
(PID.TID 0000.0001) // =======================================================
(PID.TID 0000.0001) // Begin MONITOR dynamic field statistics
(PID.TID 0000.0001) // =======================================================
(PID.TID 0000.0001) %MON time_tsnumber                =                     7
(PID.TID 0000.0001) %MON time_secondsf                =   3.0240000000000E+05
(PID.TID 0000.0001) %MON time_secondsi                =                302400
(PID.TID 0000.0001) %MON dynstat_eta_max              =   8.7566065915351E-01
(PID.TID 0000.0001) %MON dynstat_eta_min              =  -8.2261705048212E-01
(PID.TID 0000.0001) %MON dynstat_eta_mean             =  -1.0385497530827E-16
(PID.TID 0000.0001) %MON dynstat_eta_sd               =   2.3186060248536E-01
(PID.TID 0000.0001) %MON dynstat_eta_del2             =   2.4052539038232E-02
(PID.TID 0000.0001) %MON dynstat_uvel_max             =   6.7556786536703E-02
(PID.TID 0000.0001) %MON dynstat_uvel_min             =  -8.4622276777673E-02
(PID.TID 0000.0001) %MON dynstat_uvel_mean            =  -5.0607339167288E-03
(PID.TID 0000.0001) %MON dynstat_uvel_sd              =   7.3814911064946E-03
(PID.TID 0000.0001) %MON dynstat_uvel_del2            =   1.7859053797251E-03
(PID.TID 0000.0001) %MON dynstat_vvel_max             =   8.0675665707544E-02
(PID.TID 0000.0001) %MON dynstat_vvel_min             =  -6.6316213841805E-02
(PID.TID 0000.0001) %MON dynstat_vvel_mean            =   4.5759465779448E-03
(PID.TID 0000.0001) %MON dynstat_vvel_sd              =   1.4232666760434E-02
(PID.TID 0000.0001) %MON dynstat_vvel_del2            =   2.4014860050386E-03
(PID.TID 0000.0001) %MON dynstat_wvel_max             =   1.7693126172743E-04
(PID.TID 0000.0001) %MON dynstat_wvel_min             =  -1.9590189297990E-04
(PID.TID 0000.0001) %MON dynstat_wvel_mean            =  -2.2491462192330E-21
(PID.TID 0000.0001) %MON dynstat_wvel_sd              =   3.2569373132167E-05
(PID.TID 0000.0001) %MON dynstat_wvel_del2            =   9.0735164931436E-06
(PID.TID 0000.0001) %MON dynstat_theta_max            =   2.9499608035872E+01
(PID.TID 0000.0001) %MON dynstat_theta_min            =  -1.8991601974186E+00
(PID.TID 0000.0001) %MON dynstat_theta_mean           =   3.4613782294501E+00
(PID.TID 0000.0001) %MON dynstat_theta_sd             =   4.2204744979511E+00
(PID.TID 0000.0001) %MON dynstat_theta_del2           =   1.4720598490869E-01
(PID.TID 0000.0001) %MON dynstat_salt_max             =   3.7399784239217E+01
(PID.TID 0000.0001) %MON dynstat_salt_min             =   3.1533545858707E+01
(PID.TID 0000.0001) %MON dynstat_salt_mean            =   3.4718544338582E+01
(PID.TID 0000.0001) %MON dynstat_salt_sd              =   2.8120915486781E-01
(PID.TID 0000.0001) %MON dynstat_salt_del2            =   2.4743488289248E-02
(PID.TID 0000.0001) %MON advcfl_uvel_max              =   1.8752090916765E-02
(PID.TID 0000.0001) %MON advcfl_vvel_max              =   7.8369939824279E-03
(PID.TID 0000.0001) %MON advcfl_wvel_max              =   2.6579021427845E-01
(PID.TID 0000.0001) %MON advcfl_W_hf_max              =   2.5374514741974E-01
(PID.TID 0000.0001) %MON ke_max                       =   3.1578171150252E-03
(PID.TID 0000.0001) %MON ke_mean                      =   1.5462268050519E-04
(PID.TID 0000.0001) %MON ke_volint                    =   2.0155964536823E+14
(PID.TID 0000.0001) %MON ke_volmean                   =   1.3903456516566E-04
(PID.TID 0000.0001) // =======================================================
(PID.TID 0000.0001) // End MONITOR dynamic field statistics
(PID.TID 0000.0001) // =======================================================
time,SST,SSS,fu,fv,Q,E-P,i0,i1,a,b =   3.0240E+05  0.0000E+00  0.0000E+00  0.0000E+00  0.0000E+00  1.8698E-01  0.0000E+00    12     1  6.1667E-01  3.8333E-01
time,fu0,fu1,fu =   3.0240E+05  0.0000E+00  0.0000E+00  0.0000E+00  6.1667E-01  3.8333E-01
 cg2d: Sum(rhs),rhsMax =  -9.89000548123897E-14  9.66100009999647E+00
(PID.TID 0000.0001)                    cg2d_init_res =    1.46207628309004E+00
(PID.TID 0000.0001)                       cg2d_iters =    29
(PID.TID 0000.0001)                         cg2d_res =    4.21800092178157E-18
(PID.TID 0000.0001) // =======================================================
(PID.TID 0000.0001) // Begin MONITOR dynamic field statistics
(PID.TID 0000.0001) // =======================================================
(PID.TID 0000.0001) %MON time_tsnumber                =                     8
(PID.TID 0000.0001) %MON time_secondsf                =   3.4560000000000E+05
(PID.TID 0000.0001) %MON time_secondsi                =                345600
(PID.TID 0000.0001) %MON dynstat_eta_max              =   9.5301976511455E-01
(PID.TID 0000.0001) %MON dynstat_eta_min              =  -8.6988060842251E-01
(PID.TID 0000.0001) %MON dynstat_eta_mean             =  -5.7830939574421E-17
(PID.TID 0000.0001) %MON dynstat_eta_sd               =   2.6225604108016E-01
(PID.TID 0000.0001) %MON dynstat_eta_del2             =   2.3166066584964E-02
(PID.TID 0000.0001) %MON dynstat_uvel_max             =   7.8338762929971E-02
(PID.TID 0000.0001) %MON dynstat_uvel_min             =  -8.7115322412044E-02
(PID.TID 0000.0001) %MON dynstat_uvel_mean            =  -5.9726782360395E-03
(PID.TID 0000.0001) %MON dynstat_uvel_sd              =   8.6431527568410E-03
(PID.TID 0000.0001) %MON dynstat_uvel_del2            =   1.9621940485376E-03
(PID.TID 0000.0001) %MON dynstat_vvel_max             =   8.7276249621795E-02
(PID.TID 0000.0001) %MON dynstat_vvel_min             =  -7.6844465050483E-02
(PID.TID 0000.0001) %MON dynstat_vvel_mean            =   4.7089300023517E-03
(PID.TID 0000.0001) %MON dynstat_vvel_sd              =   1.4783324825934E-02
(PID.TID 0000.0001) %MON dynstat_vvel_del2            =   2.6085823524933E-03
(PID.TID 0000.0001) %MON dynstat_wvel_max             =   1.8430798279453E-04
(PID.TID 0000.0001) %MON dynstat_wvel_min             =  -1.9328725277506E-04
(PID.TID 0000.0001) %MON dynstat_wvel_mean            =  -1.2719168012438E-21
(PID.TID 0000.0001) %MON dynstat_wvel_sd              =   3.3964364239209E-05
(PID.TID 0000.0001) %MON dynstat_wvel_del2            =   1.0023259670444E-05
(PID.TID 0000.0001) %MON dynstat_theta_max            =   2.9503683777083E+01
(PID.TID 0000.0001) %MON dynstat_theta_min            =  -1.8991847395302E+00
(PID.TID 0000.0001) %MON dynstat_theta_mean           =   3.4593973593810E+00
(PID.TID 0000.0001) %MON dynstat_theta_sd             =   4.2159203082088E+00
(PID.TID 0000.0001) %MON dynstat_theta_del2           =   1.4652097858722E-01
(PID.TID 0000.0001) %MON dynstat_salt_max             =   3.7400360011218E+01
(PID.TID 0000.0001) %MON dynstat_salt_min             =   3.1479736715556E+01
(PID.TID 0000.0001) %MON dynstat_salt_mean            =   3.4718384902081E+01
(PID.TID 0000.0001) %MON dynstat_salt_sd              =   2.8125532302495E-01
(PID.TID 0000.0001) %MON dynstat_salt_del2            =   2.4685041942376E-02
(PID.TID 0000.0001) %MON advcfl_uvel_max              =   1.9304543771681E-02
(PID.TID 0000.0001) %MON advcfl_vvel_max              =   8.4781877793781E-03
(PID.TID 0000.0001) %MON advcfl_wvel_max              =   2.3679566907060E-01
(PID.TID 0000.0001) %MON advcfl_W_hf_max              =   2.2700295291189E-01
(PID.TID 0000.0001) %MON ke_max                       =   3.6518014570345E-03
(PID.TID 0000.0001) %MON ke_mean                      =   1.8575395240822E-04
(PID.TID 0000.0001) %MON ke_volint                    =   2.3326790951446E+14
(PID.TID 0000.0001) %MON ke_volmean                   =   1.6090672469281E-04
(PID.TID 0000.0001) // =======================================================
(PID.TID 0000.0001) // End MONITOR dynamic field statistics
(PID.TID 0000.0001) // =======================================================
time,SST,SSS,fu,fv,Q,E-P,i0,i1,a,b =   3.4560E+05  0.0000E+00  0.0000E+00  0.0000E+00  0.0000E+00  1.7885E-01  0.0000E+00    12     1  6.3333E-01  3.6667E-01
time,fu0,fu1,fu =   3.4560E+05  0.0000E+00  0.0000E+00  0.0000E+00  6.3333E-01  3.6667E-01
 cg2d: Sum(rhs),rhsMax =  -2.04891659194573E-13  1.00533284882837E+01
(PID.TID 0000.0001)                    cg2d_init_res =    1.35444875914113E+00
(PID.TID 0000.0001)                       cg2d_iters =    29
(PID.TID 0000.0001)                         cg2d_res =    4.00205221339486E-18
(PID.TID 0000.0001) // =======================================================
(PID.TID 0000.0001) // Begin MONITOR dynamic field statistics
(PID.TID 0000.0001) // =======================================================
(PID.TID 0000.0001) %MON time_tsnumber                =                     9
(PID.TID 0000.0001) %MON time_secondsf                =   3.8880000000000E+05
(PID.TID 0000.0001) %MON time_secondsi                =                388800
(PID.TID 0000.0001) %MON dynstat_eta_max              =   1.0048767909632E+00
(PID.TID 0000.0001) %MON dynstat_eta_min              =  -9.3301633355389E-01
(PID.TID 0000.0001) %MON dynstat_eta_mean             =   4.9908610071304E-17
(PID.TID 0000.0001) %MON dynstat_eta_sd               =   2.9075280818400E-01
(PID.TID 0000.0001) %MON dynstat_eta_del2             =   2.2456687898821E-02
(PID.TID 0000.0001) %MON dynstat_uvel_max             =   8.8893152299496E-02
(PID.TID 0000.0001) %MON dynstat_uvel_min             =  -8.5515607748714E-02
(PID.TID 0000.0001) %MON dynstat_uvel_mean            =  -6.8265969906813E-03
(PID.TID 0000.0001) %MON dynstat_uvel_sd              =   9.8832804634754E-03
(PID.TID 0000.0001) %MON dynstat_uvel_del2            =   2.1199458241853E-03
(PID.TID 0000.0001) %MON dynstat_vvel_max             =   9.3955853393170E-02
(PID.TID 0000.0001) %MON dynstat_vvel_min             =  -8.6337065778388E-02
(PID.TID 0000.0001) %MON dynstat_vvel_mean            =   4.7148923845778E-03
(PID.TID 0000.0001) %MON dynstat_vvel_sd              =   1.5061117643520E-02
(PID.TID 0000.0001) %MON dynstat_vvel_del2            =   2.7829081321142E-03
(PID.TID 0000.0001) %MON dynstat_wvel_max             =   2.0042262311090E-04
(PID.TID 0000.0001) %MON dynstat_wvel_min             =  -2.0635609256658E-04
(PID.TID 0000.0001) %MON dynstat_wvel_mean            =   1.3310634530075E-21
(PID.TID 0000.0001) %MON dynstat_wvel_sd              =   3.4931575615415E-05
(PID.TID 0000.0001) %MON dynstat_wvel_del2            =   1.0730563899955E-05
(PID.TID 0000.0001) %MON dynstat_theta_max            =   2.9507832967157E+01
(PID.TID 0000.0001) %MON dynstat_theta_min            =  -1.8996035830576E+00
(PID.TID 0000.0001) %MON dynstat_theta_mean           =   3.4574526801045E+00
(PID.TID 0000.0001) %MON dynstat_theta_sd             =   4.2112578907922E+00
(PID.TID 0000.0001) %MON dynstat_theta_del2           =   1.4579652930084E-01
(PID.TID 0000.0001) %MON dynstat_salt_max             =   3.7400902099359E+01
(PID.TID 0000.0001) %MON dynstat_salt_min             =   3.1429054278164E+01
(PID.TID 0000.0001) %MON dynstat_salt_mean            =   3.4718231187028E+01
(PID.TID 0000.0001) %MON dynstat_salt_sd              =   2.8129302035262E-01
(PID.TID 0000.0001) %MON dynstat_salt_del2            =   2.4627613389036E-02
(PID.TID 0000.0001) %MON advcfl_uvel_max              =   1.8950050889311E-02
(PID.TID 0000.0001) %MON advcfl_vvel_max              =   9.1270577217847E-03
(PID.TID 0000.0001) %MON advcfl_wvel_max              =   2.3860099321495E-01
(PID.TID 0000.0001) %MON advcfl_W_hf_max              =   2.3501653017105E-01
(PID.TID 0000.0001) %MON ke_max                       =   4.2439540788922E-03
(PID.TID 0000.0001) %MON ke_mean                      =   2.1614687837423E-04
(PID.TID 0000.0001) %MON ke_volint                    =   2.6154739180568E+14
(PID.TID 0000.0001) %MON ke_volmean                   =   1.8041373224031E-04
(PID.TID 0000.0001) // =======================================================
(PID.TID 0000.0001) // End MONITOR dynamic field statistics
(PID.TID 0000.0001) // =======================================================
time,SST,SSS,fu,fv,Q,E-P,i0,i1,a,b =   3.8880E+05  0.0000E+00  0.0000E+00  0.0000E+00  0.0000E+00  1.7072E-01  0.0000E+00    12     1  6.5000E-01  3.5000E-01
time,fu0,fu1,fu =   3.8880E+05  0.0000E+00  0.0000E+00  0.0000E+00  6.5000E-01  3.5000E-01
 cg2d: Sum(rhs),rhsMax =   8.42728664629533E-14  1.02166139529185E+01
(PID.TID 0000.0001)                    cg2d_init_res =    1.27028863717529E+00
(PID.TID 0000.0001)                       cg2d_iters =    29
(PID.TID 0000.0001)                         cg2d_res =    3.77787178845775E-18
(PID.TID 0000.0001) // =======================================================
(PID.TID 0000.0001) // Begin MONITOR dynamic field statistics
(PID.TID 0000.0001) // =======================================================
(PID.TID 0000.0001) %MON time_tsnumber                =                    10
(PID.TID 0000.0001) %MON time_secondsf                =   4.3200000000000E+05
(PID.TID 0000.0001) %MON time_secondsi                =                432000
(PID.TID 0000.0001) %MON dynstat_eta_max              =   1.0330829112901E+00
(PID.TID 0000.0001) %MON dynstat_eta_min              =  -1.0346496514691E+00
(PID.TID 0000.0001) %MON dynstat_eta_mean             =   1.2600163121247E-16
(PID.TID 0000.0001) %MON dynstat_eta_sd               =   3.1677800835049E-01
(PID.TID 0000.0001) %MON dynstat_eta_del2             =   2.1919791679721E-02
(PID.TID 0000.0001) %MON dynstat_uvel_max             =   9.9052487253189E-02
(PID.TID 0000.0001) %MON dynstat_uvel_min             =  -8.1156952050868E-02
(PID.TID 0000.0001) %MON dynstat_uvel_mean            =  -7.5939260853364E-03
(PID.TID 0000.0001) %MON dynstat_uvel_sd              =   1.1071493023974E-02
(PID.TID 0000.0001) %MON dynstat_uvel_del2            =   2.2578411386835E-03
(PID.TID 0000.0001) %MON dynstat_vvel_max             =   9.9830564627917E-02
(PID.TID 0000.0001) %MON dynstat_vvel_min             =  -9.4512704529614E-02
(PID.TID 0000.0001) %MON dynstat_vvel_mean            =   4.6128349089422E-03
(PID.TID 0000.0001) %MON dynstat_vvel_sd              =   1.5117206781172E-02
(PID.TID 0000.0001) %MON dynstat_vvel_del2            =   2.9246951463796E-03
(PID.TID 0000.0001) %MON dynstat_wvel_max             =   2.1594800870781E-04
(PID.TID 0000.0001) %MON dynstat_wvel_min             =  -2.1690145403221E-04
(PID.TID 0000.0001) %MON dynstat_wvel_mean            =   7.1651967948856E-22
(PID.TID 0000.0001) %MON dynstat_wvel_sd              =   3.5409753808190E-05
(PID.TID 0000.0001) %MON dynstat_wvel_del2            =   1.1214585932877E-05
(PID.TID 0000.0001) %MON dynstat_theta_max            =   2.9510117879829E+01
(PID.TID 0000.0001) %MON dynstat_theta_min            =  -1.8996045614573E+00
(PID.TID 0000.0001) %MON dynstat_theta_mean           =   3.4555898479571E+00
(PID.TID 0000.0001) %MON dynstat_theta_sd             =   4.2065770845321E+00
(PID.TID 0000.0001) %MON dynstat_theta_del2           =   1.4507546702054E-01
(PID.TID 0000.0001) %MON dynstat_salt_max             =   3.7401420333264E+01
(PID.TID 0000.0001) %MON dynstat_salt_min             =   3.1384253177890E+01
(PID.TID 0000.0001) %MON dynstat_salt_mean            =   3.4718087346450E+01
(PID.TID 0000.0001) %MON dynstat_salt_sd              =   2.8132195080110E-01
(PID.TID 0000.0001) %MON dynstat_salt_del2            =   2.4571482023797E-02
(PID.TID 0000.0001) %MON advcfl_uvel_max              =   1.7984183377431E-02
(PID.TID 0000.0001) %MON advcfl_vvel_max              =   9.6977388087200E-03
(PID.TID 0000.0001) %MON advcfl_wvel_max              =   2.4256405973131E-01
(PID.TID 0000.0001) %MON advcfl_W_hf_max              =   2.2782115092538E-01
(PID.TID 0000.0001) %MON ke_max                       =   5.1643716710723E-03
(PID.TID 0000.0001) %MON ke_mean                      =   2.4552109473023E-04
(PID.TID 0000.0001) %MON ke_volint                    =   2.8617997581974E+14
(PID.TID 0000.0001) %MON ke_volmean                   =   1.9740513248337E-04
(PID.TID 0000.0001) // =======================================================
(PID.TID 0000.0001) // End MONITOR dynamic field statistics
(PID.TID 0000.0001) // =======================================================
time,SST,SSS,fu,fv,Q,E-P,i0,i1,a,b =   4.3200E+05  0.0000E+00  0.0000E+00  0.0000E+00  0.0000E+00  1.6259E-01  0.0000E+00    12     1  6.6667E-01  3.3333E-01
time,fu0,fu1,fu =   4.3200E+05  0.0000E+00  0.0000E+00  0.0000E+00  6.6667E-01  3.3333E-01
 cg2d: Sum(rhs),rhsMax =  -1.78426717845070E-13  1.01911198937073E+01
(PID.TID 0000.0001)                    cg2d_init_res =    1.20088654666848E+00
(PID.TID 0000.0001)                       cg2d_iters =    29
(PID.TID 0000.0001)                         cg2d_res =    3.49635213818805E-18
(PID.TID 0000.0001) // =======================================================
(PID.TID 0000.0001) // Begin MONITOR dynamic field statistics
(PID.TID 0000.0001) // =======================================================
(PID.TID 0000.0001) %MON time_tsnumber                =                    11
(PID.TID 0000.0001) %MON time_secondsf                =   4.7520000000000E+05
(PID.TID 0000.0001) %MON time_secondsi                =                475200
(PID.TID 0000.0001) %MON dynstat_eta_max              =   1.0407625367412E+00
(PID.TID 0000.0001) %MON dynstat_eta_min              =  -1.1068874395314E+00
(PID.TID 0000.0001) %MON dynstat_eta_mean             =  -2.2013076725509E-16
(PID.TID 0000.0001) %MON dynstat_eta_sd               =   3.3979438839253E-01
(PID.TID 0000.0001) %MON dynstat_eta_del2             =   2.1499848743887E-02
(PID.TID 0000.0001) %MON dynstat_uvel_max             =   1.0866469693977E-01
(PID.TID 0000.0001) %MON dynstat_uvel_min             =  -8.0340408752650E-02
(PID.TID 0000.0001) %MON dynstat_uvel_mean            =  -8.2512110258359E-03
(PID.TID 0000.0001) %MON dynstat_uvel_sd              =   1.2185909849220E-02
(PID.TID 0000.0001) %MON dynstat_uvel_del2            =   2.3791363527245E-03
(PID.TID 0000.0001) %MON dynstat_vvel_max             =   1.0404664244493E-01
(PID.TID 0000.0001) %MON dynstat_vvel_min             =  -1.0106904550797E-01
(PID.TID 0000.0001) %MON dynstat_vvel_mean            =   4.4255144544738E-03
(PID.TID 0000.0001) %MON dynstat_vvel_sd              =   1.5010949665052E-02
(PID.TID 0000.0001) %MON dynstat_vvel_del2            =   3.0341635416764E-03
(PID.TID 0000.0001) %MON dynstat_wvel_max             =   2.3193572622418E-04
(PID.TID 0000.0001) %MON dynstat_wvel_min             =  -2.3386466090884E-04
(PID.TID 0000.0001) %MON dynstat_wvel_mean            =  -1.9170551545228E-21
(PID.TID 0000.0001) %MON dynstat_wvel_sd              =   3.5423412582413E-05
(PID.TID 0000.0001) %MON dynstat_wvel_del2            =   1.1484532839256E-05
(PID.TID 0000.0001) %MON dynstat_theta_max            =   2.9508292460012E+01
(PID.TID 0000.0001) %MON dynstat_theta_min            =  -1.8995986974664E+00
(PID.TID 0000.0001) %MON dynstat_theta_mean           =   3.4538462069119E+00
(PID.TID 0000.0001) %MON dynstat_theta_sd             =   4.2019579183627E+00
(PID.TID 0000.0001) %MON dynstat_theta_del2           =   1.4438616841582E-01
(PID.TID 0000.0001) %MON dynstat_salt_max             =   3.7401931278706E+01
(PID.TID 0000.0001) %MON dynstat_salt_min             =   3.1346500400172E+01
(PID.TID 0000.0001) %MON dynstat_salt_mean            =   3.4717957047349E+01
(PID.TID 0000.0001) %MON dynstat_salt_sd              =   2.8134073828875E-01
(PID.TID 0000.0001) %MON dynstat_salt_del2            =   2.4520511195308E-02
(PID.TID 0000.0001) %MON advcfl_uvel_max              =   1.7145630098112E-02
(PID.TID 0000.0001) %MON advcfl_vvel_max              =   1.0107296959763E-02
(PID.TID 0000.0001) %MON advcfl_wvel_max              =   2.2736882959333E-01
(PID.TID 0000.0001) %MON advcfl_W_hf_max              =   2.1246108286354E-01
(PID.TID 0000.0001) %MON ke_max                       =   6.0825136295257E-03
(PID.TID 0000.0001) %MON ke_mean                      =   2.7386979144187E-04
(PID.TID 0000.0001) %MON ke_volint                    =   3.0733431032581E+14
(PID.TID 0000.0001) %MON ke_volmean                   =   2.1199725827347E-04
(PID.TID 0000.0001) // =======================================================
(PID.TID 0000.0001) // End MONITOR dynamic field statistics
(PID.TID 0000.0001) // =======================================================
time,SST,SSS,fu,fv,Q,E-P,i0,i1,a,b =   4.7520E+05  0.0000E+00  0.0000E+00  0.0000E+00  0.0000E+00  1.5446E-01  0.0000E+00    12     1  6.8333E-01  3.1667E-01
time,fu0,fu1,fu =   4.7520E+05  0.0000E+00  0.0000E+00  0.0000E+00  6.8333E-01  3.1667E-01
 cg2d: Sum(rhs),rhsMax =  -6.21724893790088E-15  1.01421932303336E+01
(PID.TID 0000.0001)                    cg2d_init_res =    1.13275536878451E+00
(PID.TID 0000.0001)                       cg2d_iters =    29
(PID.TID 0000.0001)                         cg2d_res =    3.15469432479622E-18
(PID.TID 0000.0001) // =======================================================
(PID.TID 0000.0001) // Begin MONITOR dynamic field statistics
(PID.TID 0000.0001) // =======================================================
(PID.TID 0000.0001) %MON time_tsnumber                =                    12
(PID.TID 0000.0001) %MON time_secondsf                =   5.1840000000000E+05
(PID.TID 0000.0001) %MON time_secondsi                =                518400
(PID.TID 0000.0001) %MON dynstat_eta_max              =   1.0782006472956E+00
(PID.TID 0000.0001) %MON dynstat_eta_min              =  -1.1713200007935E+00
(PID.TID 0000.0001) %MON dynstat_eta_mean             =   7.2288479623262E-17
(PID.TID 0000.0001) %MON dynstat_eta_sd               =   3.5938228222624E-01
(PID.TID 0000.0001) %MON dynstat_eta_del2             =   2.1148151032575E-02
(PID.TID 0000.0001) %MON dynstat_uvel_max             =   1.1758650962238E-01
(PID.TID 0000.0001) %MON dynstat_uvel_min             =  -8.6619117054994E-02
(PID.TID 0000.0001) %MON dynstat_uvel_mean            =  -8.7806771151678E-03
(PID.TID 0000.0001) %MON dynstat_uvel_sd              =   1.3213219913946E-02
(PID.TID 0000.0001) %MON dynstat_uvel_del2            =   2.4839469750757E-03
(PID.TID 0000.0001) %MON dynstat_vvel_max             =   1.0664720850222E-01
(PID.TID 0000.0001) %MON dynstat_vvel_min             =  -1.0572754129190E-01
(PID.TID 0000.0001) %MON dynstat_vvel_mean            =   4.1772010158934E-03
(PID.TID 0000.0001) %MON dynstat_vvel_sd              =   1.4803553390312E-02
(PID.TID 0000.0001) %MON dynstat_vvel_del2            =   3.1132061700340E-03
(PID.TID 0000.0001) %MON dynstat_wvel_max             =   2.4803202926183E-04
(PID.TID 0000.0001) %MON dynstat_wvel_min             =  -2.5372159959577E-04
(PID.TID 0000.0001) %MON dynstat_wvel_mean            =   2.2916204756644E-21
(PID.TID 0000.0001) %MON dynstat_wvel_sd              =   3.5059121094359E-05
(PID.TID 0000.0001) %MON dynstat_wvel_del2            =   1.1565097913949E-05
(PID.TID 0000.0001) %MON dynstat_theta_max            =   2.9500382370513E+01
(PID.TID 0000.0001) %MON dynstat_theta_min            =  -1.8995891102965E+00
(PID.TID 0000.0001) %MON dynstat_theta_mean           =   3.4522505298862E+00
(PID.TID 0000.0001) %MON dynstat_theta_sd             =   4.1974707270856E+00
(PID.TID 0000.0001) %MON dynstat_theta_del2           =   1.4375553548252E-01
(PID.TID 0000.0001) %MON dynstat_salt_max             =   3.7402448720022E+01
(PID.TID 0000.0001) %MON dynstat_salt_min             =   3.1315718721814E+01
(PID.TID 0000.0001) %MON dynstat_salt_mean            =   3.4717843128592E+01
(PID.TID 0000.0001) %MON dynstat_salt_sd              =   2.8134701126156E-01
(PID.TID 0000.0001) %MON dynstat_salt_del2            =   2.4477207551348E-02
(PID.TID 0000.0001) %MON advcfl_uvel_max              =   1.8553355922310E-02
(PID.TID 0000.0001) %MON advcfl_vvel_max              =   1.0359921098197E-02
(PID.TID 0000.0001) %MON advcfl_wvel_max              =   1.9508710171125E-01
(PID.TID 0000.0001) %MON advcfl_W_hf_max              =   1.9088699719191E-01
(PID.TID 0000.0001) %MON ke_max                       =   6.9652537045275E-03
(PID.TID 0000.0001) %MON ke_mean                      =   3.0131623102643E-04
(PID.TID 0000.0001) %MON ke_volint                    =   3.2540306179477E+14
(PID.TID 0000.0001) %MON ke_volmean                   =   2.2446096845208E-04
(PID.TID 0000.0001) // =======================================================
(PID.TID 0000.0001) // End MONITOR dynamic field statistics
(PID.TID 0000.0001) // =======================================================
time,SST,SSS,fu,fv,Q,E-P,i0,i1,a,b =   5.1840E+05  0.0000E+00  0.0000E+00  0.0000E+00  0.0000E+00  1.4633E-01  0.0000E+00    12     1  7.0000E-01  3.0000E-01
time,fu0,fu1,fu =   5.1840E+05  0.0000E+00  0.0000E+00  0.0000E+00  7.0000E-01  3.0000E-01
 cg2d: Sum(rhs),rhsMax =   4.37420932808408E-13  1.08259567285941E+01
(PID.TID 0000.0001)                    cg2d_init_res =    1.00188397974669E+00
(PID.TID 0000.0001)                       cg2d_iters =    29
(PID.TID 0000.0001)                         cg2d_res =    2.49790171509324E-18
(PID.TID 0000.0001) // =======================================================
(PID.TID 0000.0001) // Begin MONITOR dynamic field statistics
(PID.TID 0000.0001) // =======================================================
(PID.TID 0000.0001) %MON time_tsnumber                =                    13
(PID.TID 0000.0001) %MON time_secondsf                =   5.6160000000000E+05
(PID.TID 0000.0001) %MON time_secondsi                =                561600
(PID.TID 0000.0001) %MON dynstat_eta_max              =   1.1426764623186E+00
(PID.TID 0000.0001) %MON dynstat_eta_min              =  -1.2170493805784E+00
(PID.TID 0000.0001) %MON dynstat_eta_mean             =   6.6505195880807E-17
(PID.TID 0000.0001) %MON dynstat_eta_sd               =   3.7530546324757E-01
(PID.TID 0000.0001) %MON dynstat_eta_del2             =   2.0754684561285E-02
(PID.TID 0000.0001) %MON dynstat_uvel_max             =   1.2567599633566E-01
(PID.TID 0000.0001) %MON dynstat_uvel_min             =  -9.2133164109967E-02
(PID.TID 0000.0001) %MON dynstat_uvel_mean            =  -9.1705746030020E-03
(PID.TID 0000.0001) %MON dynstat_uvel_sd              =   1.4146931947735E-02
(PID.TID 0000.0001) %MON dynstat_uvel_del2            =   2.5759070991921E-03
(PID.TID 0000.0001) %MON dynstat_vvel_max             =   1.0864089332976E-01
(PID.TID 0000.0001) %MON dynstat_vvel_min             =  -1.0827635435453E-01
(PID.TID 0000.0001) %MON dynstat_vvel_mean            =   3.8917092938617E-03
(PID.TID 0000.0001) %MON dynstat_vvel_sd              =   1.4550716094807E-02
(PID.TID 0000.0001) %MON dynstat_vvel_del2            =   3.1662090851142E-03
(PID.TID 0000.0001) %MON dynstat_wvel_max             =   2.6374539023869E-04
(PID.TID 0000.0001) %MON dynstat_wvel_min             =  -2.7241076115935E-04
(PID.TID 0000.0001) %MON dynstat_wvel_mean            =  -1.7349833595501E-21
(PID.TID 0000.0001) %MON dynstat_wvel_sd              =   3.4434698736013E-05
(PID.TID 0000.0001) %MON dynstat_wvel_del2            =   1.1492175839932E-05
(PID.TID 0000.0001) %MON dynstat_theta_max            =   2.9484795944671E+01
(PID.TID 0000.0001) %MON dynstat_theta_min            =  -1.8995789514968E+00
(PID.TID 0000.0001) %MON dynstat_theta_mean           =   3.4508239275242E+00
(PID.TID 0000.0001) %MON dynstat_theta_sd             =   4.1931825418769E+00
(PID.TID 0000.0001) %MON dynstat_theta_del2           =   1.4316491861325E-01
(PID.TID 0000.0001) %MON dynstat_salt_max             =   3.7402969382620E+01
(PID.TID 0000.0001) %MON dynstat_salt_min             =   3.1291268693645E+01
(PID.TID 0000.0001) %MON dynstat_salt_mean            =   3.4717747543725E+01
(PID.TID 0000.0001) %MON dynstat_salt_sd              =   2.8134164663104E-01
(PID.TID 0000.0001) %MON dynstat_salt_del2            =   2.4437456536746E-02
(PID.TID 0000.0001) %MON advcfl_uvel_max              =   1.9829753416396E-02
(PID.TID 0000.0001) %MON advcfl_vvel_max              =   1.0553591591762E-02
(PID.TID 0000.0001) %MON advcfl_wvel_max              =   1.9488210642024E-01
(PID.TID 0000.0001) %MON advcfl_W_hf_max              =   1.8571646779138E-01
(PID.TID 0000.0001) %MON ke_max                       =   7.7844657467983E-03
(PID.TID 0000.0001) %MON ke_mean                      =   3.2795108920253E-04
(PID.TID 0000.0001) %MON ke_volint                    =   3.4082035487027E+14
(PID.TID 0000.0001) %MON ke_volmean                   =   2.3509571944535E-04
(PID.TID 0000.0001) // =======================================================
(PID.TID 0000.0001) // End MONITOR dynamic field statistics
(PID.TID 0000.0001) // =======================================================
time,SST,SSS,fu,fv,Q,E-P,i0,i1,a,b =   5.6160E+05  0.0000E+00  0.0000E+00  0.0000E+00  0.0000E+00  1.3821E-01  0.0000E+00    12     1  7.1667E-01  2.8333E-01
time,fu0,fu1,fu =   5.6160E+05  0.0000E+00  0.0000E+00  0.0000E+00  7.1667E-01  2.8333E-01
 cg2d: Sum(rhs),rhsMax =   3.60059204673746E-14  1.11450865298159E+01
(PID.TID 0000.0001)                    cg2d_init_res =    9.33963960443574E-01
(PID.TID 0000.0001)                       cg2d_iters =    28
(PID.TID 0000.0001)                         cg2d_res =    6.68886928018357E-18
(PID.TID 0000.0001) // =======================================================
(PID.TID 0000.0001) // Begin MONITOR dynamic field statistics
(PID.TID 0000.0001) // =======================================================
(PID.TID 0000.0001) %MON time_tsnumber                =                    14
(PID.TID 0000.0001) %MON time_secondsf                =   6.0480000000000E+05
(PID.TID 0000.0001) %MON time_secondsi                =                604800
(PID.TID 0000.0001) %MON dynstat_eta_max              =   1.1757524996422E+00
(PID.TID 0000.0001) %MON dynstat_eta_min              =  -1.2317871957702E+00
(PID.TID 0000.0001) %MON dynstat_eta_mean             =   2.7656540930786E-18
(PID.TID 0000.0001) %MON dynstat_eta_sd               =   3.8754058988446E-01
(PID.TID 0000.0001) %MON dynstat_eta_del2             =   2.0336870449900E-02
(PID.TID 0000.0001) %MON dynstat_uvel_max             =   1.3279012050772E-01
(PID.TID 0000.0001) %MON dynstat_uvel_min             =  -9.6765900025406E-02
(PID.TID 0000.0001) %MON dynstat_uvel_mean            =  -9.4152169717194E-03
(PID.TID 0000.0001) %MON dynstat_uvel_sd              =   1.4985201561647E-02
(PID.TID 0000.0001) %MON dynstat_uvel_del2            =   2.6549905112087E-03
(PID.TID 0000.0001) %MON dynstat_vvel_max             =   1.0954774780068E-01
(PID.TID 0000.0001) %MON dynstat_vvel_min             =  -1.0859551996813E-01
(PID.TID 0000.0001) %MON dynstat_vvel_mean            =   3.5909967571453E-03
(PID.TID 0000.0001) %MON dynstat_vvel_sd              =   1.4296032107754E-02
(PID.TID 0000.0001) %MON dynstat_vvel_del2            =   3.1949784010102E-03
(PID.TID 0000.0001) %MON dynstat_wvel_max             =   2.7903795176792E-04
(PID.TID 0000.0001) %MON dynstat_wvel_min             =  -2.8680564318673E-04
(PID.TID 0000.0001) %MON dynstat_wvel_mean            =   2.1813329720876E-21
(PID.TID 0000.0001) %MON dynstat_wvel_sd              =   3.3665981535976E-05
(PID.TID 0000.0001) %MON dynstat_wvel_del2            =   1.1296130870676E-05
(PID.TID 0000.0001) %MON dynstat_theta_max            =   2.9460574162397E+01
(PID.TID 0000.0001) %MON dynstat_theta_min            =  -1.8995705101271E+00
(PID.TID 0000.0001) %MON dynstat_theta_mean           =   3.4495805235211E+00
(PID.TID 0000.0001) %MON dynstat_theta_sd             =   4.1891569080382E+00
(PID.TID 0000.0001) %MON dynstat_theta_del2           =   1.4264185321074E-01
(PID.TID 0000.0001) %MON dynstat_salt_max             =   3.7403467911096E+01
(PID.TID 0000.0001) %MON dynstat_salt_min             =   3.1272659619683E+01
(PID.TID 0000.0001) %MON dynstat_salt_mean            =   3.4717671313647E+01
(PID.TID 0000.0001) %MON dynstat_salt_sd              =   2.8132801790079E-01
(PID.TID 0000.0001) %MON dynstat_salt_del2            =   2.4409777861624E-02
(PID.TID 0000.0001) %MON advcfl_uvel_max              =   2.0952253593191E-02
(PID.TID 0000.0001) %MON advcfl_vvel_max              =   1.0641685231514E-02
(PID.TID 0000.0001) %MON advcfl_wvel_max              =   1.8376045900799E-01
(PID.TID 0000.0001) %MON advcfl_W_hf_max              =   1.7469609020879E-01
(PID.TID 0000.0001) %MON ke_max                       =   8.8184128635444E-03
(PID.TID 0000.0001) %MON ke_mean                      =   3.5371610574171E-04
(PID.TID 0000.0001) %MON ke_volint                    =   3.5392056466396E+14
(PID.TID 0000.0001) %MON ke_volmean                   =   2.4413216108483E-04
(PID.TID 0000.0001) // =======================================================
(PID.TID 0000.0001) // End MONITOR dynamic field statistics
(PID.TID 0000.0001) // =======================================================
time,SST,SSS,fu,fv,Q,E-P,i0,i1,a,b =   6.0480E+05  0.0000E+00  0.0000E+00  0.0000E+00  0.0000E+00  1.3008E-01  0.0000E+00    12     1  7.3333E-01  2.6667E-01
time,fu0,fu1,fu =   6.0480E+05  0.0000E+00  0.0000E+00  0.0000E+00  7.3333E-01  2.6667E-01
 cg2d: Sum(rhs),rhsMax =  -1.95676808090184E-14  1.11323024411939E+01
(PID.TID 0000.0001)                    cg2d_init_res =    9.17198702164906E-01
(PID.TID 0000.0001)                       cg2d_iters =    28
(PID.TID 0000.0001)                         cg2d_res =    6.51453702250701E-18
(PID.TID 0000.0001) // =======================================================
(PID.TID 0000.0001) // Begin MONITOR dynamic field statistics
(PID.TID 0000.0001) // =======================================================
(PID.TID 0000.0001) %MON time_tsnumber                =                    15
(PID.TID 0000.0001) %MON time_secondsf                =   6.4800000000000E+05
(PID.TID 0000.0001) %MON time_secondsi                =                648000
(PID.TID 0000.0001) %MON dynstat_eta_max              =   1.1759211413637E+00
(PID.TID 0000.0001) %MON dynstat_eta_min              =  -1.2185890137441E+00
(PID.TID 0000.0001) %MON dynstat_eta_mean             =  -2.1250840814509E-16
(PID.TID 0000.0001) %MON dynstat_eta_sd               =   3.9626732512204E-01
(PID.TID 0000.0001) %MON dynstat_eta_del2             =   1.9872440546136E-02
(PID.TID 0000.0001) %MON dynstat_uvel_max             =   1.4156484702372E-01
(PID.TID 0000.0001) %MON dynstat_uvel_min             =  -1.0043354805250E-01
(PID.TID 0000.0001) %MON dynstat_uvel_mean            =  -9.5146406589366E-03
(PID.TID 0000.0001) %MON dynstat_uvel_sd              =   1.5729064367073E-02
(PID.TID 0000.0001) %MON dynstat_uvel_del2            =   2.7253628278486E-03
(PID.TID 0000.0001) %MON dynstat_vvel_max             =   1.1026031814380E-01
(PID.TID 0000.0001) %MON dynstat_vvel_min             =  -1.1141342566979E-01
(PID.TID 0000.0001) %MON dynstat_vvel_mean            =   3.2943055888461E-03
(PID.TID 0000.0001) %MON dynstat_vvel_sd              =   1.4066878146605E-02
(PID.TID 0000.0001) %MON dynstat_vvel_del2            =   3.2001400738862E-03
(PID.TID 0000.0001) %MON dynstat_wvel_max             =   2.9409076473567E-04
(PID.TID 0000.0001) %MON dynstat_wvel_min             =  -2.9657638053006E-04
(PID.TID 0000.0001) %MON dynstat_wvel_mean            =   2.2776549086271E-22
(PID.TID 0000.0001) %MON dynstat_wvel_sd              =   3.2843788559843E-05
(PID.TID 0000.0001) %MON dynstat_wvel_del2            =   1.0996742468236E-05
(PID.TID 0000.0001) %MON dynstat_theta_max            =   2.9427713934390E+01
(PID.TID 0000.0001) %MON dynstat_theta_min            =  -1.8995649619222E+00
(PID.TID 0000.0001) %MON dynstat_theta_mean           =   3.4485293293773E+00
(PID.TID 0000.0001) %MON dynstat_theta_sd             =   4.1854494239686E+00
(PID.TID 0000.0001) %MON dynstat_theta_del2           =   1.4216128645277E-01
(PID.TID 0000.0001) %MON dynstat_salt_max             =   3.7403907082915E+01
(PID.TID 0000.0001) %MON dynstat_salt_min             =   3.1260043748695E+01
(PID.TID 0000.0001) %MON dynstat_salt_mean            =   3.4717614858394E+01
(PID.TID 0000.0001) %MON dynstat_salt_sd              =   2.8130420988468E-01
(PID.TID 0000.0001) %MON dynstat_salt_del2            =   2.4389213714117E-02
(PID.TID 0000.0001) %MON advcfl_uvel_max              =   2.1898379462511E-02
(PID.TID 0000.0001) %MON advcfl_vvel_max              =   1.0822920875559E-02
(PID.TID 0000.0001) %MON advcfl_wvel_max              =   1.6379937177621E-01
(PID.TID 0000.0001) %MON advcfl_W_hf_max              =   1.5393441184478E-01
(PID.TID 0000.0001) %MON ke_max                       =   1.0042693413634E-02
(PID.TID 0000.0001) %MON ke_mean                      =   3.7836988742424E-04
(PID.TID 0000.0001) %MON ke_volint                    =   3.6487304173870E+14
(PID.TID 0000.0001) %MON ke_volmean                   =   2.5168711031483E-04
(PID.TID 0000.0001) // =======================================================
(PID.TID 0000.0001) // End MONITOR dynamic field statistics
(PID.TID 0000.0001) // =======================================================
time,SST,SSS,fu,fv,Q,E-P,i0,i1,a,b =   6.4800E+05  0.0000E+00  0.0000E+00  0.0000E+00  0.0000E+00  1.2195E-01  0.0000E+00    12     1  7.5000E-01  2.5000E-01
time,fu0,fu1,fu =   6.4800E+05  0.0000E+00  0.0000E+00  0.0000E+00  7.5000E-01  2.5000E-01
 cg2d: Sum(rhs),rhsMax =  -4.21399026784286E-14  1.08400091633224E+01
(PID.TID 0000.0001)                    cg2d_init_res =    9.41553650425032E-01
(PID.TID 0000.0001)                       cg2d_iters =    28
(PID.TID 0000.0001)                         cg2d_res =    8.23302893348717E-18
(PID.TID 0000.0001) // =======================================================
(PID.TID 0000.0001) // Begin MONITOR dynamic field statistics
(PID.TID 0000.0001) // =======================================================
(PID.TID 0000.0001) %MON time_tsnumber                =                    16
(PID.TID 0000.0001) %MON time_secondsf                =   6.9120000000000E+05
(PID.TID 0000.0001) %MON time_secondsi                =                691200
(PID.TID 0000.0001) %MON dynstat_eta_max              =   1.1478165717929E+00
(PID.TID 0000.0001) %MON dynstat_eta_min              =  -1.1859377783395E+00
(PID.TID 0000.0001) %MON dynstat_eta_mean             =   3.7128322153510E-18
(PID.TID 0000.0001) %MON dynstat_eta_sd               =   4.0182779362273E-01
(PID.TID 0000.0001) %MON dynstat_eta_del2             =   1.9362893194183E-02
(PID.TID 0000.0001) %MON dynstat_uvel_max             =   1.5068608396586E-01
(PID.TID 0000.0001) %MON dynstat_uvel_min             =  -1.0307361617266E-01
(PID.TID 0000.0001) %MON dynstat_uvel_mean            =  -9.4739424712698E-03
(PID.TID 0000.0001) %MON dynstat_uvel_sd              =   1.6381192476590E-02
(PID.TID 0000.0001) %MON dynstat_uvel_del2            =   2.7868735302285E-03
(PID.TID 0000.0001) %MON dynstat_vvel_max             =   1.1061516056946E-01
(PID.TID 0000.0001) %MON dynstat_vvel_min             =  -1.1368372307106E-01
(PID.TID 0000.0001) %MON dynstat_vvel_mean            =   3.0177187222750E-03
(PID.TID 0000.0001) %MON dynstat_vvel_sd              =   1.3874054345146E-02
(PID.TID 0000.0001) %MON dynstat_vvel_del2            =   3.1834526442907E-03
(PID.TID 0000.0001) %MON dynstat_wvel_max             =   3.0893622144085E-04
(PID.TID 0000.0001) %MON dynstat_wvel_min             =  -3.0148441869751E-04
(PID.TID 0000.0001) %MON dynstat_wvel_mean            =  -5.6574106269889E-22
(PID.TID 0000.0001) %MON dynstat_wvel_sd              =   3.2026835897336E-05
(PID.TID 0000.0001) %MON dynstat_wvel_del2            =   1.0617236461238E-05
(PID.TID 0000.0001) %MON dynstat_theta_max            =   2.9387261483987E+01
(PID.TID 0000.0001) %MON dynstat_theta_min            =  -1.8995625084377E+00
(PID.TID 0000.0001) %MON dynstat_theta_mean           =   3.4476729724022E+00
(PID.TID 0000.0001) %MON dynstat_theta_sd             =   4.1821112883816E+00
(PID.TID 0000.0001) %MON dynstat_theta_del2           =   1.4172555666290E-01
(PID.TID 0000.0001) %MON dynstat_salt_max             =   3.7404252760171E+01
(PID.TID 0000.0001) %MON dynstat_salt_min             =   3.1254374071224E+01
(PID.TID 0000.0001) %MON dynstat_salt_mean            =   3.4717577711580E+01
(PID.TID 0000.0001) %MON dynstat_salt_sd              =   2.8127205002444E-01
(PID.TID 0000.0001) %MON dynstat_salt_del2            =   2.4373613625840E-02
(PID.TID 0000.0001) %MON advcfl_uvel_max              =   2.2646243943331E-02
(PID.TID 0000.0001) %MON advcfl_vvel_max              =   1.1043462062497E-02
(PID.TID 0000.0001) %MON advcfl_wvel_max              =   1.5011620780927E-01
(PID.TID 0000.0001) %MON advcfl_W_hf_max              =   1.4985789934996E-01
(PID.TID 0000.0001) %MON ke_max                       =   1.1252427336523E-02
(PID.TID 0000.0001) %MON ke_mean                      =   4.0153185344367E-04
(PID.TID 0000.0001) %MON ke_volint                    =   3.7369450280691E+14
(PID.TID 0000.0001) %MON ke_volmean                   =   2.5777209821756E-04
(PID.TID 0000.0001) // =======================================================
(PID.TID 0000.0001) // End MONITOR dynamic field statistics
(PID.TID 0000.0001) // =======================================================
time,SST,SSS,fu,fv,Q,E-P,i0,i1,a,b =   6.9120E+05  0.0000E+00  0.0000E+00  0.0000E+00  0.0000E+00  1.1382E-01  0.0000E+00    12     1  7.6667E-01  2.3333E-01
time,fu0,fu1,fu =   6.9120E+05  0.0000E+00  0.0000E+00  0.0000E+00  7.6667E-01  2.3333E-01
 cg2d: Sum(rhs),rhsMax =  -2.07528438878057E-13  1.07135620568320E+01
(PID.TID 0000.0001)                    cg2d_init_res =    9.61449783165068E-01
(PID.TID 0000.0001)                       cg2d_iters =    28
(PID.TID 0000.0001)                         cg2d_res =    6.51781511827222E-18
(PID.TID 0000.0001) // =======================================================
(PID.TID 0000.0001) // Begin MONITOR dynamic field statistics
(PID.TID 0000.0001) // =======================================================
(PID.TID 0000.0001) %MON time_tsnumber                =                    17
(PID.TID 0000.0001) %MON time_secondsf                =   7.3440000000000E+05
(PID.TID 0000.0001) %MON time_secondsi                =                734400
(PID.TID 0000.0001) %MON dynstat_eta_max              =   1.0968703151849E+00
(PID.TID 0000.0001) %MON dynstat_eta_min              =  -1.1695655850741E+00
(PID.TID 0000.0001) %MON dynstat_eta_mean             =  -9.4156955791560E-17
(PID.TID 0000.0001) %MON dynstat_eta_sd               =   4.0466774053161E-01
(PID.TID 0000.0001) %MON dynstat_eta_del2             =   1.8880302011983E-02
(PID.TID 0000.0001) %MON dynstat_uvel_max             =   1.5904681729854E-01
(PID.TID 0000.0001) %MON dynstat_uvel_min             =  -1.0465205635190E-01
(PID.TID 0000.0001) %MON dynstat_uvel_mean            =  -9.3025625707950E-03
(PID.TID 0000.0001) %MON dynstat_uvel_sd              =   1.6944954356844E-02
(PID.TID 0000.0001) %MON dynstat_uvel_del2            =   2.8410194638986E-03
(PID.TID 0000.0001) %MON dynstat_vvel_max             =   1.0990155360203E-01
(PID.TID 0000.0001) %MON dynstat_vvel_min             =  -1.1439794581167E-01
(PID.TID 0000.0001) %MON dynstat_vvel_mean            =   2.7741107890801E-03
(PID.TID 0000.0001) %MON dynstat_vvel_sd              =   1.3715233345250E-02
(PID.TID 0000.0001) %MON dynstat_vvel_del2            =   3.1501069749563E-03
(PID.TID 0000.0001) %MON dynstat_wvel_max             =   3.2336629481744E-04
(PID.TID 0000.0001) %MON dynstat_wvel_min             =  -3.0144216151934E-04
(PID.TID 0000.0001) %MON dynstat_wvel_mean            =  -1.1531279714290E-21
(PID.TID 0000.0001) %MON dynstat_wvel_sd              =   3.1247100558389E-05
(PID.TID 0000.0001) %MON dynstat_wvel_del2            =   1.0179016350837E-05
(PID.TID 0000.0001) %MON dynstat_theta_max            =   2.9341106906470E+01
(PID.TID 0000.0001) %MON dynstat_theta_min            =  -1.8995627291150E+00
(PID.TID 0000.0001) %MON dynstat_theta_mean           =   3.4470089916817E+00
(PID.TID 0000.0001) %MON dynstat_theta_sd             =   4.1791874964875E+00
(PID.TID 0000.0001) %MON dynstat_theta_del2           =   1.4134629521388E-01
(PID.TID 0000.0001) %MON dynstat_salt_max             =   3.7404482595076E+01
(PID.TID 0000.0001) %MON dynstat_salt_min             =   3.1257220333537E+01
(PID.TID 0000.0001) %MON dynstat_salt_mean            =   3.4717558838832E+01
(PID.TID 0000.0001) %MON dynstat_salt_sd              =   2.8123445406671E-01
(PID.TID 0000.0001) %MON dynstat_salt_del2            =   2.4362729050113E-02
(PID.TID 0000.0001) %MON advcfl_uvel_max              =   2.3175126254880E-02
(PID.TID 0000.0001) %MON advcfl_vvel_max              =   1.1112843074369E-02
(PID.TID 0000.0001) %MON advcfl_wvel_max              =   1.7432216450904E-01
(PID.TID 0000.0001) %MON advcfl_W_hf_max              =   1.7398934895989E-01
(PID.TID 0000.0001) %MON ke_max                       =   1.2417548704127E-02
(PID.TID 0000.0001) %MON ke_mean                      =   4.2277344450384E-04
(PID.TID 0000.0001) %MON ke_volint                    =   3.8031648558344E+14
(PID.TID 0000.0001) %MON ke_volmean                   =   2.6233989994289E-04
(PID.TID 0000.0001) // =======================================================
(PID.TID 0000.0001) // End MONITOR dynamic field statistics
(PID.TID 0000.0001) // =======================================================
time,SST,SSS,fu,fv,Q,E-P,i0,i1,a,b =   7.3440E+05  0.0000E+00  0.0000E+00  0.0000E+00  0.0000E+00  1.0569E-01  0.0000E+00    12     1  7.8333E-01  2.1667E-01
time,fu0,fu1,fu =   7.3440E+05  0.0000E+00  0.0000E+00  0.0000E+00  7.8333E-01  2.1667E-01
 cg2d: Sum(rhs),rhsMax =  -1.17739151761498E-13  1.06869616052060E+01
(PID.TID 0000.0001)                    cg2d_init_res =    9.72230039010449E-01
(PID.TID 0000.0001)                       cg2d_iters =    28
(PID.TID 0000.0001)                         cg2d_res =    8.37383879452780E-18
(PID.TID 0000.0001) // =======================================================
(PID.TID 0000.0001) // Begin MONITOR dynamic field statistics
(PID.TID 0000.0001) // =======================================================
(PID.TID 0000.0001) %MON time_tsnumber                =                    18
(PID.TID 0000.0001) %MON time_secondsf                =   7.7760000000000E+05
(PID.TID 0000.0001) %MON time_secondsi                =                777600
(PID.TID 0000.0001) %MON dynstat_eta_max              =   1.0754244732015E+00
(PID.TID 0000.0001) %MON dynstat_eta_min              =  -1.1606046736564E+00
(PID.TID 0000.0001) %MON dynstat_eta_mean             =   2.5771636654547E-17
(PID.TID 0000.0001) %MON dynstat_eta_sd               =   4.0527436412262E-01
(PID.TID 0000.0001) %MON dynstat_eta_del2             =   1.8443877212951E-02
(PID.TID 0000.0001) %MON dynstat_uvel_max             =   1.6644501128689E-01
(PID.TID 0000.0001) %MON dynstat_uvel_min             =  -1.0516999962084E-01
(PID.TID 0000.0001) %MON dynstat_uvel_mean            =  -9.0134239499884E-03
(PID.TID 0000.0001) %MON dynstat_uvel_sd              =   1.7423626927277E-02
(PID.TID 0000.0001) %MON dynstat_uvel_del2            =   2.8926347709436E-03
(PID.TID 0000.0001) %MON dynstat_vvel_max             =   1.0790116966203E-01
(PID.TID 0000.0001) %MON dynstat_vvel_min             =  -1.1350891448392E-01
(PID.TID 0000.0001) %MON dynstat_vvel_mean            =   2.5732164685976E-03
(PID.TID 0000.0001) %MON dynstat_vvel_sd              =   1.3581039202240E-02
(PID.TID 0000.0001) %MON dynstat_vvel_del2            =   3.1016304881320E-03
(PID.TID 0000.0001) %MON dynstat_wvel_max             =   3.3704133915383E-04
(PID.TID 0000.0001) %MON dynstat_wvel_min             =  -3.0651294594531E-04
(PID.TID 0000.0001) %MON dynstat_wvel_mean            =   1.7477426045730E-22
(PID.TID 0000.0001) %MON dynstat_wvel_sd              =   3.0520237041577E-05
(PID.TID 0000.0001) %MON dynstat_wvel_del2            =   9.7021462769208E-06
(PID.TID 0000.0001) %MON dynstat_theta_max            =   2.9291621929651E+01
(PID.TID 0000.0001) %MON dynstat_theta_min            =  -1.8995649578780E+00
(PID.TID 0000.0001) %MON dynstat_theta_mean           =   3.4465299853196E+00
(PID.TID 0000.0001) %MON dynstat_theta_sd             =   4.1767132604740E+00
(PID.TID 0000.0001) %MON dynstat_theta_del2           =   1.4099634818904E-01
(PID.TID 0000.0001) %MON dynstat_salt_max             =   3.7404586784647E+01
(PID.TID 0000.0001) %MON dynstat_salt_min             =   3.1270315254019E+01
(PID.TID 0000.0001) %MON dynstat_salt_mean            =   3.4717556715077E+01
(PID.TID 0000.0001) %MON dynstat_salt_sd              =   2.8119446634826E-01
(PID.TID 0000.0001) %MON dynstat_salt_del2            =   2.4355371665637E-02
(PID.TID 0000.0001) %MON advcfl_uvel_max              =   2.3466238550216E-02
(PID.TID 0000.0001) %MON advcfl_vvel_max              =   1.1026480810053E-02
(PID.TID 0000.0001) %MON advcfl_wvel_max              =   1.8783676432008E-01
(PID.TID 0000.0001) %MON advcfl_W_hf_max              =   1.8900187564272E-01
(PID.TID 0000.0001) %MON ke_max                       =   1.3511541753008E-02
(PID.TID 0000.0001) %MON ke_mean                      =   4.4171451953990E-04
(PID.TID 0000.0001) %MON ke_volint                    =   3.8467277965516E+14
(PID.TID 0000.0001) %MON ke_volmean                   =   2.6534484396772E-04
(PID.TID 0000.0001) // =======================================================
(PID.TID 0000.0001) // End MONITOR dynamic field statistics
(PID.TID 0000.0001) // =======================================================
time,SST,SSS,fu,fv,Q,E-P,i0,i1,a,b =   7.7760E+05  0.0000E+00  0.0000E+00  0.0000E+00  0.0000E+00  9.7557E-02  0.0000E+00    12     1  8.0000E-01  2.0000E-01
time,fu0,fu1,fu =   7.7760E+05  0.0000E+00  0.0000E+00  0.0000E+00  8.0000E-01  2.0000E-01
 cg2d: Sum(rhs),rhsMax =  -1.34586786160185E-13  1.04540646220787E+01
(PID.TID 0000.0001)                    cg2d_init_res =    9.94996064836588E-01
(PID.TID 0000.0001)                       cg2d_iters =    28
(PID.TID 0000.0001)                         cg2d_res =    8.70839129825442E-18
(PID.TID 0000.0001) // =======================================================
(PID.TID 0000.0001) // Begin MONITOR dynamic field statistics
(PID.TID 0000.0001) // =======================================================
(PID.TID 0000.0001) %MON time_tsnumber                =                    19
(PID.TID 0000.0001) %MON time_secondsf                =   8.2080000000000E+05
(PID.TID 0000.0001) %MON time_secondsi                =                820800
(PID.TID 0000.0001) %MON dynstat_eta_max              =   1.0502787200974E+00
(PID.TID 0000.0001) %MON dynstat_eta_min              =  -1.1478200591630E+00
(PID.TID 0000.0001) %MON dynstat_eta_mean             =  -7.0213886202458E-19
(PID.TID 0000.0001) %MON dynstat_eta_sd               =   4.0412368700011E-01
(PID.TID 0000.0001) %MON dynstat_eta_del2             =   1.8052621276379E-02
(PID.TID 0000.0001) %MON dynstat_uvel_max             =   1.7268531273923E-01
(PID.TID 0000.0001) %MON dynstat_uvel_min             =  -1.0535412954915E-01
(PID.TID 0000.0001) %MON dynstat_uvel_mean            =  -8.6220466756323E-03
(PID.TID 0000.0001) %MON dynstat_uvel_sd              =   1.7819756991432E-02
(PID.TID 0000.0001) %MON dynstat_uvel_del2            =   2.9451057833502E-03
(PID.TID 0000.0001) %MON dynstat_vvel_max             =   1.0563081866728E-01
(PID.TID 0000.0001) %MON dynstat_vvel_min             =  -1.1099666151459E-01
(PID.TID 0000.0001) %MON dynstat_vvel_mean            =   2.4217623254875E-03
(PID.TID 0000.0001) %MON dynstat_vvel_sd              =   1.3461513606162E-02
(PID.TID 0000.0001) %MON dynstat_vvel_del2            =   3.0453489110140E-03
(PID.TID 0000.0001) %MON dynstat_wvel_max             =   3.4960439017062E-04
(PID.TID 0000.0001) %MON dynstat_wvel_min             =  -3.1589549832254E-04
(PID.TID 0000.0001) %MON dynstat_wvel_mean            =   1.0987854787054E-21
(PID.TID 0000.0001) %MON dynstat_wvel_sd              =   2.9856967325084E-05
(PID.TID 0000.0001) %MON dynstat_wvel_del2            =   9.2193119049947E-06
(PID.TID 0000.0001) %MON dynstat_theta_max            =   2.9258144279364E+01
(PID.TID 0000.0001) %MON dynstat_theta_min            =  -1.8995685540711E+00
(PID.TID 0000.0001) %MON dynstat_theta_mean           =   3.4462238483076E+00
(PID.TID 0000.0001) %MON dynstat_theta_sd             =   4.1747118964972E+00
(PID.TID 0000.0001) %MON dynstat_theta_del2           =   1.4068716125663E-01
(PID.TID 0000.0001) %MON dynstat_salt_max             =   3.7404564990684E+01
(PID.TID 0000.0001) %MON dynstat_salt_min             =   3.1294952740159E+01
(PID.TID 0000.0001) %MON dynstat_salt_mean            =   3.4717569395739E+01
(PID.TID 0000.0001) %MON dynstat_salt_sd              =   2.8115521479046E-01
(PID.TID 0000.0001) %MON dynstat_salt_del2            =   2.4351082342321E-02
(PID.TID 0000.0001) %MON advcfl_uvel_max              =   2.3617475145674E-02
(PID.TID 0000.0001) %MON advcfl_vvel_max              =   1.0782435579929E-02
(PID.TID 0000.0001) %MON advcfl_wvel_max              =   1.8924235668304E-01
(PID.TID 0000.0001) %MON advcfl_W_hf_max              =   1.9199731431997E-01
(PID.TID 0000.0001) %MON ke_max                       =   1.4512316659398E-02
(PID.TID 0000.0001) %MON ke_mean                      =   4.5809362238056E-04
(PID.TID 0000.0001) %MON ke_volint                    =   3.8677391286747E+14
(PID.TID 0000.0001) %MON ke_volmean                   =   2.6679419233303E-04
(PID.TID 0000.0001) // =======================================================
(PID.TID 0000.0001) // End MONITOR dynamic field statistics
(PID.TID 0000.0001) // =======================================================
time,SST,SSS,fu,fv,Q,E-P,i0,i1,a,b =   8.2080E+05  0.0000E+00  0.0000E+00  0.0000E+00  0.0000E+00  8.9427E-02  0.0000E+00    12     1  8.1667E-01  1.8333E-01
time,fu0,fu1,fu =   8.2080E+05  0.0000E+00  0.0000E+00  0.0000E+00  8.1667E-01  1.8333E-01
 cg2d: Sum(rhs),rhsMax =   1.32865940472016E-13  9.92028426383747E+00
(PID.TID 0000.0001)                    cg2d_init_res =    1.03872280455578E+00
(PID.TID 0000.0001)                       cg2d_iters =    28
(PID.TID 0000.0001)                         cg2d_res =    9.59659168446464E-18
(PID.TID 0000.0001) // =======================================================
(PID.TID 0000.0001) // Begin MONITOR dynamic field statistics
(PID.TID 0000.0001) // =======================================================
(PID.TID 0000.0001) %MON time_tsnumber                =                    20
(PID.TID 0000.0001) %MON time_secondsf                =   8.6400000000000E+05
(PID.TID 0000.0001) %MON time_secondsi                =                864000
(PID.TID 0000.0001) %MON dynstat_eta_max              =   9.9623494240509E-01
(PID.TID 0000.0001) %MON dynstat_eta_min              =  -1.1195172384236E+00
(PID.TID 0000.0001) %MON dynstat_eta_mean             =  -1.9113547325207E-16
(PID.TID 0000.0001) %MON dynstat_eta_sd               =   4.0164609154567E-01
(PID.TID 0000.0001) %MON dynstat_eta_del2             =   1.7719300253643E-02
(PID.TID 0000.0001) %MON dynstat_uvel_max             =   1.7758436386004E-01
(PID.TID 0000.0001) %MON dynstat_uvel_min             =  -1.0544020854511E-01
(PID.TID 0000.0001) %MON dynstat_uvel_mean            =  -8.1456954937961E-03
(PID.TID 0000.0001) %MON dynstat_uvel_sd              =   1.8134784323415E-02
(PID.TID 0000.0001) %MON dynstat_uvel_del2            =   2.9978379888648E-03
(PID.TID 0000.0001) %MON dynstat_vvel_max             =   1.1030930337646E-01
(PID.TID 0000.0001) %MON dynstat_vvel_min             =  -1.1282777322361E-01
(PID.TID 0000.0001) %MON dynstat_vvel_mean            =   2.3236069728044E-03
(PID.TID 0000.0001) %MON dynstat_vvel_sd              =   1.3350940248101E-02
(PID.TID 0000.0001) %MON dynstat_vvel_del2            =   2.9873715772252E-03
(PID.TID 0000.0001) %MON dynstat_wvel_max             =   3.6072886673750E-04
(PID.TID 0000.0001) %MON dynstat_wvel_min             =  -3.2423312562878E-04
(PID.TID 0000.0001) %MON dynstat_wvel_mean            =  -6.8973149929838E-22
(PID.TID 0000.0001) %MON dynstat_wvel_sd              =   2.9272347614947E-05
(PID.TID 0000.0001) %MON dynstat_wvel_del2            =   8.7742636346117E-06
(PID.TID 0000.0001) %MON dynstat_theta_max            =   2.9242273388261E+01
(PID.TID 0000.0001) %MON dynstat_theta_min            =  -1.8995730260775E+00
(PID.TID 0000.0001) %MON dynstat_theta_mean           =   3.4460741112775E+00
(PID.TID 0000.0001) %MON dynstat_theta_sd             =   4.1731921078702E+00
(PID.TID 0000.0001) %MON dynstat_theta_del2           =   1.4042210822861E-01
(PID.TID 0000.0001) %MON dynstat_salt_max             =   3.7404423392537E+01
(PID.TID 0000.0001) %MON dynstat_salt_min             =   3.1331392873903E+01
(PID.TID 0000.0001) %MON dynstat_salt_mean            =   3.4717594547679E+01
(PID.TID 0000.0001) %MON dynstat_salt_sd              =   2.8111941408236E-01
(PID.TID 0000.0001) %MON dynstat_salt_del2            =   2.4349291781478E-02
(PID.TID 0000.0001) %MON advcfl_uvel_max              =   2.4150637480256E-02
(PID.TID 0000.0001) %MON advcfl_vvel_max              =   1.0960313398709E-02
(PID.TID 0000.0001) %MON advcfl_wvel_max              =   1.8072700299104E-01
(PID.TID 0000.0001) %MON advcfl_W_hf_max              =   1.8394863454907E-01
(PID.TID 0000.0001) %MON ke_max                       =   1.5402408126745E-02
(PID.TID 0000.0001) %MON ke_mean                      =   4.7179740294552E-04
(PID.TID 0000.0001) %MON ke_volint                    =   3.8674725872506E+14
(PID.TID 0000.0001) %MON ke_volmean                   =   2.6677580647463E-04
(PID.TID 0000.0001) // =======================================================
(PID.TID 0000.0001) // End MONITOR dynamic field statistics
(PID.TID 0000.0001) // =======================================================
(PID.TID 0000.0001)   Seconds in section "ALL                [THE_MODEL_MAIN]":
(PID.TID 0000.0001)           User time:  32.6900008
(PID.TID 0000.0001)         System time:  0.310000002
(PID.TID 0000.0001)     Wall clock time:  33.27748
(PID.TID 0000.0001)          No. starts: 1
(PID.TID 0000.0001)           No. stops: 1
(PID.TID 0000.0001)   Seconds in section "INITIALISE_FIXED   [THE_MODEL_MAIN]":
(PID.TID 0000.0001)           User time:  0.350000015
(PID.TID 0000.0001)         System time:  0.0399999991
(PID.TID 0000.0001)     Wall clock time:  0.403581023
(PID.TID 0000.0001)          No. starts: 1
(PID.TID 0000.0001)           No. stops: 1
(PID.TID 0000.0001)   Seconds in section "THE_MAIN_LOOP      [THE_MODEL_MAIN]":
(PID.TID 0000.0001)           User time:  31.7799994
(PID.TID 0000.0001)         System time:  0.219999991
(PID.TID 0000.0001)     Wall clock time:  32.2702121
(PID.TID 0000.0001)          No. starts: 1
(PID.TID 0000.0001)           No. stops: 1
(PID.TID 0000.0001)   Seconds in section "INITIALISE_VARIA    [THE_MAIN_LOOP]":
(PID.TID 0000.0001)           User time:  0.189999998
(PID.TID 0000.0001)         System time:  0.130000003
(PID.TID 0000.0001)     Wall clock time:  0.325699925
(PID.TID 0000.0001)          No. starts: 1
(PID.TID 0000.0001)           No. stops: 1
(PID.TID 0000.0001)   Seconds in section "WRITE_STATE         [THE_MAIN_LOOP]":
(PID.TID 0000.0001)           User time:  0.0799999833
(PID.TID 0000.0001)         System time:  0.0199999958
(PID.TID 0000.0001)     Wall clock time:  0.10008502
(PID.TID 0000.0001)          No. starts: 1
(PID.TID 0000.0001)           No. stops: 1
(PID.TID 0000.0001)   Seconds in section "MONITOR             [THE_MAIN_LOOP]":
(PID.TID 0000.0001)           User time:  0.149999976
(PID.TID 0000.0001)         System time:  0.
(PID.TID 0000.0001)     Wall clock time:  0.150393009
(PID.TID 0000.0001)          No. starts: 1
(PID.TID 0000.0001)           No. stops: 1
(PID.TID 0000.0001)   Seconds in section "MAIN LOOP           [THE_MAIN_LOOP]":
(PID.TID 0000.0001)           User time:  31.3599994
(PID.TID 0000.0001)         System time:  0.0699999928
(PID.TID 0000.0001)     Wall clock time:  31.693656
(PID.TID 0000.0001)          No. starts: 1
(PID.TID 0000.0001)           No. stops: 1
(PID.TID 0000.0001)   Seconds in section "FORWARD_STEP        [THE_MAIN_LOOP]":
(PID.TID 0000.0001)           User time:  31.3599994
(PID.TID 0000.0001)         System time:  0.0699999928
(PID.TID 0000.0001)     Wall clock time:  31.6921599
(PID.TID 0000.0001)          No. starts: 20
(PID.TID 0000.0001)           No. stops: 20
(PID.TID 0000.0001)   Seconds in section "EXTERNAL_FIELDS_LOAD[THE_MAIN_LOOP]":
(PID.TID 0000.0001)           User time:  0.0600000024
(PID.TID 0000.0001)         System time:  0.
(PID.TID 0000.0001)     Wall clock time:  0.0712558031
(PID.TID 0000.0001)          No. starts: 20
(PID.TID 0000.0001)           No. stops: 20
(PID.TID 0000.0001)   Seconds in section "THERMODYNAMICS      [THE_MAIN_LOOP]":
(PID.TID 0000.0001)STOP NORMAL END statement executed
           User time:  12.6600016
(PID.TID 0000.0001)         System time:  0.0400000066
(PID.TID 0000.0001)     Wall clock time:  12.7902021
(PID.TID 0000.0001)          No. starts: 20
(PID.TID 0000.0001)           No. stops: 20
(PID.TID 0000.0001)   Seconds in section "DYNAMICS            [THE_MAIN_LOOP]":
(PID.TID 0000.0001)           User time:  12.4600009
(PID.TID 0000.0001)         System time:  0.0299999863
(PID.TID 0000.0001)     Wall clock time:  12.5796652
(PID.TID 0000.0001)          No. starts: 20
(PID.TID 0000.0001)           No. stops: 20
(PID.TID 0000.0001)   Seconds in section "SOLVE_FOR_PRESSURE  [THE_MAIN_LOOP]":
(PID.TID 0000.0001)           User time:  1.54999757
(PID.TID 0000.0001)         System time:  0.
(PID.TID 0000.0001)     Wall clock time:  1.57234609
(PID.TID 0000.0001)          No. starts: 20
(PID.TID 0000.0001)           No. stops: 20
(PID.TID 0000.0001)   Seconds in section "THE_CORRECTION_STEP [THE_MAIN_LOOP]":
(PID.TID 0000.0001)           User time:  1.47999835
(PID.TID 0000.0001)         System time:  0.
(PID.TID 0000.0001)     Wall clock time:  1.46279395
(PID.TID 0000.0001)          No. starts: 20
(PID.TID 0000.0001)           No. stops: 20
(PID.TID 0000.0001)   Seconds in section "BLOCKING_EXCHANGES  [THE_MAIN_LOOP]":
(PID.TID 0000.0001)           User time:  0.200003624
(PID.TID 0000.0001)         System time:  0.
(PID.TID 0000.0001)     Wall clock time:  0.205495
(PID.TID 0000.0001)          No. starts: 20
(PID.TID 0000.0001)           No. stops: 20
(PID.TID 0000.0001)   Seconds in section "DO_THE_MODEL_IO     [THE_MAIN_LOOP]":
(PID.TID 0000.0001)           User time:  0.109998465
(PID.TID 0000.0001)         System time:  0.
(PID.TID 0000.0001)     Wall clock time:  0.102146745
(PID.TID 0000.0001)          No. starts: 20
(PID.TID 0000.0001)           No. stops: 20
(PID.TID 0000.0001)   Seconds in section "WRITE_CHECKPOINT    [THE_MAIN_LOOP]":
(PID.TID 0000.0001)           User time:  0.
(PID.TID 0000.0001)         System time:  0.
(PID.TID 0000.0001)     Wall clock time:  0.00144600868
(PID.TID 0000.0001)          No. starts: 20
(PID.TID 0000.0001)           No. stops: 20
(PID.TID 0000.0001)   Seconds in section "WRITE_CHECKPOINT   [THE_MODEL_MAIN]":
(PID.TID 0000.0001)           User time:  0.560001373
(PID.TID 0000.0001)         System time:  0.0500000119
(PID.TID 0000.0001)     Wall clock time:  0.603317976
(PID.TID 0000.0001)          No. starts: 1
(PID.TID 0000.0001)           No. stops: 1
(PID.TID 0000.0001) // ======================================================
(PID.TID 0000.0001) // Tile <-> Tile communication statistics
(PID.TID 0000.0001) // ======================================================
(PID.TID 0000.0001) // o Tile number: 000001
(PID.TID 0000.0001) //         No. X exchanges =              0
(PID.TID 0000.0001) //            Max. X spins =              0
(PID.TID 0000.0001) //            Min. X spins =     1000000000
(PID.TID 0000.0001) //          Total. X spins =              0
(PID.TID 0000.0001) //            Avg. X spins =       0.00E+00
(PID.TID 0000.0001) //         No. Y exchanges =              0
(PID.TID 0000.0001) //            Max. Y spins =              0
(PID.TID 0000.0001) //            Min. Y spins =     1000000000
(PID.TID 0000.0001) //          Total. Y spins =              0
(PID.TID 0000.0001) //            Avg. Y spins =       0.00E+00
(PID.TID 0000.0001) // o Thread number: 000001
(PID.TID 0000.0001) //            No. barriers =          12524
(PID.TID 0000.0001) //      Max. barrier spins =              1
(PID.TID 0000.0001) //      Min. barrier spins =              1
(PID.TID 0000.0001) //     Total barrier spins =          12524
(PID.TID 0000.0001) //      Avg. barrier spins =       1.00E+00
