(PID.TID 0000.0001) 
(PID.TID 0000.0001) // ======================================================
(PID.TID 0000.0001) //                      MITgcm UV
(PID.TID 0000.0001) //                      =========
(PID.TID 0000.0001) // ======================================================
(PID.TID 0000.0001) // execution environment starting up...
(PID.TID 0000.0001) 
(PID.TID 0000.0001) // MITgcmUV version:  checkpoint63b
(PID.TID 0000.0001) // Build user:        jmc
(PID.TID 0000.0001) // Build host:        baudelaire
(PID.TID 0000.0001) // Build date:        Mon Sep 26 01:21:55 EDT 2011
(PID.TID 0000.0001) 
(PID.TID 0000.0001) // =======================================================
(PID.TID 0000.0001) // Execution Environment parameter file "eedata"
(PID.TID 0000.0001) // =======================================================
(PID.TID 0000.0001) ># Example "eedata" file
(PID.TID 0000.0001) ># Lines beginning "#" are comments
(PID.TID 0000.0001) ># nTx - No. threads per process in X
(PID.TID 0000.0001) ># nTy - No. threads per process in Y
(PID.TID 0000.0001) > &EEPARMS
(PID.TID 0000.0001) > nTx=1,
(PID.TID 0000.0001) > nTy=1,
(PID.TID 0000.0001) > /
(PID.TID 0000.0001) ># Note: Some systems use / as the
(PID.TID 0000.0001) ># namelist terminator. Other systems
(PID.TID 0000.0001) ># use a & character (as shown here).
(PID.TID 0000.0001) 
(PID.TID 0000.0001) // =======================================================
(PID.TID 0000.0001) // Computational Grid Specification ( see files "SIZE.h" )
(PID.TID 0000.0001) //                                  ( and "eedata"       )
(PID.TID 0000.0001) // =======================================================
(PID.TID 0000.0001)      nPx =    1 ; /* No. processes in X */
(PID.TID 0000.0001)      nPy =    1 ; /* No. processes in Y */
(PID.TID 0000.0001)      nSx =    2 ; /* No. tiles in X per process */
(PID.TID 0000.0001)      nSy =    2 ; /* No. tiles in Y per process */
(PID.TID 0000.0001)      sNx =   45 ; /* Tile size in X */
(PID.TID 0000.0001)      sNy =   20 ; /* Tile size in Y */
(PID.TID 0000.0001)      OLx =    3 ; /* Tile overlap distance in X */
(PID.TID 0000.0001)      OLy =    3 ; /* Tile overlap distance in Y */
(PID.TID 0000.0001)      nTx =    1 ; /* No. threads in X per process */
(PID.TID 0000.0001)      nTy =    1 ; /* No. threads in Y per process */
(PID.TID 0000.0001)       Nr =   15 ; /* No. levels in the vertical   */
(PID.TID 0000.0001)       Nx =   90 ; /* Total domain size in X ( = nPx*nSx*sNx ) */
(PID.TID 0000.0001)       Ny =   40 ; /* Total domain size in Y ( = nPy*nSy*sNy ) */
(PID.TID 0000.0001)   nTiles =    4 ; /* Total no. tiles per process ( = nSx*nSy ) */
(PID.TID 0000.0001)   nProcs =    1 ; /* Total no. processes ( = nPx*nPy ) */
(PID.TID 0000.0001) nThreads =    1 ; /* Total no. threads per process ( = nTx*nTy ) */
(PID.TID 0000.0001) usingMPI =    F ; /* Flag used to control whether MPI is in use */
(PID.TID 0000.0001)                   /*  note: To execute a program with MPI calls */
(PID.TID 0000.0001)                   /*  it must be launched appropriately e.g     */
(PID.TID 0000.0001)                   /*  "mpirun -np 64 ......"                    */
(PID.TID 0000.0001) useCoupler=    F ;/* Flag used to control communications with   */
(PID.TID 0000.0001)                   /*  other model components, through a coupler */
(PID.TID 0000.0001) debugMode =    F ; /* print debug msg. (sequence of S/R calls)  */
(PID.TID 0000.0001) printMapIncludesZeros=    F ; /* print zeros in Std.Output maps */
(PID.TID 0000.0001) maxLengthPrt1D=   65 /* maxLength of 1D array printed to StdOut */
(PID.TID 0000.0001) 
(PID.TID 0000.0001) // ======================================================
(PID.TID 0000.0001) // Mapping of tiles to threads
(PID.TID 0000.0001) // ======================================================
(PID.TID 0000.0001) // -o- Thread   1, tiles (   1:   2,   1:   2)
(PID.TID 0000.0001) 
(PID.TID 0000.0001) // ======================================================
(PID.TID 0000.0001) // Tile <-> Tile connectvity table
(PID.TID 0000.0001) // ======================================================
(PID.TID 0000.0001) // Tile number: 000001 (process no. = 000001)
(PID.TID 0000.0001) //        WEST: Tile = 000002, Process = 000001, Comm = put
(PID.TID 0000.0001) //                bi = 000002, bj = 000001
(PID.TID 0000.0001) //        EAST: Tile = 000002, Process = 000001, Comm = put
(PID.TID 0000.0001) //                bi = 000002, bj = 000001
(PID.TID 0000.0001) //       SOUTH: Tile = 000003, Process = 000001, Comm = put
(PID.TID 0000.0001) //                bi = 000001, bj = 000002
(PID.TID 0000.0001) //       NORTH: Tile = 000003, Process = 000001, Comm = put
(PID.TID 0000.0001) //                bi = 000001, bj = 000002
(PID.TID 0000.0001) // Tile number: 000002 (process no. = 000001)
(PID.TID 0000.0001) //        WEST: Tile = 000001, Process = 000001, Comm = put
(PID.TID 0000.0001) //                bi = 000001, bj = 000001
(PID.TID 0000.0001) //        EAST: Tile = 000001, Process = 000001, Comm = put
(PID.TID 0000.0001) //                bi = 000001, bj = 000001
(PID.TID 0000.0001) //       SOUTH: Tile = 000004, Process = 000001, Comm = put
(PID.TID 0000.0001) //                bi = 000002, bj = 000002
(PID.TID 0000.0001) //       NORTH: Tile = 000004, Process = 000001, Comm = put
(PID.TID 0000.0001) //                bi = 000002, bj = 000002
(PID.TID 0000.0001) // Tile number: 000003 (process no. = 000001)
(PID.TID 0000.0001) //        WEST: Tile = 000004, Process = 000001, Comm = put
(PID.TID 0000.0001) //                bi = 000002, bj = 000002
(PID.TID 0000.0001) //        EAST: Tile = 000004, Process = 000001, Comm = put
(PID.TID 0000.0001) //                bi = 000002, bj = 000002
(PID.TID 0000.0001) //       SOUTH: Tile = 000001, Process = 000001, Comm = put
(PID.TID 0000.0001) //                bi = 000001, bj = 000001
(PID.TID 0000.0001) //       NORTH: Tile = 000001, Process = 000001, Comm = put
(PID.TID 0000.0001) //                bi = 000001, bj = 000001
(PID.TID 0000.0001) // Tile number: 000004 (process no. = 000001)
(PID.TID 0000.0001) //        WEST: Tile = 000003, Process = 000001, Comm = put
(PID.TID 0000.0001) //                bi = 000001, bj = 000002
(PID.TID 0000.0001) //        EAST: Tile = 000003, Process = 000001, Comm = put
(PID.TID 0000.0001) //                bi = 000001, bj = 000002
(PID.TID 0000.0001) //       SOUTH: Tile = 000002, Process = 000001, Comm = put
(PID.TID 0000.0001) //                bi = 000002, bj = 000001
(PID.TID 0000.0001) //       NORTH: Tile = 000002, Process = 000001, Comm = put
(PID.TID 0000.0001) //                bi = 000002, bj = 000001
(PID.TID 0000.0001) 
(PID.TID 0000.0001)  INI_PARMS: opening model parameter file "data"
(PID.TID 0000.0001)  OPEN_COPY_DATA_FILE: opening file data
(PID.TID 0000.0001) // =======================================================
(PID.TID 0000.0001) // Parameter file "data"
(PID.TID 0000.0001) // =======================================================
(PID.TID 0000.0001) ># ====================
(PID.TID 0000.0001) ># | Model parameters |
(PID.TID 0000.0001) ># ====================
(PID.TID 0000.0001) >#
(PID.TID 0000.0001) ># Continuous equation parameters
(PID.TID 0000.0001) > &PARM01
(PID.TID 0000.0001) > tRef = 15*20.,
(PID.TID 0000.0001) > sRef = 15*35.,
(PID.TID 0000.0001) > viscAr=1.E-3,
(PID.TID 0000.0001) > diffKhT=0.0,
(PID.TID 0000.0001) > diffKrT=3.E-5,
(PID.TID 0000.0001) > diffKhS=0.0,
(PID.TID 0000.0001) > diffKrS=3.E-5,
(PID.TID 0000.0001) >#ph(
(PID.TID 0000.0001) >#ph Many of the following params. are
(PID.TID 0000.0001) >#ph just for AD testing; not necesarily
(PID.TID 0000.0001) >#ph meaningful in a 4x4 deg. setting.
(PID.TID 0000.0001) > viscC4Leith=1.5,
(PID.TID 0000.0001) > viscC4Leithd=1.5,
(PID.TID 0000.0001) > viscA4GridMax=0.5,
(PID.TID 0000.0001) > useAreaViscLength=.TRUE.,
(PID.TID 0000.0001) > bottomDragQuadratic = 0.0021,
(PID.TID 0000.0001) > multiDimAdvection=.TRUE,
(PID.TID 0000.0001) > tempAdvScheme=33,
(PID.TID 0000.0001) > saltAdvScheme=33,
(PID.TID 0000.0001) > tempImplVertAdv=.FALSE.,
(PID.TID 0000.0001) > saltImplVertAdv=.FALSE.,
(PID.TID 0000.0001) > hFacInf=0.2,
(PID.TID 0000.0001) > hFacSup=2.0,
(PID.TID 0000.0001) > nonlinFreeSurf=2,
(PID.TID 0000.0001) > staggerTimeStep=.TRUE.,
(PID.TID 0000.0001) > inAdExact=.TRUE.,
(PID.TID 0000.0001) >#ph)
(PID.TID 0000.0001) > rhonil=1035.,
(PID.TID 0000.0001) > rotationPeriod=86400.,
(PID.TID 0000.0001) > gravity=9.81,
(PID.TID 0000.0001) > eosType = 'JMD95Z',
(PID.TID 0000.0001) > ivdc_kappa=100.,
(PID.TID 0000.0001) > implicitDiffusion=.TRUE.,
(PID.TID 0000.0001) > allowFreezing=.TRUE.,
(PID.TID 0000.0001) > useRealFreshWaterFlux=.TRUE.,
(PID.TID 0000.0001) > useCDscheme=.TRUE.,
(PID.TID 0000.0001) > exactConserv=.TRUE.
(PID.TID 0000.0001) ># turn on looped cells
(PID.TID 0000.0001) > hFacMin=.05,
(PID.TID 0000.0001) > hFacMindr=50.,
(PID.TID 0000.0001) ># set precision of data files
(PID.TID 0000.0001) > readBinaryPrec=32,
(PID.TID 0000.0001) > debugLevel=1,
(PID.TID 0000.0001) >#ph(
(PID.TID 0000.0001) > vectorInvariantMomentum=.TRUE.,
(PID.TID 0000.0001) > hFacInf=0.2,
(PID.TID 0000.0001) > hFacSup=2.0,
(PID.TID 0000.0001) > nonlinFreeSurf=2,
(PID.TID 0000.0001) > exactConserv=.TRUE.
(PID.TID 0000.0001) > useRealFreshWaterFlux=.TRUE.,
(PID.TID 0000.0001) > staggerTimeStep=.TRUE.,
(PID.TID 0000.0001) > multiDimAdvection=.TRUE,
(PID.TID 0000.0001) > tempAdvScheme=30,
(PID.TID 0000.0001) > saltAdvScheme=30,
(PID.TID 0000.0001) > tempImplVertAdv=.FALSE.,
(PID.TID 0000.0001) > saltImplVertAdv=.FALSE.,
(PID.TID 0000.0001) > inAdExact=.TRUE.,
(PID.TID 0000.0001) >#ph)
(PID.TID 0000.0001) > /
(PID.TID 0000.0001) >
(PID.TID 0000.0001) ># Elliptic solver parameters
(PID.TID 0000.0001) > &PARM02
(PID.TID 0000.0001) > cg2dMaxIters=500,
(PID.TID 0000.0001) > cg2dTargetResidual=1.E-13,
(PID.TID 0000.0001) > /
(PID.TID 0000.0001) >
(PID.TID 0000.0001) ># Time stepping parameters
(PID.TID 0000.0001) > &PARM03
(PID.TID 0000.0001) > nIter0 =      0,
(PID.TID 0000.0001) > nTimeSteps = 10,
(PID.TID 0000.0001) ># 100 years of integration will yield a reasonable flow field
(PID.TID 0000.0001) ># startTime  =          0.,
(PID.TID 0000.0001) ># endTime    = 3110400000.,
(PID.TID 0000.0001) > deltaTmom = 1200.0,
(PID.TID 0000.0001) > tauCD =     321428.,
(PID.TID 0000.0001) > deltaTtracer= 43200.0,
(PID.TID 0000.0001) > deltaTClock = 43200.0,
(PID.TID 0000.0001) ># if you are using a version later than checkpoint45d on the main branch
(PID.TID 0000.0001) ># you can uncomment the following line and increase the time step
(PID.TID 0000.0001) ># deltaTtracer and deltaTClock to 172800.0 as well to speed up the
(PID.TID 0000.0001) ># asynchronous time stepping
(PID.TID 0000.0001) ># deltaTfreesurf = 172800.0,
(PID.TID 0000.0001) > abEps = 0.1,
(PID.TID 0000.0001) > pChkptFreq= 311040000.,
(PID.TID 0000.0001) > dumpFreq=   311040000.,
(PID.TID 0000.0001) > dumpFreq=   864000.,
(PID.TID 0000.0001) > adjDumpFreq= 432000.,
(PID.TID 0000.0001) > adjMonitorFreq=1.,
(PID.TID 0000.0001) ># taveFreq=   311040000.,
(PID.TID 0000.0001) ># taveFreq=   864000.,
(PID.TID 0000.0001) >#monitorFreq=31104000.,
(PID.TID 0000.0001) > monitorFreq=1.,
(PID.TID 0000.0001) ># 2 months restoring timescale for temperature
(PID.TID 0000.0001) > tauThetaClimRelax =  5184000.0,
(PID.TID 0000.0001) ># 6 months restoring timescale for salinity
(PID.TID 0000.0001) > tauSaltClimRelax = 15552000.0,
(PID.TID 0000.0001) > periodicExternalForcing=.TRUE.,
(PID.TID 0000.0001) > externForcingPeriod=2592000.,
(PID.TID 0000.0001) > externForcingCycle=31104000.,
(PID.TID 0000.0001) > /
(PID.TID 0000.0001) >
(PID.TID 0000.0001) ># Gridding parameters
(PID.TID 0000.0001) > &PARM04
(PID.TID 0000.0001) > usingSphericalPolarGrid=.TRUE.,
(PID.TID 0000.0001) > delR= 50., 70., 100., 140., 190.,
(PID.TID 0000.0001) >       240., 290., 340., 390., 440.,
(PID.TID 0000.0001) >       490., 540., 590., 640., 690.,
(PID.TID 0000.0001) > ygOrigin=-80.,
(PID.TID 0000.0001) > dySpacing=4.,
(PID.TID 0000.0001) > dxSpacing=4.,
(PID.TID 0000.0001) > /
(PID.TID 0000.0001) >
(PID.TID 0000.0001) ># Input datasets
(PID.TID 0000.0001) > &PARM05
(PID.TID 0000.0001) > bathyFile=      'bathymetry.bin',
(PID.TID 0000.0001) > hydrogThetaFile='lev_t.bin',
(PID.TID 0000.0001) > hydrogSaltFile= 'lev_s.bin',
(PID.TID 0000.0001) > zonalWindFile=  'trenberth_taux.bin',
(PID.TID 0000.0001) > meridWindFile=  'trenberth_tauy.bin',
(PID.TID 0000.0001) > thetaClimFile=  'lev_sst.bin',
(PID.TID 0000.0001) > saltClimFile=   'lev_sss.bin',
(PID.TID 0000.0001) > surfQFile=      'ncep_qnet.bin',
(PID.TID 0000.0001) ># fresh water flux is turned off, uncomment next line to turn on
(PID.TID 0000.0001) ># (not recommened together with surface salinity restoring)
(PID.TID 0000.0001) ># EmPmRFile=      'ncep_emp.bin',
(PID.TID 0000.0001) > /
(PID.TID 0000.0001) 
(PID.TID 0000.0001)  INI_PARMS ; starts to read PARM01
(PID.TID 0000.0001)  INI_PARMS ; read PARM01 : OK
(PID.TID 0000.0001) S/R INI_PARMS: No request for barotropic solver
(PID.TID 0000.0001) S/R INI_PARMS: => Use implicitFreeSurface as default
(PID.TID 0000.0001)  INI_PARMS ; starts to read PARM02
(PID.TID 0000.0001)  INI_PARMS ; read PARM02 : OK
(PID.TID 0000.0001)  INI_PARMS ; starts to read PARM03
(PID.TID 0000.0001)  INI_PARMS ; read PARM03 : OK
(PID.TID 0000.0001)  INI_PARMS ; starts to read PARM04
(PID.TID 0000.0001)  INI_PARMS ; read PARM04 : OK
(PID.TID 0000.0001)  INI_PARMS ; starts to read PARM05
(PID.TID 0000.0001)  INI_PARMS ; read PARM05 : OK
(PID.TID 0000.0001)  INI_PARMS: finished reading file "data"
(PID.TID 0000.0001)  PACKAGES_BOOT: opening data.pkg
(PID.TID 0000.0001)  OPEN_COPY_DATA_FILE: opening file data.pkg
(PID.TID 0000.0001) // =======================================================
(PID.TID 0000.0001) // Parameter file "data.pkg"
(PID.TID 0000.0001) // =======================================================
(PID.TID 0000.0001) >#
(PID.TID 0000.0001) ># ********
(PID.TID 0000.0001) ># Packages
(PID.TID 0000.0001) ># ********
(PID.TID 0000.0001) > &PACKAGES
(PID.TID 0000.0001) > useGMRedi    = .TRUE.,
(PID.TID 0000.0001) > useKPP       = .FALSE.,
(PID.TID 0000.0001) > useGrdchk    = .TRUE.,
(PID.TID 0000.0001) > useMNC       = .TRUE.,
(PID.TID 0000.0001) > /
(PID.TID 0000.0001) 
(PID.TID 0000.0001)  PACKAGES_BOOT: finished reading data.pkg
(PID.TID 0000.0001)  MNC_READPARMS: opening file 'data.mnc'
(PID.TID 0000.0001)  OPEN_COPY_DATA_FILE: opening file data.mnc
(PID.TID 0000.0001) // =======================================================
(PID.TID 0000.0001) // Parameter file "data.mnc"
(PID.TID 0000.0001) // =======================================================
(PID.TID 0000.0001) ># Example "data.mnc" file
(PID.TID 0000.0001) ># Lines beginning "#" are comments
(PID.TID 0000.0001) > &MNC_01
(PID.TID 0000.0001) ># mnc_echo_gvtypes=.FALSE.,
(PID.TID 0000.0001) ># mnc_use_indir=.FALSE.,
(PID.TID 0000.0001) > mnc_use_outdir=.TRUE.,
(PID.TID 0000.0001) > mnc_outdir_str='mnc_test_',
(PID.TID 0000.0001) >#mnc_outdir_date=.TRUE.,
(PID.TID 0000.0001) > monitor_mnc=.FALSE.,
(PID.TID 0000.0001) >#timeave_mnc=.FALSE.,
(PID.TID 0000.0001) >#snapshot_mnc=.FALSE.,
(PID.TID 0000.0001) >#autodiff_mnc=.FALSE.,
(PID.TID 0000.0001) > pickup_write_mnc=.FALSE.,
(PID.TID 0000.0001) > pickup_read_mnc=.FALSE.,
(PID.TID 0000.0001) > /
(PID.TID 0000.0001) ># Note: Some systems use & as the
(PID.TID 0000.0001) ># namelist terminator. Other systems
(PID.TID 0000.0001) ># use a / character (as shown here).
(PID.TID 0000.0001) 
(PID.TID 0000.0001)  MNC_READPARMS: finished reading data.mnc
(PID.TID 0000.0001)  GM_READPARMS: opening data.gmredi
(PID.TID 0000.0001)  OPEN_COPY_DATA_FILE: opening file data.gmredi
(PID.TID 0000.0001) // =======================================================
(PID.TID 0000.0001) // Parameter file "data.gmredi"
(PID.TID 0000.0001) // =======================================================
(PID.TID 0000.0001) ># GM+Redi package parameters:
(PID.TID 0000.0001) >#     GM_Small_Number  :: epsilon used in computing the slope
(PID.TID 0000.0001) >#     GM_slopeSqCutoff :: slope^2 cut-off value
(PID.TID 0000.0001) >
(PID.TID 0000.0001) >#-from MOM :
(PID.TID 0000.0001) ># GM_background_K: 	G & Mc.W  diffusion coefficient
(PID.TID 0000.0001) ># GM_maxSlope    :	max slope of isopycnals
(PID.TID 0000.0001) ># GM_Scrit       :	transition for scaling diffusion coefficient
(PID.TID 0000.0001) ># GM_Sd          :	half width scaling for diffusion coefficient
(PID.TID 0000.0001) ># GM_taper_scheme:	slope clipping or one of the tapering schemes
(PID.TID 0000.0001) ># GM_Kmin_horiz  :	horizontal diffusion minimum value
(PID.TID 0000.0001) >
(PID.TID 0000.0001) >#-Option parameters (needs to "define" options in GMREDI_OPTIONS.h")
(PID.TID 0000.0001) ># GM_isopycK     :	isopycnal diffusion coefficient (default=GM_background_K)
(PID.TID 0000.0001) ># GM_AdvForm     :	turn on GM Advective form       (default=Skew flux form)
(PID.TID 0000.0001) >
(PID.TID 0000.0001) > &GM_PARM01
(PID.TID 0000.0001) >  GM_Small_Number  = 1.D-20,
(PID.TID 0000.0001) >  GM_slopeSqCutoff = 1.D+08,
(PID.TID 0000.0001) >  GM_AdvForm         = .TRUE.,
(PID.TID 0000.0001) >  GM_isopycK         = 1.1D+3,
(PID.TID 0000.0001) >  GM_background_K    = 0.9D+3,
(PID.TID 0000.0001) >  GM_taper_scheme    = 'dm95',
(PID.TID 0000.0001) >  GM_maxSlope        = 1.D-2,
(PID.TID 0000.0001) >  GM_Kmin_horiz      = 50.,
(PID.TID 0000.0001) >  GM_Scrit           = 4.D-3,
(PID.TID 0000.0001) >  GM_Sd              = 1.D-3,
(PID.TID 0000.0001) >#  GM_Visbeck_alpha   = 1.5D-2,
(PID.TID 0000.0001) >  GM_Visbeck_alpha   = 0.D0,
(PID.TID 0000.0001) >  GM_Visbeck_length  = 2.D+5,
(PID.TID 0000.0001) >  GM_Visbeck_depth   = 1.D+3,
(PID.TID 0000.0001) >  GM_Visbeck_maxval_K= 2.5D+3,
(PID.TID 0000.0001) > /
(PID.TID 0000.0001) >
(PID.TID 0000.0001) >
(PID.TID 0000.0001) 
(PID.TID 0000.0001)  GM_READPARMS: finished reading data.gmredi
(PID.TID 0000.0001) OPTIM_READPARMS: opening data.optim
(PID.TID 0000.0001)  OPEN_COPY_DATA_FILE: opening file data.optim
(PID.TID 0000.0001) // =======================================================
(PID.TID 0000.0001) // Parameter file "data.optim"
(PID.TID 0000.0001) // =======================================================
(PID.TID 0000.0001) >#
(PID.TID 0000.0001) ># ********************************
(PID.TID 0000.0001) ># Off-line optimization parameters
(PID.TID 0000.0001) ># ********************************
(PID.TID 0000.0001) > &OPTIM
(PID.TID 0000.0001) > optimcycle=0,
(PID.TID 0000.0001) > /
(PID.TID 0000.0001) 
(PID.TID 0000.0001) OPTIM_READPARMS: finished reading data.optim
(PID.TID 0000.0001) CTRL_READPARMS: opening data.ctrl
(PID.TID 0000.0001)  OPEN_COPY_DATA_FILE: opening file data.ctrl
(PID.TID 0000.0001) // =======================================================
(PID.TID 0000.0001) // Parameter file "data.ctrl"
(PID.TID 0000.0001) // =======================================================
(PID.TID 0000.0001) >#
(PID.TID 0000.0001) >#
(PID.TID 0000.0001) ># *********************
(PID.TID 0000.0001) ># ECCO controlvariables
(PID.TID 0000.0001) ># *********************
(PID.TID 0000.0001) > &CTRL_NML
(PID.TID 0000.0001) ># doSinglePrecTapelev= .FALSE.,
(PID.TID 0000.0001) > xx_theta_file      = 'xx_theta',
(PID.TID 0000.0001) > xx_salt_file       = 'xx_salt',
(PID.TID 0000.0001) > xx_tr1_file        = 'xx_tr1',
(PID.TID 0000.0001) > xx_hflux_file      = 'xx_hflux',
(PID.TID 0000.0001) > xx_sflux_file      = 'xx_sflux',
(PID.TID 0000.0001) > xx_tauu_file       = 'xx_tauu',
(PID.TID 0000.0001) > xx_tauv_file       = 'xx_tauv',
(PID.TID 0000.0001) > xx_diffkr_file     = 'xx_diffkr',
(PID.TID 0000.0001) > xx_kapgm_file      = 'xx_kapgm',
(PID.TID 0000.0001) > /
(PID.TID 0000.0001) >#
(PID.TID 0000.0001) ># *********************
(PID.TID 0000.0001) ># names for ctrl_pack/unpack
(PID.TID 0000.0001) ># *********************
(PID.TID 0000.0001) > &CTRL_PACKNAMES
(PID.TID 0000.0001) > /
(PID.TID 0000.0001) >
(PID.TID 0000.0001) 
(PID.TID 0000.0001) CTRL_READPARMS: finished reading data.ctrl
(PID.TID 0000.0001) COST_READPARMS: opening data.cost
(PID.TID 0000.0001)  OPEN_COPY_DATA_FILE: opening file data.cost
(PID.TID 0000.0001) // =======================================================
(PID.TID 0000.0001) // Parameter file "data.cost"
(PID.TID 0000.0001) // =======================================================
(PID.TID 0000.0001) >#
(PID.TID 0000.0001) >#
(PID.TID 0000.0001) ># ******************
(PID.TID 0000.0001) ># ECCO cost function
(PID.TID 0000.0001) ># ******************
(PID.TID 0000.0001) > &COST_NML
(PID.TID 0000.0001) >#
(PID.TID 0000.0001) > mult_tracer  = 1.,
(PID.TID 0000.0001) > mult_test    = 1.,
(PID.TID 0000.0001) > mult_atl     = 1.,
(PID.TID 0000.0001) > /
(PID.TID 0000.0001) 
(PID.TID 0000.0001) COST_READPARMS: finished reading data.cost
(PID.TID 0000.0001) GRDCHK_READPARMS: opening data.grdchk
(PID.TID 0000.0001)  OPEN_COPY_DATA_FILE: opening file data.grdchk
(PID.TID 0000.0001) // =======================================================
(PID.TID 0000.0001) // Parameter file "data.grdchk"
(PID.TID 0000.0001) // =======================================================
(PID.TID 0000.0001) >
(PID.TID 0000.0001) ># *******************
(PID.TID 0000.0001) ># ECCO gradient check
(PID.TID 0000.0001) ># *******************
(PID.TID 0000.0001) > &GRDCHK_NML
(PID.TID 0000.0001) > grdchk_eps       = 1.d-2,
(PID.TID 0000.0001) >### iGloPos          = 76,
(PID.TID 0000.0001) >### jGloPos          = 27,
(PID.TID 0000.0001) > iGloPos          = 31,
(PID.TID 0000.0001) > jGloPos          = 7,
(PID.TID 0000.0001) > kGloPos          = 1,
(PID.TID 0000.0001) > iGloTile         = 2,
(PID.TID 0000.0001) > jgloTile         = 2,
(PID.TID 0000.0001) >### nbeg             = 1,
(PID.TID 0000.0001) > nstep            = 1,
(PID.TID 0000.0001) > nend             = 3,
(PID.TID 0000.0001) > grdchkvarindex   = 1,
(PID.TID 0000.0001) > /
(PID.TID 0000.0001) 
(PID.TID 0000.0001) GRDCHK_READPARMS: finished reading data.grdchk
(PID.TID 0000.0001) 
(PID.TID 0000.0001) // =======================================================
(PID.TID 0000.0001) // Gradient check configuration  >>> START <<<
(PID.TID 0000.0001) // =======================================================
(PID.TID 0000.0001) 
(PID.TID 0000.0001)   eps:                              0.100E-01
(PID.TID 0000.0001)   First location:                           0
(PID.TID 0000.0001)   Last location:                            3
(PID.TID 0000.0001)   Increment:                                1
(PID.TID 0000.0001)   grdchkWhichProc:                          0
(PID.TID 0000.0001)   iLocTile =       2  ,    jLocTile =       2
(PID.TID 0000.0001) 
(PID.TID 0000.0001) // =======================================================
(PID.TID 0000.0001) // Gradient check configuration  >>> END <<<
(PID.TID 0000.0001) // =======================================================
(PID.TID 0000.0001) 
(PID.TID 0000.0001) SET_PARMS: done
(PID.TID 0000.0001) Enter INI_VERTICAL_GRID: setInterFDr=    T ; setCenterDr=    F
(PID.TID 0000.0001) %MON XC_max                       =   3.5800000000000E+02
(PID.TID 0000.0001) %MON XC_min                       =   2.0000000000000E+00
(PID.TID 0000.0001) %MON XC_mean                      =   1.8000000000000E+02
(PID.TID 0000.0001) %MON XC_sd                        =   1.0391663325314E+02
(PID.TID 0000.0001) %MON XG_max                       =   3.5600000000000E+02
(PID.TID 0000.0001) %MON XG_min                       =   0.0000000000000E+00
(PID.TID 0000.0001) %MON XG_mean                      =   1.7800000000000E+02
(PID.TID 0000.0001) %MON XG_sd                        =   1.0391663325314E+02
(PID.TID 0000.0001) %MON DXC_max                      =   4.4443898815675E+05
(PID.TID 0000.0001) %MON DXC_min                      =   9.2460385861875E+04
(PID.TID 0000.0001) %MON DXC_mean                     =   3.1372497618153E+05
(PID.TID 0000.0001) %MON DXC_sd                       =   1.1216447457560E+05
(PID.TID 0000.0001) %MON DXF_max                      =   4.4443898815675E+05
(PID.TID 0000.0001) %MON DXF_min                      =   9.2460385861875E+04
(PID.TID 0000.0001) %MON DXF_mean                     =   3.1372497618153E+05
(PID.TID 0000.0001) %MON DXF_sd                       =   1.1216447457560E+05
(PID.TID 0000.0001) %MON DXG_max                      =   4.4470989340816E+05
(PID.TID 0000.0001) %MON DXG_min                      =   7.7223062580781E+04
(PID.TID 0000.0001) %MON DXG_mean                     =   3.1353386340261E+05
(PID.TID 0000.0001) %MON DXG_sd                       =   1.1256651772502E+05
(PID.TID 0000.0001) %MON DXV_max                      =   4.4470989340816E+05
(PID.TID 0000.0001) %MON DXV_min                      =   7.7223062580781E+04
(PID.TID 0000.0001) %MON DXV_mean                     =   3.1353386340261E+05
(PID.TID 0000.0001) %MON DXV_sd                       =   1.1256651772502E+05
(PID.TID 0000.0001) %MON YC_max                       =   7.8000000000000E+01
(PID.TID 0000.0001) %MON YC_min                       =  -7.8000000000000E+01
(PID.TID 0000.0001) %MON YC_mean                      =   0.0000000000000E+00
(PID.TID 0000.0001) %MON YC_sd                        =   4.6173585522461E+01
(PID.TID 0000.0001) %MON YG_max                       =   7.6000000000000E+01
(PID.TID 0000.0001) %MON YG_min                       =  -8.0000000000000E+01
(PID.TID 0000.0001) %MON YG_mean                      =  -2.0000000000000E+00
(PID.TID 0000.0001) %MON YG_sd                        =   4.6173585522461E+01
(PID.TID 0000.0001) %MON DYC_max                      =   4.4470989340816E+05
(PID.TID 0000.0001) %MON DYC_min                      =   4.4470989340816E+05
(PID.TID 0000.0001) %MON DYC_mean                     =   4.4470989340816E+05
(PID.TID 0000.0001) %MON DYC_sd                       =   5.2968971431255E-09
(PID.TID 0000.0001) %MON DYF_max                      =   4.4470989340816E+05
(PID.TID 0000.0001) %MON DYF_min                      =   4.4470989340816E+05
(PID.TID 0000.0001) %MON DYF_mean                     =   4.4470989340816E+05
(PID.TID 0000.0001) %MON DYF_sd                       =   5.2968971431255E-09
(PID.TID 0000.0001) %MON DYG_max                      =   4.4470989340816E+05
(PID.TID 0000.0001) %MON DYG_min                      =   4.4470989340816E+05
(PID.TID 0000.0001) %MON DYG_mean                     =   4.4470989340816E+05
(PID.TID 0000.0001) %MON DYG_sd                       =   5.2968971431255E-09
(PID.TID 0000.0001) %MON DYU_max                      =   4.4470989340816E+05
(PID.TID 0000.0001) %MON DYU_min                      =   4.4470989340816E+05
(PID.TID 0000.0001) %MON DYU_mean                     =   4.4470989340816E+05
(PID.TID 0000.0001) %MON DYU_sd                       =   5.2968971431255E-09
(PID.TID 0000.0001) %MON RA_max                       =   1.9760627980089E+11
(PID.TID 0000.0001) %MON RA_min                       =   4.1109698667290E+10
(PID.TID 0000.0001) %MON RA_mean                      =   1.3948826965196E+11
(PID.TID 0000.0001) %MON RA_sd                        =   4.9870522472902E+10
(PID.TID 0000.0001) %MON RAW_max                      =   1.9760627980089E+11
(PID.TID 0000.0001) %MON RAW_min                      =   4.1109698667290E+10
(PID.TID 0000.0001) %MON RAW_mean                     =   1.3948826965196E+11
(PID.TID 0000.0001) %MON RAW_sd                       =   4.9870522472902E+10
(PID.TID 0000.0001) %MON RAS_max                      =   1.9772672958215E+11
(PID.TID 0000.0001) %MON RAS_min                      =   3.4334886267983E+10
(PID.TID 0000.0001) %MON RAS_mean                     =   1.3940329716694E+11
(PID.TID 0000.0001) %MON RAS_sd                       =   5.0049278732353E+10
(PID.TID 0000.0001) %MON RAZ_max                      =   1.9772672958215E+11
(PID.TID 0000.0001) %MON RAZ_min                      =   3.4334886267983E+10
(PID.TID 0000.0001) %MON RAZ_mean                     =   1.3940329716694E+11
(PID.TID 0000.0001) %MON RAZ_sd                       =   5.0049278732353E+10
(PID.TID 0000.0001) %MON AngleCS_max                  =   1.0000000000000E+00
(PID.TID 0000.0001) %MON AngleCS_min                  =   1.0000000000000E+00
(PID.TID 0000.0001) %MON AngleCS_mean                 =   1.0000000000000E+00
(PID.TID 0000.0001) %MON AngleCS_sd                   =   0.0000000000000E+00
(PID.TID 0000.0001) %MON AngleSN_max                  =   0.0000000000000E+00
(PID.TID 0000.0001) %MON AngleSN_min                  =   0.0000000000000E+00
(PID.TID 0000.0001) %MON AngleSN_mean                 =   0.0000000000000E+00
(PID.TID 0000.0001) %MON AngleSN_sd                   =   0.0000000000000E+00
(PID.TID 0000.0001) GAD_INIT_FIXED: GAD_OlMinSize=  2  0  1
(PID.TID 0000.0001) 
(PID.TID 0000.0001) // ===================================
(PID.TID 0000.0001) // GAD parameters :
(PID.TID 0000.0001) // ===================================
(PID.TID 0000.0001) tempAdvScheme =   /* Temp. Horiz.Advection scheme selector */
(PID.TID 0000.0001)                      30
(PID.TID 0000.0001)     ;
(PID.TID 0000.0001) tempVertAdvScheme =   /* Temp. Vert. Advection scheme selector */
(PID.TID 0000.0001)                      30
(PID.TID 0000.0001)     ;
(PID.TID 0000.0001) tempMultiDimAdvec =   /* use Muti-Dim Advec method for Temp */
(PID.TID 0000.0001)                   T
(PID.TID 0000.0001)     ;
(PID.TID 0000.0001) tempSOM_Advection = /* use 2nd Order Moment Advection for Temp */
(PID.TID 0000.0001)                   F
(PID.TID 0000.0001)     ;
(PID.TID 0000.0001) AdamsBashforthGt = /* apply Adams-Bashforth extrapolation on Gt */
(PID.TID 0000.0001)                   F
(PID.TID 0000.0001)     ;
(PID.TID 0000.0001) AdamsBashforth_T = /* apply Adams-Bashforth extrapolation on Temp */
(PID.TID 0000.0001)                   F
(PID.TID 0000.0001)     ;
(PID.TID 0000.0001) saltAdvScheme =   /* Salt. Horiz.advection scheme selector */
(PID.TID 0000.0001)                      30
(PID.TID 0000.0001)     ;
(PID.TID 0000.0001) saltVertAdvScheme =   /* Salt. Vert. Advection scheme selector */
(PID.TID 0000.0001)                      30
(PID.TID 0000.0001)     ;
(PID.TID 0000.0001) saltMultiDimAdvec =   /* use Muti-Dim Advec method for Salt */
(PID.TID 0000.0001)                   T
(PID.TID 0000.0001)     ;
(PID.TID 0000.0001) saltSOM_Advection = /* use 2nd Order Moment Advection for Salt */
(PID.TID 0000.0001)                   F
(PID.TID 0000.0001)     ;
(PID.TID 0000.0001) AdamsBashforthGs = /* apply Adams-Bashforth extrapolation on Gs */
(PID.TID 0000.0001)                   F
(PID.TID 0000.0001)     ;
(PID.TID 0000.0001) AdamsBashforth_S = /* apply Adams-Bashforth extrapolation on Salt */
(PID.TID 0000.0001)                   F
(PID.TID 0000.0001)     ;
(PID.TID 0000.0001) // ===================================
(PID.TID 0000.0001) ctrl-wet 1:    nvarlength =       126221
(PID.TID 0000.0001) ctrl-wet 2: surface wet C =          669
(PID.TID 0000.0001) ctrl-wet 3: surface wet W =          640
(PID.TID 0000.0001) ctrl-wet 4: surface wet S =          610
(PID.TID 0000.0001) ctrl-wet 4a:surface wet V =            0
(PID.TID 0000.0001) ctrl-wet 5: 3D wet points =         8651
(PID.TID 0000.0001) ctrl-wet 6: no recs for i =     1           1
(PID.TID 0000.0001) ctrl-wet 6: no recs for i =     2           1
(PID.TID 0000.0001) ctrl-wet 6: no recs for i =     3           1
(PID.TID 0000.0001) ctrl-wet 6: no recs for i =     4           1
(PID.TID 0000.0001) ctrl-wet 6: no recs for i =     5           1
(PID.TID 0000.0001) ctrl-wet 6: no recs for i =     6           1
(PID.TID 0000.0001) ctrl-wet 6: no recs for i =     7           0
(PID.TID 0000.0001) ctrl-wet 6: no recs for i =     8           0
(PID.TID 0000.0001) ctrl-wet 6: no recs for i =     9           0
(PID.TID 0000.0001) ctrl-wet 6: no recs for i =    10           0
(PID.TID 0000.0001) ctrl-wet 6: no recs for i =    11           0
(PID.TID 0000.0001) ctrl-wet 6: no recs for i =    12           0
(PID.TID 0000.0001) ctrl-wet 6: no recs for i =    13           0
(PID.TID 0000.0001) ctrl-wet 6: no recs for i =    14           0
(PID.TID 0000.0001) ctrl-wet 6: no recs for i =    15           1
(PID.TID 0000.0001) ctrl-wet 6: no recs for i =    16           1
(PID.TID 0000.0001) ctrl-wet 6: no recs for i =    17           0
(PID.TID 0000.0001) ctrl-wet 6: no recs for i =    18           0
(PID.TID 0000.0001) ctrl-wet 6: no recs for i =    19           0
(PID.TID 0000.0001) ctrl-wet 6: no recs for i =    20           0
(PID.TID 0000.0001) ctrl-wet 6: no recs for i =    21           0
(PID.TID 0000.0001) ctrl-wet 6: no recs for i =    22           0
(PID.TID 0000.0001) ctrl-wet 6: no recs for i =    23           0
(PID.TID 0000.0001) ctrl-wet 6: no recs for i =    24           0
(PID.TID 0000.0001) ctrl-wet 6: no recs for i =    25           0
(PID.TID 0000.0001) ctrl-wet 6: no recs for i =    26           0
(PID.TID 0000.0001) ctrl-wet 6: no recs for i =    27           0
(PID.TID 0000.0001) ctrl-wet 6: no recs for i =    28           0
(PID.TID 0000.0001) ctrl-wet 6: no recs for i =    29           0
(PID.TID 0000.0001) ctrl-wet 6: no recs for i =    30           0
(PID.TID 0000.0001) ctrl-wet 6: no recs for i =    31           0
(PID.TID 0000.0001) ctrl-wet 6: no recs for i =    32           0
(PID.TID 0000.0001) ctrl-wet 6: no recs for i =    33           0
(PID.TID 0000.0001) ctrl-wet 6: no recs for i =    34           0
(PID.TID 0000.0001) ctrl-wet 6: no recs for i =    35           0
(PID.TID 0000.0001) ctrl-wet 6: no recs for i =    36           0
(PID.TID 0000.0001) ctrl-wet 6: no recs for i =    37           0
(PID.TID 0000.0001) ctrl-wet 6: no recs for i =    38           0
(PID.TID 0000.0001) ctrl-wet 6: no recs for i =    39           0
(PID.TID 0000.0001) ctrl-wet 6: no recs for i =    40           0
(PID.TID 0000.0001) ctrl-wet 6: no recs for i =    41           0
(PID.TID 0000.0001) ctrl-wet 6: no recs for i =    42           0
(PID.TID 0000.0001) ctrl-wet 6: no recs for i =    43           0
(PID.TID 0000.0001) ctrl-wet 6: no recs for i =    44           0
(PID.TID 0000.0001) ctrl-wet 6: no recs for i =    45           0
(PID.TID 0000.0001) ctrl-wet 6: no recs for i =    46           0
(PID.TID 0000.0001) ctrl-wet 6: no recs for i =    47           0
(PID.TID 0000.0001) ctrl-wet 6: no recs for i =    48           0
(PID.TID 0000.0001) ctrl-wet 6: no recs for i =    49           0
(PID.TID 0000.0001) ctrl-wet 6: no recs for i =    50           0
(PID.TID 0000.0001) ctrl-wet 6: no recs for i =    51           0
(PID.TID 0000.0001) ctrl-wet 6: no recs for i =    52           0
(PID.TID 0000.0001) ctrl-wet 6: no recs for i =    53           0
(PID.TID 0000.0001) ctrl-wet 6: no recs for i =    54           0
(PID.TID 0000.0001) ctrl-wet 6: no recs for i =    55           0
(PID.TID 0000.0001) ctrl-wet 6: no recs for i =    56           0
(PID.TID 0000.0001) ctrl-wet 6: no recs for i =    57           0
(PID.TID 0000.0001) ctrl-wet 6: no recs for i =    58           0
(PID.TID 0000.0001) ctrl-wet 6: no recs for i =    59           0
(PID.TID 0000.0001) ctrl-wet 6: no recs for i =    60           0
(PID.TID 0000.0001) ctrl-wet 7: flux         19890
(PID.TID 0000.0001) ctrl-wet 8: atmos        17302
(PID.TID 0000.0001) ctrl-wet -------------------------------------------------
(PID.TID 0000.0001) ctrl-wet 13: global nvarlength for Nr =   15      126221
(PID.TID 0000.0001) ctrl-wet -------------------------------------------------
(PID.TID 0000.0001) ctrl-wet 14: global nWet C/S/W/V k=    1        2315        2149        2206           0
(PID.TID 0000.0001) ctrl-wet 14: global nWet C/S/W/V k=    2        2315        2149        2206           0
(PID.TID 0000.0001) ctrl-wet 14: global nWet C/S/W/V k=    3        2254        2102        2146           0
(PID.TID 0000.0001) ctrl-wet 14: global nWet C/S/W/V k=    4        2215        2058        2104           0
(PID.TID 0000.0001) ctrl-wet 14: global nWet C/S/W/V k=    5        2178        2027        2070           0
(PID.TID 0000.0001) ctrl-wet 14: global nWet C/S/W/V k=    6        2142        1987        2029           0
(PID.TID 0000.0001) ctrl-wet 14: global nWet C/S/W/V k=    7        2114        1959        2004           0
(PID.TID 0000.0001) ctrl-wet 14: global nWet C/S/W/V k=    8        2076        1918        1959           0
(PID.TID 0000.0001) ctrl-wet 14: global nWet C/S/W/V k=    9        2048        1887        1925           0
(PID.TID 0000.0001) ctrl-wet 14: global nWet C/S/W/V k=   10        1999        1831        1869           0
(PID.TID 0000.0001) ctrl-wet 14: global nWet C/S/W/V k=   11        1948        1771        1808           0
(PID.TID 0000.0001) ctrl-wet 14: global nWet C/S/W/V k=   12        1850        1653        1705           0
(PID.TID 0000.0001) ctrl-wet 14: global nWet C/S/W/V k=   13        1655        1404        1458           0
(PID.TID 0000.0001) ctrl-wet 14: global nWet C/S/W/V k=   14        1372        1118        1164           0
(PID.TID 0000.0001) ctrl-wet 14: global nWet C/S/W/V k=   15         828         623         671           0
(PID.TID 0000.0001) ctrl-wet -------------------------------------------------
(PID.TID 0000.0001) ctrl-wet -------------------------------------------------
(PID.TID 0000.0001) ctrl-wet -------------------------------------------------
(PID.TID 0000.0001) ctrl_init: no. of control variables:            8
(PID.TID 0000.0001) ctrl_init: control vector length:          126221
(PID.TID 0000.0001) %MON fCori_max                    =   1.4226580169407E-04
(PID.TID 0000.0001) %MON fCori_min                    =  -1.4226580169407E-04
(PID.TID 0000.0001) %MON fCori_mean                   =  -1.9274705288631E-19
(PID.TID 0000.0001) %MON fCori_sd                     =   9.6335367303779E-05
(PID.TID 0000.0001) %MON fCoriG_max                   =   1.4112379284621E-04
(PID.TID 0000.0001) %MON fCoriG_min                   =  -1.4323448157692E-04
(PID.TID 0000.0001) %MON fCoriG_mean                  =  -3.5808620394228E-06
(PID.TID 0000.0001) %MON fCoriG_sd                    =   9.6285194120965E-05
(PID.TID 0000.0001) %MON fCoriCos_max                 =   1.4535550371427E-04
(PID.TID 0000.0001) %MON fCoriCos_min                 =   3.0239529651320E-05
(PID.TID 0000.0001) %MON fCoriCos_mean                =   1.0260497651149E-04
(PID.TID 0000.0001) %MON fCoriCos_sd                  =   3.6683828681187E-05
(PID.TID 0000.0001) INI_CG2D: CG2D normalisation factor =  6.5682677425711703E-05
(PID.TID 0000.0001) 
(PID.TID 0000.0001) // =======================================================
(PID.TID 0000.0001) // Model configuration
(PID.TID 0000.0001) // =======================================================
(PID.TID 0000.0001) //
(PID.TID 0000.0001) // "Physical" paramters ( PARM01 in namelist )
(PID.TID 0000.0001) //
(PID.TID 0000.0001) buoyancyRelation = /* Type of relation to get Buoyancy */
(PID.TID 0000.0001)               'OCEANIC'
(PID.TID 0000.0001)     ;
(PID.TID 0000.0001) fluidIsAir   =  /* fluid major constituent is Air */
(PID.TID 0000.0001)                   F
(PID.TID 0000.0001)     ;
(PID.TID 0000.0001) fluidIsWater =  /* fluid major constituent is Water */
(PID.TID 0000.0001)                   T
(PID.TID 0000.0001)     ;
(PID.TID 0000.0001) usingPCoords =  /* use p (or p*) vertical coordinate */
(PID.TID 0000.0001)                   F
(PID.TID 0000.0001)     ;
(PID.TID 0000.0001) usingZCoords =  /* use z (or z*) vertical coordinate */
(PID.TID 0000.0001)                   T
(PID.TID 0000.0001)     ;
(PID.TID 0000.0001) tRef =   /* Reference temperature profile ( oC or K ) */
(PID.TID 0000.0001)    15 @  2.000000000000000E+01              /* K =  1: 15 */
(PID.TID 0000.0001)     ;
(PID.TID 0000.0001) sRef =   /* Reference salinity profile ( psu ) */
(PID.TID 0000.0001)    15 @  3.500000000000000E+01              /* K =  1: 15 */
(PID.TID 0000.0001)     ;
(PID.TID 0000.0001) viscAh  =   /* Lateral eddy viscosity ( m^2/s ) */
(PID.TID 0000.0001)                 0.000000000000000E+00
(PID.TID 0000.0001)     ;
(PID.TID 0000.0001) viscAhMax = /* Maximum lateral eddy viscosity ( m^2/s ) */
(PID.TID 0000.0001)                 1.000000000000000E+21
(PID.TID 0000.0001)     ;
(PID.TID 0000.0001) viscAhGrid = /* Grid dependent lateral eddy viscosity ( non-dim. ) */
(PID.TID 0000.0001)                 0.000000000000000E+00
(PID.TID 0000.0001)     ;
(PID.TID 0000.0001) useFullLeith = /* Use Full Form of Leith Viscosity on/off flag*/
(PID.TID 0000.0001)                   F
(PID.TID 0000.0001)     ;
(PID.TID 0000.0001) useStrainTensionVisc= /* Use StrainTension Form of Viscous Operator flag*/
(PID.TID 0000.0001)                   F
(PID.TID 0000.0001)     ;
(PID.TID 0000.0001) useAreaViscLength = /* Use area for visc length instead of geom. mean*/
(PID.TID 0000.0001)                   T
(PID.TID 0000.0001)     ;
(PID.TID 0000.0001) viscC2leith = /* Leith harmonic visc. factor (on grad(vort),non-dim.) */
(PID.TID 0000.0001)                 0.000000000000000E+00
(PID.TID 0000.0001)     ;
(PID.TID 0000.0001) viscC2leithD = /* Leith harmonic viscosity factor (on grad(div),non-dim.)*/
(PID.TID 0000.0001)                 0.000000000000000E+00
(PID.TID 0000.0001)     ;
(PID.TID 0000.0001) viscC2smag = /* Smagorinsky harmonic viscosity factor (non-dim.) */
(PID.TID 0000.0001)                 0.000000000000000E+00
(PID.TID 0000.0001)     ;
(PID.TID 0000.0001) viscA4  =   /* Lateral biharmonic viscosity ( m^4/s ) */
(PID.TID 0000.0001)                 0.000000000000000E+00
(PID.TID 0000.0001)     ;
(PID.TID 0000.0001) viscA4Max = /* Maximum biharmonic viscosity ( m^2/s ) */
(PID.TID 0000.0001)                 1.000000000000000E+21
(PID.TID 0000.0001)     ;
(PID.TID 0000.0001) viscA4Grid = /* Grid dependent biharmonic viscosity ( non-dim. ) */
(PID.TID 0000.0001)                 0.000000000000000E+00
(PID.TID 0000.0001)     ;
(PID.TID 0000.0001) viscC4leith = /* Leith biharm viscosity factor (on grad(vort), non-dim.)*/
(PID.TID 0000.0001)                 1.500000000000000E+00
(PID.TID 0000.0001)     ;
(PID.TID 0000.0001) viscC4leithD = /* Leith biharm viscosity factor (on grad(div), non-dim.) */
(PID.TID 0000.0001)                 1.500000000000000E+00
(PID.TID 0000.0001)     ;
(PID.TID 0000.0001) viscC4Smag = /* Smagorinsky biharm viscosity factor (non-dim) */
(PID.TID 0000.0001)                 0.000000000000000E+00
(PID.TID 0000.0001)     ;
(PID.TID 0000.0001) no_slip_sides =  /* Viscous BCs: No-slip sides */
(PID.TID 0000.0001)                   T
(PID.TID 0000.0001)     ;
(PID.TID 0000.0001) sideDragFactor = /* side-drag scaling factor (non-dim) */
(PID.TID 0000.0001)                 2.000000000000000E+00
(PID.TID 0000.0001)     ;
(PID.TID 0000.0001) viscArNr = /* vertical profile of vertical viscosity ( m^2/s )*/
(PID.TID 0000.0001)    15 @  1.000000000000000E-03              /* K =  1: 15 */
(PID.TID 0000.0001)     ;
(PID.TID 0000.0001) no_slip_bottom =  /* Viscous BCs: No-slip bottom */
(PID.TID 0000.0001)                   T
(PID.TID 0000.0001)     ;
(PID.TID 0000.0001) bottomDragLinear = /* linear bottom-drag coefficient ( m/s ) */
(PID.TID 0000.0001)                 0.000000000000000E+00
(PID.TID 0000.0001)     ;
(PID.TID 0000.0001) bottomDragQuadratic = /* quadratic bottom-drag coefficient (-) */
(PID.TID 0000.0001)                 2.100000000000000E-03
(PID.TID 0000.0001)     ;
(PID.TID 0000.0001) diffKhT =   /* Laplacian diffusion of heat laterally ( m^2/s ) */
(PID.TID 0000.0001)                 0.000000000000000E+00
(PID.TID 0000.0001)     ;
(PID.TID 0000.0001) diffK4T =   /* Biharmonic diffusion of heat laterally ( m^4/s ) */
(PID.TID 0000.0001)                 0.000000000000000E+00
(PID.TID 0000.0001)     ;
(PID.TID 0000.0001) diffKhS =   /* Laplacian diffusion of salt laterally ( m^2/s ) */
(PID.TID 0000.0001)                 0.000000000000000E+00
(PID.TID 0000.0001)     ;
(PID.TID 0000.0001) diffK4S =   /* Biharmonic diffusion of salt laterally ( m^4/s ) */
(PID.TID 0000.0001)                 0.000000000000000E+00
(PID.TID 0000.0001)     ;
(PID.TID 0000.0001) diffKrNrT = /* vertical profile of vertical diffusion of Temp ( m^2/s )*/
(PID.TID 0000.0001)    15 @  3.000000000000000E-05              /* K =  1: 15 */
(PID.TID 0000.0001)     ;
(PID.TID 0000.0001) diffKrNrS = /* vertical profile of vertical diffusion of Salt ( m^2/s )*/
(PID.TID 0000.0001)    15 @  3.000000000000000E-05              /* K =  1: 15 */
(PID.TID 0000.0001)     ;
(PID.TID 0000.0001) diffKrBL79surf = /* Surface diffusion for Bryan and Lewis 79 ( m^2/s ) */
(PID.TID 0000.0001)                 0.000000000000000E+00
(PID.TID 0000.0001)     ;
(PID.TID 0000.0001) diffKrBL79deep = /* Deep diffusion for Bryan and Lewis 1979 ( m^2/s ) */
(PID.TID 0000.0001)                 0.000000000000000E+00
(PID.TID 0000.0001)     ;
(PID.TID 0000.0001) diffKrBL79scl = /* Depth scale for Bryan and Lewis 1979 ( m ) */
(PID.TID 0000.0001)                 2.000000000000000E+02
(PID.TID 0000.0001)     ;
(PID.TID 0000.0001) diffKrBL79Ho = /* Turning depth for Bryan and Lewis 1979 ( m ) */
(PID.TID 0000.0001)                -2.000000000000000E+03
(PID.TID 0000.0001)     ;
(PID.TID 0000.0001) ivdc_kappa = /* Implicit Vertical Diffusivity for Convection ( m^2/s) */
(PID.TID 0000.0001)                 1.000000000000000E+02
(PID.TID 0000.0001)     ;
(PID.TID 0000.0001) hMixCriteria=  /* Criteria for mixed-layer diagnostic */
(PID.TID 0000.0001)                -8.000000000000000E-01
(PID.TID 0000.0001)     ;
(PID.TID 0000.0001) dRhoSmall =  /* Parameter for mixed-layer diagnostic */
(PID.TID 0000.0001)                 1.000000000000000E-06
(PID.TID 0000.0001)     ;
(PID.TID 0000.0001) hMixSmooth=  /* Smoothing parameter for mixed-layer diagnostic */
(PID.TID 0000.0001)                 0.000000000000000E+00
(PID.TID 0000.0001)     ;
(PID.TID 0000.0001) eosType =  /* Type of Equation of State */
(PID.TID 0000.0001)               'JMD95Z'
(PID.TID 0000.0001)     ;
(PID.TID 0000.0001) tAlpha =   /* Linear EOS thermal expansion coefficient ( 1/oC ) */
(PID.TID 0000.0001)                 1.234567000000000E+05
(PID.TID 0000.0001)     ;
(PID.TID 0000.0001) sBeta =   /* Linear EOS haline contraction coefficient ( 1/psu ) */
(PID.TID 0000.0001)                 1.234567000000000E+05
(PID.TID 0000.0001)     ;
(PID.TID 0000.0001) rhonil =   /* Reference density ( kg/m^3 ) */
(PID.TID 0000.0001)                 1.035000000000000E+03
(PID.TID 0000.0001)     ;
(PID.TID 0000.0001) rhoConst =   /* Reference density ( kg/m^3 ) */
(PID.TID 0000.0001)                 1.035000000000000E+03
(PID.TID 0000.0001)     ;
(PID.TID 0000.0001) rhoFacC = /* normalized Reference density @ cell-Center (-) */
(PID.TID 0000.0001)    15 @  1.000000000000000E+00              /* K =  1: 15 */
(PID.TID 0000.0001)     ;
(PID.TID 0000.0001) rhoFacF = /* normalized Reference density @ W-Interface (-) */
(PID.TID 0000.0001)    16 @  1.000000000000000E+00              /* K =  1: 16 */
(PID.TID 0000.0001)     ;
(PID.TID 0000.0001) rhoConstFresh =   /* Reference density ( kg/m^3 ) */
(PID.TID 0000.0001)                 1.035000000000000E+03
(PID.TID 0000.0001)     ;
(PID.TID 0000.0001) gravity =   /* Gravitational acceleration ( m/s^2 ) */
(PID.TID 0000.0001)                 9.810000000000000E+00
(PID.TID 0000.0001)     ;
(PID.TID 0000.0001) gBaro =   /* Barotropic gravity ( m/s^2 ) */
(PID.TID 0000.0001)                 9.810000000000000E+00
(PID.TID 0000.0001)     ;
(PID.TID 0000.0001) rotationPeriod =   /* Rotation Period ( s ) */
(PID.TID 0000.0001)                 8.640000000000000E+04
(PID.TID 0000.0001)     ;
(PID.TID 0000.0001) omega =   /* Angular velocity ( rad/s ) */
(PID.TID 0000.0001)                 7.272205216643040E-05
(PID.TID 0000.0001)     ;
(PID.TID 0000.0001) f0 =   /* Reference coriolis parameter ( 1/s ) */
(PID.TID 0000.0001)                 1.000000000000000E-04
(PID.TID 0000.0001)     ;
(PID.TID 0000.0001) beta =   /* Beta ( 1/(m.s) ) */
(PID.TID 0000.0001)                 9.999999999999999E-12
(PID.TID 0000.0001)     ;
(PID.TID 0000.0001) fPrime =   /* Second coriolis parameter ( 1/s ) */
(PID.TID 0000.0001)                 0.000000000000000E+00
(PID.TID 0000.0001)     ;
(PID.TID 0000.0001) rigidLid =   /* Rigid lid on/off flag */
(PID.TID 0000.0001)                   F
(PID.TID 0000.0001)     ;
(PID.TID 0000.0001) implicitFreeSurface =   /* Implicit free surface on/off flag */
(PID.TID 0000.0001)                   T
(PID.TID 0000.0001)     ;
(PID.TID 0000.0001) freeSurfFac =   /* Implicit free surface factor */
(PID.TID 0000.0001)                 1.000000000000000E+00
(PID.TID 0000.0001)     ;
(PID.TID 0000.0001) implicSurfPress =  /* Surface Pressure implicit factor (0-1)*/
(PID.TID 0000.0001)                 1.000000000000000E+00
(PID.TID 0000.0001)     ;
(PID.TID 0000.0001) implicDiv2Dflow =  /* Barot. Flow Div. implicit factor (0-1)*/
(PID.TID 0000.0001)                 1.000000000000000E+00
(PID.TID 0000.0001)     ;
(PID.TID 0000.0001) exactConserv =  /* Exact Volume Conservation on/off flag*/
(PID.TID 0000.0001)                   T
(PID.TID 0000.0001)     ;
(PID.TID 0000.0001) linFSConserveTr = /* Tracer correction for Lin Free Surface on/off flag*/
(PID.TID 0000.0001)                   F
(PID.TID 0000.0001)     ;
(PID.TID 0000.0001) uniformLin_PhiSurf = /* use uniform Bo_surf on/off flag*/
(PID.TID 0000.0001)                   T
(PID.TID 0000.0001)     ;
(PID.TID 0000.0001) hFacMin =   /* minimum partial cell factor (hFac) */
(PID.TID 0000.0001)                 5.000000000000000E-02
(PID.TID 0000.0001)     ;
(PID.TID 0000.0001) hFacMinDr = /* minimum partial cell thickness ( m) */
(PID.TID 0000.0001)                 5.000000000000000E-02
(PID.TID 0000.0001)     ;
(PID.TID 0000.0001) nonlinFreeSurf = /* Non-linear Free Surf. options (-1,0,1,2,3)*/
(PID.TID 0000.0001)                       2
(PID.TID 0000.0001)      -1,0= Off ; 1,2,3= On, 2=+rescale gU,gV, 3=+update cg2d solv.
(PID.TID 0000.0001)     ;
(PID.TID 0000.0001) hFacInf =   /* lower threshold for hFac (nonlinFreeSurf only)*/
(PID.TID 0000.0001)                 2.000000000000000E-01
(PID.TID 0000.0001)     ;
(PID.TID 0000.0001) hFacSup =   /* upper threshold for hFac (nonlinFreeSurf only)*/
(PID.TID 0000.0001)                 2.000000000000000E+00
(PID.TID 0000.0001)     ;
(PID.TID 0000.0001) select_rStar = /* r* Vertical coord. options (=0 r coord.; >0 uses r*)*/
(PID.TID 0000.0001)                       0
(PID.TID 0000.0001)     ;
(PID.TID 0000.0001) selectAddFluid = /* option for mass source/sink of fluid (=0: off) */
(PID.TID 0000.0001)                       0
(PID.TID 0000.0001)     ;
(PID.TID 0000.0001) useRealFreshWaterFlux = /* Real Fresh Water Flux on/off flag*/
(PID.TID 0000.0001)                   T
(PID.TID 0000.0001)     ;
(PID.TID 0000.0001) temp_EvPrRn = /* Temp. of Evap/Prec/R (UNSET=use local T)(oC)*/
(PID.TID 0000.0001)                 1.234567000000000E+05
(PID.TID 0000.0001)     ;
(PID.TID 0000.0001) salt_EvPrRn = /* Salin. of Evap/Prec/R (UNSET=use local S)(psu)*/
(PID.TID 0000.0001)                 0.000000000000000E+00
(PID.TID 0000.0001)     ;
(PID.TID 0000.0001) temp_addMass = /* Temp. of addMass array (UNSET=use local T)(oC)*/
(PID.TID 0000.0001)                 1.234567000000000E+05
(PID.TID 0000.0001)     ;
(PID.TID 0000.0001) salt_addMass = /* Salin. of addMass array (UNSET=use local S)(psu)*/
(PID.TID 0000.0001)                 0.000000000000000E+00
(PID.TID 0000.0001)     ;
(PID.TID 0000.0001) use3Dsolver = /* use 3-D pressure solver on/off flag */
(PID.TID 0000.0001)                   F
(PID.TID 0000.0001)     ;
(PID.TID 0000.0001) nonHydrostatic =  /* Non-Hydrostatic on/off flag */
(PID.TID 0000.0001)                   F
(PID.TID 0000.0001)     ;
(PID.TID 0000.0001) nh_Am2 = /* Non-Hydrostatic terms scaling factor */
(PID.TID 0000.0001)                 1.000000000000000E+00
(PID.TID 0000.0001)     ;
(PID.TID 0000.0001) implicitNHPress = /* Non-Hyd Pressure implicit factor (0-1)*/
(PID.TID 0000.0001)                 1.000000000000000E+00
(PID.TID 0000.0001)     ;
(PID.TID 0000.0001) selectNHfreeSurf = /* Non-Hyd (free-)Surface option */
(PID.TID 0000.0001)                       0
(PID.TID 0000.0001)     ;
(PID.TID 0000.0001) quasiHydrostatic = /* Quasi-Hydrostatic on/off flag */
(PID.TID 0000.0001)                   F
(PID.TID 0000.0001)     ;
(PID.TID 0000.0001) momStepping =  /* Momentum equation on/off flag */
(PID.TID 0000.0001)                   T
(PID.TID 0000.0001)     ;
(PID.TID 0000.0001) vectorInvariantMomentum= /* Vector-Invariant Momentum on/off */
(PID.TID 0000.0001)                   T
(PID.TID 0000.0001)     ;
(PID.TID 0000.0001) momAdvection =  /* Momentum advection on/off flag */
(PID.TID 0000.0001)                   T
(PID.TID 0000.0001)     ;
(PID.TID 0000.0001) momViscosity =  /* Momentum viscosity on/off flag */
(PID.TID 0000.0001)                   T
(PID.TID 0000.0001)     ;
(PID.TID 0000.0001) momImplVertAdv= /* Momentum implicit vert. advection on/off*/
(PID.TID 0000.0001)                   F
(PID.TID 0000.0001)     ;
(PID.TID 0000.0001) implicitViscosity = /* Implicit viscosity on/off flag */
(PID.TID 0000.0001)                   F
(PID.TID 0000.0001)     ;
(PID.TID 0000.0001) metricTerms =  /* metric-Terms on/off flag */
(PID.TID 0000.0001)                   T
(PID.TID 0000.0001)     ;
(PID.TID 0000.0001) useNHMTerms = /* Non-Hydrostatic Metric-Terms on/off */
(PID.TID 0000.0001)                   F
(PID.TID 0000.0001)     ;
(PID.TID 0000.0001) selectCoriMap = /* Coriolis Map options (0,1,2,3)*/
(PID.TID 0000.0001)                       2
(PID.TID 0000.0001)     0= f-Plane ; 1= Beta-Plane ; 2= Spherical ; 3= read from file
(PID.TID 0000.0001)     ;
(PID.TID 0000.0001) use3dCoriolis = /* 3-D Coriolis on/off flag */
(PID.TID 0000.0001)                   F
(PID.TID 0000.0001)     ;
(PID.TID 0000.0001) useCoriolis =  /* Coriolis on/off flag */
(PID.TID 0000.0001)                   T
(PID.TID 0000.0001)     ;
(PID.TID 0000.0001) useCDscheme =  /* CD scheme on/off flag */
(PID.TID 0000.0001)                   T
(PID.TID 0000.0001)     ;
(PID.TID 0000.0001) useEnergyConservingCoriolis= /* Flx-Form Coriolis scheme flag */
(PID.TID 0000.0001)                   F
(PID.TID 0000.0001)     ;
(PID.TID 0000.0001) useJamartWetPoints= /* Coriolis WetPoints method flag */
(PID.TID 0000.0001)                   F
(PID.TID 0000.0001)     ;
(PID.TID 0000.0001) useJamartMomAdv= /* V.I Non-linear terms Jamart flag */
(PID.TID 0000.0001)                   F
(PID.TID 0000.0001)     ;
(PID.TID 0000.0001) useAbsVorticity= /* V.I Works with f+zeta in Coriolis */
(PID.TID 0000.0001)                   F
(PID.TID 0000.0001)     ;
(PID.TID 0000.0001) selectVortScheme= /* V.I Scheme selector for Vorticity-Term */
(PID.TID 0000.0001)                       1
(PID.TID 0000.0001)    = 0 : enstrophy (Shallow-Water Eq.) conserving scheme by Sadourny, JAS 75
(PID.TID 0000.0001)    = 1 : same as 0 with modified hFac
(PID.TID 0000.0001)    = 2 : energy conserving scheme (used by Sadourny in JAS 75 paper)
(PID.TID 0000.0001)    = 3 : energy (general) and enstrophy (2D, nonDiv.) conserving scheme
(PID.TID 0000.0001)          from Sadourny (Burridge & Haseler, ECMWF Rep.4, 1977)
(PID.TID 0000.0001)     ;
(PID.TID 0000.0001) upwindVorticity= /* V.I Upwind bias vorticity flag */
(PID.TID 0000.0001)                   F
(PID.TID 0000.0001)     ;
(PID.TID 0000.0001) highOrderVorticity= /* V.I High order vort. advect. flag */
(PID.TID 0000.0001)                   F
(PID.TID 0000.0001)     ;
(PID.TID 0000.0001) upwindShear= /* V.I Upwind vertical Shear advection flag */
(PID.TID 0000.0001)                   F
(PID.TID 0000.0001)     ;
(PID.TID 0000.0001) selectKEscheme= /* V.I Kinetic Energy scheme selector */
(PID.TID 0000.0001)                       0
(PID.TID 0000.0001)     ;
(PID.TID 0000.0001) momForcing =  /* Momentum forcing on/off flag */
(PID.TID 0000.0001)                   T
(PID.TID 0000.0001)     ;
(PID.TID 0000.0001) momPressureForcing =  /* Momentum pressure term on/off flag */
(PID.TID 0000.0001)                   T
(PID.TID 0000.0001)     ;
(PID.TID 0000.0001) implicitIntGravWave= /* Implicit Internal Gravity Wave flag */
(PID.TID 0000.0001)                   F
(PID.TID 0000.0001)     ;
(PID.TID 0000.0001) staggerTimeStep =   /* Stagger time stepping on/off flag */
(PID.TID 0000.0001)                   T
(PID.TID 0000.0001)     ;
(PID.TID 0000.0001) multiDimAdvection =   /* enable/disable Multi-Dim Advection */
(PID.TID 0000.0001)                   T
(PID.TID 0000.0001)     ;
(PID.TID 0000.0001) useMultiDimAdvec =   /* Multi-Dim Advection is/is-not used */
(PID.TID 0000.0001)                   T
(PID.TID 0000.0001)     ;
(PID.TID 0000.0001) implicitDiffusion = /* Implicit Diffusion on/off flag */
(PID.TID 0000.0001)                   T
(PID.TID 0000.0001)     ;
(PID.TID 0000.0001) tempStepping =  /* Temperature equation on/off flag */
(PID.TID 0000.0001)                   T
(PID.TID 0000.0001)     ;
(PID.TID 0000.0001) tempAdvection=  /* Temperature advection on/off flag */
(PID.TID 0000.0001)                   T
(PID.TID 0000.0001)     ;
(PID.TID 0000.0001) tempImplVertAdv = /* Temp. implicit vert. advection on/off */
(PID.TID 0000.0001)                   F
(PID.TID 0000.0001)     ;
(PID.TID 0000.0001) tempForcing  =  /* Temperature forcing on/off flag */
(PID.TID 0000.0001)                   T
(PID.TID 0000.0001)     ;
(PID.TID 0000.0001) tempIsActiveTr = /* Temp. is a dynamically Active Tracer */
(PID.TID 0000.0001)                   T
(PID.TID 0000.0001)     ;
(PID.TID 0000.0001) saltStepping =  /* Salinity equation on/off flag */
(PID.TID 0000.0001)                   T
(PID.TID 0000.0001)     ;
(PID.TID 0000.0001) saltAdvection=  /* Salinity advection on/off flag */
(PID.TID 0000.0001)                   T
(PID.TID 0000.0001)     ;
(PID.TID 0000.0001) saltImplVertAdv = /* Sali. implicit vert. advection on/off */
(PID.TID 0000.0001)                   F
(PID.TID 0000.0001)     ;
(PID.TID 0000.0001) saltForcing  =  /* Salinity forcing on/off flag */
(PID.TID 0000.0001)                   T
(PID.TID 0000.0001)     ;
(PID.TID 0000.0001) saltIsActiveTr = /* Salt  is a dynamically Active Tracer */
(PID.TID 0000.0001)                   T
(PID.TID 0000.0001)     ;
(PID.TID 0000.0001)  readBinaryPrec = /* Precision used for reading binary files */
(PID.TID 0000.0001)                      32
(PID.TID 0000.0001)     ;
(PID.TID 0000.0001) writeBinaryPrec = /* Precision used for writing binary files */
(PID.TID 0000.0001)                      32
(PID.TID 0000.0001)     ;
(PID.TID 0000.0001)  globalFiles = /* write "global" (=not per tile) files */
(PID.TID 0000.0001)                   F
(PID.TID 0000.0001)     ;
(PID.TID 0000.0001)  useSingleCpuIO = /* only master MPI process does I/O */
(PID.TID 0000.0001)                   F
(PID.TID 0000.0001)     ;
(PID.TID 0000.0001) /* debLev[*]  : level of debug & auxiliary message printing */
(PID.TID 0000.0001) debLevZero =  0 ; /* level of disabled aux. msg printing */
(PID.TID 0000.0001)    debLevA =  1 ; /* level of minimum  aux. msg printing */
(PID.TID 0000.0001)    debLevB =  2 ; /* level of low aux. print (report read-file opening)*/
(PID.TID 0000.0001)    debLevC =  3 ; /* level of moderate debug prt (most pkgs debug msg) */
(PID.TID 0000.0001)    debLevD =  4 ; /* level of enhanced debug prt (add DEBUG_STATS prt) */
(PID.TID 0000.0001)    debLevE =  5 ; /* level of extensive debug printing */
(PID.TID 0000.0001) debugLevel =  /* select debug printing level */
(PID.TID 0000.0001)                       1
(PID.TID 0000.0001)     ;
(PID.TID 0000.0001) //
(PID.TID 0000.0001) // Elliptic solver(s) paramters ( PARM02 in namelist )
(PID.TID 0000.0001) //
(PID.TID 0000.0001) cg2dMaxIters =   /* Upper limit on 2d con. grad iterations  */
(PID.TID 0000.0001)                     500
(PID.TID 0000.0001)     ;
(PID.TID 0000.0001) cg2dChkResFreq =   /* 2d con. grad convergence test frequency */
(PID.TID 0000.0001)                       1
(PID.TID 0000.0001)     ;
(PID.TID 0000.0001) cg2dTargetResidual =   /* 2d con. grad target residual  */
(PID.TID 0000.0001)                 1.000000000000000E-13
(PID.TID 0000.0001)     ;
(PID.TID 0000.0001) cg2dTargetResWunit =   /* CG2d target residual [W units] */
(PID.TID 0000.0001)                -1.000000000000000E+00
(PID.TID 0000.0001)     ;
(PID.TID 0000.0001) cg2dPreCondFreq =   /* Freq. for updating cg2d preconditioner */
(PID.TID 0000.0001)                       1
(PID.TID 0000.0001)     ;
(PID.TID 0000.0001) useSRCGSolver =  /* use single reduction CG solver(s) */
(PID.TID 0000.0001)                   F
(PID.TID 0000.0001)     ;
(PID.TID 0000.0001) printResidualFreq = /* Freq. for printing CG residual */
(PID.TID 0000.0001)                       0
(PID.TID 0000.0001)     ;
(PID.TID 0000.0001) //
(PID.TID 0000.0001) // Time stepping paramters ( PARM03 in namelist )
(PID.TID 0000.0001) //
(PID.TID 0000.0001) deltaTmom =   /* Momentum equation timestep ( s ) */
(PID.TID 0000.0001)                 1.200000000000000E+03
(PID.TID 0000.0001)     ;
(PID.TID 0000.0001) deltaTfreesurf = /* FreeSurface equation timestep ( s ) */
(PID.TID 0000.0001)                 1.200000000000000E+03
(PID.TID 0000.0001)     ;
(PID.TID 0000.0001) dTtracerLev =  /* Tracer equation timestep ( s ) */
(PID.TID 0000.0001)    15 @  4.320000000000000E+04              /* K =  1: 15 */
(PID.TID 0000.0001)     ;
(PID.TID 0000.0001) deltaTClock  =   /* Model clock timestep ( s ) */
(PID.TID 0000.0001)                 4.320000000000000E+04
(PID.TID 0000.0001)     ;
(PID.TID 0000.0001) cAdjFreq =   /* Convective adjustment interval ( s ) */
(PID.TID 0000.0001)                 0.000000000000000E+00
(PID.TID 0000.0001)     ;
(PID.TID 0000.0001) momForcingOutAB = /* =1: take Momentum Forcing out of Adams-Bash. stepping */
(PID.TID 0000.0001)                       0
(PID.TID 0000.0001)     ;
(PID.TID 0000.0001) tracForcingOutAB = /* =1: take T,S,pTr Forcing out of Adams-Bash. stepping */
(PID.TID 0000.0001)                       0
(PID.TID 0000.0001)     ;
(PID.TID 0000.0001) momDissip_In_AB = /* put Dissipation Tendency in Adams-Bash. stepping */
(PID.TID 0000.0001)                   T
(PID.TID 0000.0001)     ;
(PID.TID 0000.0001) doAB_onGtGs = /* apply AB on Tendencies (rather than on T,S)*/
(PID.TID 0000.0001)                   T
(PID.TID 0000.0001)     ;
(PID.TID 0000.0001) abEps =   /* Adams-Bashforth-2 stabilizing weight */
(PID.TID 0000.0001)                 1.000000000000000E-01
(PID.TID 0000.0001)     ;
(PID.TID 0000.0001) tauCD =   /* CD coupling time-scale ( s ) */
(PID.TID 0000.0001)                 3.214280000000000E+05
(PID.TID 0000.0001)     ;
(PID.TID 0000.0001) rCD =   /* Normalised CD coupling parameter */
(PID.TID 0000.0001)                 9.962666600296178E-01
(PID.TID 0000.0001)     ;
(PID.TID 0000.0001) epsAB_CD = /* AB-2 stabilizing weight for CD-scheme*/
(PID.TID 0000.0001)                 1.000000000000000E-01
(PID.TID 0000.0001)     ;
(PID.TID 0000.0001) pickupStrictlyMatch= /* stop if pickup do not strictly match */
(PID.TID 0000.0001)                   T
(PID.TID 0000.0001)     ;
(PID.TID 0000.0001) nIter0   =   /* Run starting timestep number */
(PID.TID 0000.0001)                       0
(PID.TID 0000.0001)     ;
(PID.TID 0000.0001) nTimeSteps = /* Number of timesteps */
(PID.TID 0000.0001)                      10
(PID.TID 0000.0001)     ;
(PID.TID 0000.0001) nEndIter =   /* Run ending timestep number */
(PID.TID 0000.0001)                      10
(PID.TID 0000.0001)     ;
(PID.TID 0000.0001) baseTime =   /* Model base time ( s ) */
(PID.TID 0000.0001)                 0.000000000000000E+00
(PID.TID 0000.0001)     ;
(PID.TID 0000.0001) startTime =  /* Run start time ( s ) */
(PID.TID 0000.0001)                 0.000000000000000E+00
(PID.TID 0000.0001)     ;
(PID.TID 0000.0001) endTime  =   /* Integration ending time ( s ) */
(PID.TID 0000.0001)                 4.320000000000000E+05
(PID.TID 0000.0001)     ;
(PID.TID 0000.0001) pChkPtFreq = /* Permanent restart/pickup file interval ( s ) */
(PID.TID 0000.0001)                 3.110400000000000E+08
(PID.TID 0000.0001)     ;
(PID.TID 0000.0001) chkPtFreq  = /* Rolling restart/pickup file interval ( s ) */
(PID.TID 0000.0001)                 0.000000000000000E+00
(PID.TID 0000.0001)     ;
(PID.TID 0000.0001) pickup_write_mdsio =   /* Model IO flag. */
(PID.TID 0000.0001)                   T
(PID.TID 0000.0001)     ;
(PID.TID 0000.0001) pickup_read_mdsio =   /* Model IO flag. */
(PID.TID 0000.0001)                   T
(PID.TID 0000.0001)     ;
(PID.TID 0000.0001) pickup_write_mnc =   /* Model IO flag. */
(PID.TID 0000.0001)                   F
(PID.TID 0000.0001)     ;
(PID.TID 0000.0001) pickup_read_mnc =   /* Model IO flag. */
(PID.TID 0000.0001)                   F
(PID.TID 0000.0001)     ;
(PID.TID 0000.0001) pickup_write_immed =   /* Model IO flag. */
(PID.TID 0000.0001)                   F
(PID.TID 0000.0001)     ;
(PID.TID 0000.0001) writePickupAtEnd =   /* Model IO flag. */
(PID.TID 0000.0001)                   T
(PID.TID 0000.0001)     ;
(PID.TID 0000.0001) dumpFreq =   /* Model state write out interval ( s ). */
(PID.TID 0000.0001)                 8.640000000000000E+05
(PID.TID 0000.0001)     ;
(PID.TID 0000.0001) dumpInitAndLast= /* write out Initial & Last iter. model state */
(PID.TID 0000.0001)                   T
(PID.TID 0000.0001)     ;
(PID.TID 0000.0001) snapshot_mdsio =   /* Model IO flag. */
(PID.TID 0000.0001)                   F
(PID.TID 0000.0001)     ;
(PID.TID 0000.0001) snapshot_mnc =   /* Model IO flag. */
(PID.TID 0000.0001)                   T
(PID.TID 0000.0001)     ;
(PID.TID 0000.0001) monitorFreq =   /* Monitor output interval ( s ). */
(PID.TID 0000.0001)                 1.000000000000000E+00
(PID.TID 0000.0001)     ;
(PID.TID 0000.0001) monitorSelect = /* select group of variables to monitor */
(PID.TID 0000.0001)                       3
(PID.TID 0000.0001)     ;
(PID.TID 0000.0001) monitor_stdio =   /* Model IO flag. */
(PID.TID 0000.0001)                   T
(PID.TID 0000.0001)     ;
(PID.TID 0000.0001) monitor_mnc =   /* Model IO flag. */
(PID.TID 0000.0001)                   F
(PID.TID 0000.0001)     ;
(PID.TID 0000.0001) externForcingPeriod =   /* forcing period (s) */
(PID.TID 0000.0001)                 2.592000000000000E+06
(PID.TID 0000.0001)     ;
(PID.TID 0000.0001) externForcingCycle =   /* period of the cyle (s). */
(PID.TID 0000.0001)                 3.110400000000000E+07
(PID.TID 0000.0001)     ;
(PID.TID 0000.0001) tauThetaClimRelax =   /* relaxation time scale (s) */
(PID.TID 0000.0001)                 5.184000000000000E+06
(PID.TID 0000.0001)     ;
(PID.TID 0000.0001) tauSaltClimRelax =   /* relaxation time scale (s) */
(PID.TID 0000.0001)                 1.555200000000000E+07
(PID.TID 0000.0001)     ;
(PID.TID 0000.0001) latBandClimRelax =   /* max. Lat. where relaxation */
(PID.TID 0000.0001)                 1.800000000000000E+02
(PID.TID 0000.0001)     ;
(PID.TID 0000.0001) //
(PID.TID 0000.0001) // Gridding paramters ( PARM04 in namelist )
(PID.TID 0000.0001) //
(PID.TID 0000.0001) usingCartesianGrid = /* Cartesian coordinates flag ( True/False ) */
(PID.TID 0000.0001)                   F
(PID.TID 0000.0001)     ;
(PID.TID 0000.0001) usingCylindricalGrid = /* Cylindrical coordinates flag ( True/False ) */
(PID.TID 0000.0001)                   F
(PID.TID 0000.0001)     ;
(PID.TID 0000.0001) usingSphericalPolarGrid = /* Spherical coordinates flag ( True/False ) */
(PID.TID 0000.0001)                   T
(PID.TID 0000.0001)     ;
(PID.TID 0000.0001) usingCurvilinearGrid = /* Curvilinear coordinates flag ( True/False ) */
(PID.TID 0000.0001)                   F
(PID.TID 0000.0001)     ;
(PID.TID 0000.0001) selectSigmaCoord = /* Hybrid-Sigma Vert. Coordinate option */
(PID.TID 0000.0001)                       0
(PID.TID 0000.0001)     ;
(PID.TID 0000.0001) Ro_SeaLevel = /* r(1) ( units of r ==  m ) */
(PID.TID 0000.0001)                 0.000000000000000E+00
(PID.TID 0000.0001)     ;
(PID.TID 0000.0001) rSigmaBnd = /* r/sigma transition ( units of r ==  m ) */
(PID.TID 0000.0001)                 1.234567000000000E+05
(PID.TID 0000.0001)     ;
(PID.TID 0000.0001) rkSign =   /* index orientation relative to vertical coordinate */
(PID.TID 0000.0001)                -1.000000000000000E+00
(PID.TID 0000.0001)     ;
(PID.TID 0000.0001) gravitySign = /* gravity orientation relative to vertical coordinate */
(PID.TID 0000.0001)                -1.000000000000000E+00
(PID.TID 0000.0001)     ;
(PID.TID 0000.0001) mass2rUnit = /* convert mass per unit area [kg/m2] to r-units [m] */
(PID.TID 0000.0001)                 9.661835748792270E-04
(PID.TID 0000.0001)     ;
(PID.TID 0000.0001) rUnit2mass = /* convert r-units [m] to mass per unit area [kg/m2] */
(PID.TID 0000.0001)                 1.035000000000000E+03
(PID.TID 0000.0001)     ;
(PID.TID 0000.0001) drC =   /* C spacing ( units of r ) */
(PID.TID 0000.0001)                 2.500000000000000E+01,      /* K =  1 */
(PID.TID 0000.0001)                 6.000000000000000E+01,      /* K =  2 */
(PID.TID 0000.0001)                 8.500000000000000E+01,      /* K =  3 */
(PID.TID 0000.0001)                 1.200000000000000E+02,      /* K =  4 */
(PID.TID 0000.0001)                 1.650000000000000E+02,      /* K =  5 */
(PID.TID 0000.0001)                 2.150000000000000E+02,      /* K =  6 */
(PID.TID 0000.0001)                 2.650000000000000E+02,      /* K =  7 */
(PID.TID 0000.0001)                 3.150000000000000E+02,      /* K =  8 */
(PID.TID 0000.0001)                 3.650000000000000E+02,      /* K =  9 */
(PID.TID 0000.0001)                 4.150000000000000E+02,      /* K = 10 */
(PID.TID 0000.0001)                 4.650000000000000E+02,      /* K = 11 */
(PID.TID 0000.0001)                 5.150000000000000E+02,      /* K = 12 */
(PID.TID 0000.0001)                 5.650000000000000E+02,      /* K = 13 */
(PID.TID 0000.0001)                 6.150000000000000E+02,      /* K = 14 */
(PID.TID 0000.0001)                 6.650000000000000E+02       /* K = 15 */
(PID.TID 0000.0001)     ;
(PID.TID 0000.0001) drF =   /* W spacing ( units of r ) */
(PID.TID 0000.0001)                 5.000000000000000E+01,      /* K =  1 */
(PID.TID 0000.0001)                 7.000000000000000E+01,      /* K =  2 */
(PID.TID 0000.0001)                 1.000000000000000E+02,      /* K =  3 */
(PID.TID 0000.0001)                 1.400000000000000E+02,      /* K =  4 */
(PID.TID 0000.0001)                 1.900000000000000E+02,      /* K =  5 */
(PID.TID 0000.0001)                 2.400000000000000E+02,      /* K =  6 */
(PID.TID 0000.0001)                 2.900000000000000E+02,      /* K =  7 */
(PID.TID 0000.0001)                 3.400000000000000E+02,      /* K =  8 */
(PID.TID 0000.0001)                 3.900000000000000E+02,      /* K =  9 */
(PID.TID 0000.0001)                 4.400000000000000E+02,      /* K = 10 */
(PID.TID 0000.0001)                 4.900000000000000E+02,      /* K = 11 */
(PID.TID 0000.0001)                 5.400000000000000E+02,      /* K = 12 */
(PID.TID 0000.0001)                 5.900000000000000E+02,      /* K = 13 */
(PID.TID 0000.0001)                 6.400000000000000E+02,      /* K = 14 */
(PID.TID 0000.0001)                 6.900000000000000E+02       /* K = 15 */
(PID.TID 0000.0001)     ;
(PID.TID 0000.0001) delX = /* U spacing ( m - cartesian, degrees - spherical ) */
(PID.TID 0000.0001)    90 @  4.000000000000000E+00              /* I =  1: 90 */
(PID.TID 0000.0001)     ;
(PID.TID 0000.0001) delY = /* V spacing ( m - cartesian, degrees - spherical ) */
(PID.TID 0000.0001)    40 @  4.000000000000000E+00              /* J =  1: 40 */
(PID.TID 0000.0001)     ;
(PID.TID 0000.0001) xgOrigin = /* X-axis origin of West  edge (cartesian: m, lat-lon: deg.) */
(PID.TID 0000.0001)                 0.000000000000000E+00
(PID.TID 0000.0001)     ;
(PID.TID 0000.0001) ygOrigin = /* Y-axis origin of South edge (cartesian: m, lat-lon: deg.) */
(PID.TID 0000.0001)                -8.000000000000000E+01
(PID.TID 0000.0001)     ;
(PID.TID 0000.0001) rSphere =  /* Radius ( ignored - cartesian, m - spherical ) */
(PID.TID 0000.0001)                 6.370000000000000E+06
(PID.TID 0000.0001)     ;
(PID.TID 0000.0001) deepAtmosphere = /* Deep/Shallow Atmosphere flag (True/False) */
(PID.TID 0000.0001)                   F
(PID.TID 0000.0001)     ;
(PID.TID 0000.0001) xC =  /* xC(:,1,:,1) : P-point X coord ( deg. or m if cartesian) */
(PID.TID 0000.0001)                 2.000000000000000E+00,      /* I =  1 */
(PID.TID 0000.0001)                 6.000000000000000E+00,      /* I =  2 */
(PID.TID 0000.0001)                 1.000000000000000E+01,      /* I =  3 */
(PID.TID 0000.0001)      . . .
(PID.TID 0000.0001)                 8.200000000000000E+01,      /* I = 21 */
(PID.TID 0000.0001)                 8.600000000000000E+01,      /* I = 22 */
(PID.TID 0000.0001)                 9.000000000000000E+01,      /* I = 23 */
(PID.TID 0000.0001)                 9.400000000000000E+01,      /* I = 24 */
(PID.TID 0000.0001)                 9.800000000000000E+01,      /* I = 25 */
(PID.TID 0000.0001)                 1.020000000000000E+02,      /* I = 26 */
(PID.TID 0000.0001)      . . .
(PID.TID 0000.0001)                 1.700000000000000E+02,      /* I = 43 */
(PID.TID 0000.0001)                 1.740000000000000E+02,      /* I = 44 */
(PID.TID 0000.0001)                 1.780000000000000E+02,      /* I = 45 */
(PID.TID 0000.0001)                 1.820000000000000E+02,      /* I = 46 */
(PID.TID 0000.0001)                 1.860000000000000E+02,      /* I = 47 */
(PID.TID 0000.0001)                 1.900000000000000E+02,      /* I = 48 */
(PID.TID 0000.0001)      . . .
(PID.TID 0000.0001)                 2.580000000000000E+02,      /* I = 65 */
(PID.TID 0000.0001)                 2.620000000000000E+02,      /* I = 66 */
(PID.TID 0000.0001)                 2.660000000000000E+02,      /* I = 67 */
(PID.TID 0000.0001)                 2.700000000000000E+02,      /* I = 68 */
(PID.TID 0000.0001)                 2.740000000000000E+02,      /* I = 69 */
(PID.TID 0000.0001)                 2.780000000000000E+02,      /* I = 70 */
(PID.TID 0000.0001)      . . .
(PID.TID 0000.0001)                 3.500000000000000E+02,      /* I = 88 */
(PID.TID 0000.0001)                 3.540000000000000E+02,      /* I = 89 */
(PID.TID 0000.0001)                 3.580000000000000E+02       /* I = 90 */
(PID.TID 0000.0001)     ;
(PID.TID 0000.0001) yC =  /* yC(1,:,1,:) : P-point Y coord ( deg. or m if cartesian) */
(PID.TID 0000.0001)                -7.800000000000000E+01,      /* J =  1 */
(PID.TID 0000.0001)                -7.400000000000000E+01,      /* J =  2 */
(PID.TID 0000.0001)                -7.000000000000000E+01,      /* J =  3 */
(PID.TID 0000.0001)                -6.600000000000000E+01,      /* J =  4 */
(PID.TID 0000.0001)                -6.200000000000000E+01,      /* J =  5 */
(PID.TID 0000.0001)                -5.800000000000000E+01,      /* J =  6 */
(PID.TID 0000.0001)                -5.400000000000000E+01,      /* J =  7 */
(PID.TID 0000.0001)                -5.000000000000000E+01,      /* J =  8 */
(PID.TID 0000.0001)                -4.600000000000000E+01,      /* J =  9 */
(PID.TID 0000.0001)                -4.200000000000000E+01,      /* J = 10 */
(PID.TID 0000.0001)                -3.800000000000000E+01,      /* J = 11 */
(PID.TID 0000.0001)                -3.400000000000000E+01,      /* J = 12 */
(PID.TID 0000.0001)                -3.000000000000000E+01,      /* J = 13 */
(PID.TID 0000.0001)                -2.600000000000000E+01,      /* J = 14 */
(PID.TID 0000.0001)                -2.200000000000000E+01,      /* J = 15 */
(PID.TID 0000.0001)                -1.800000000000000E+01,      /* J = 16 */
(PID.TID 0000.0001)                -1.400000000000000E+01,      /* J = 17 */
(PID.TID 0000.0001)                -1.000000000000000E+01,      /* J = 18 */
(PID.TID 0000.0001)                -6.000000000000000E+00,      /* J = 19 */
(PID.TID 0000.0001)                -2.000000000000000E+00,      /* J = 20 */
(PID.TID 0000.0001)                 2.000000000000000E+00,      /* J = 21 */
(PID.TID 0000.0001)                 6.000000000000000E+00,      /* J = 22 */
(PID.TID 0000.0001)                 1.000000000000000E+01,      /* J = 23 */
(PID.TID 0000.0001)                 1.400000000000000E+01,      /* J = 24 */
(PID.TID 0000.0001)                 1.800000000000000E+01,      /* J = 25 */
(PID.TID 0000.0001)                 2.200000000000000E+01,      /* J = 26 */
(PID.TID 0000.0001)                 2.600000000000000E+01,      /* J = 27 */
(PID.TID 0000.0001)                 3.000000000000000E+01,      /* J = 28 */
(PID.TID 0000.0001)                 3.400000000000000E+01,      /* J = 29 */
(PID.TID 0000.0001)                 3.800000000000000E+01,      /* J = 30 */
(PID.TID 0000.0001)                 4.200000000000000E+01,      /* J = 31 */
(PID.TID 0000.0001)                 4.600000000000000E+01,      /* J = 32 */
(PID.TID 0000.0001)                 5.000000000000000E+01,      /* J = 33 */
(PID.TID 0000.0001)                 5.400000000000000E+01,      /* J = 34 */
(PID.TID 0000.0001)                 5.800000000000000E+01,      /* J = 35 */
(PID.TID 0000.0001)                 6.200000000000000E+01,      /* J = 36 */
(PID.TID 0000.0001)                 6.600000000000000E+01,      /* J = 37 */
(PID.TID 0000.0001)                 7.000000000000000E+01,      /* J = 38 */
(PID.TID 0000.0001)                 7.400000000000000E+01,      /* J = 39 */
(PID.TID 0000.0001)                 7.800000000000000E+01       /* J = 40 */
(PID.TID 0000.0001)     ;
(PID.TID 0000.0001) rcoord = /* P-point R coordinate (  units of r ) */
(PID.TID 0000.0001)                -2.500000000000000E+01,      /* K =  1 */
(PID.TID 0000.0001)                -8.500000000000000E+01,      /* K =  2 */
(PID.TID 0000.0001)                -1.700000000000000E+02,      /* K =  3 */
(PID.TID 0000.0001)                -2.900000000000000E+02,      /* K =  4 */
(PID.TID 0000.0001)                -4.550000000000000E+02,      /* K =  5 */
(PID.TID 0000.0001)                -6.700000000000000E+02,      /* K =  6 */
(PID.TID 0000.0001)                -9.350000000000000E+02,      /* K =  7 */
(PID.TID 0000.0001)                -1.250000000000000E+03,      /* K =  8 */
(PID.TID 0000.0001)                -1.615000000000000E+03,      /* K =  9 */
(PID.TID 0000.0001)                -2.030000000000000E+03,      /* K = 10 */
(PID.TID 0000.0001)                -2.495000000000000E+03,      /* K = 11 */
(PID.TID 0000.0001)                -3.010000000000000E+03,      /* K = 12 */
(PID.TID 0000.0001)                -3.575000000000000E+03,      /* K = 13 */
(PID.TID 0000.0001)                -4.190000000000000E+03,      /* K = 14 */
(PID.TID 0000.0001)                -4.855000000000000E+03       /* K = 15 */
(PID.TID 0000.0001)     ;
(PID.TID 0000.0001) rF =   /* W-Interf. R coordinate (  units of r ) */
(PID.TID 0000.0001)                 0.000000000000000E+00,      /* K =  1 */
(PID.TID 0000.0001)                -5.000000000000000E+01,      /* K =  2 */
(PID.TID 0000.0001)                -1.200000000000000E+02,      /* K =  3 */
(PID.TID 0000.0001)                -2.200000000000000E+02,      /* K =  4 */
(PID.TID 0000.0001)                -3.600000000000000E+02,      /* K =  5 */
(PID.TID 0000.0001)                -5.500000000000000E+02,      /* K =  6 */
(PID.TID 0000.0001)                -7.900000000000000E+02,      /* K =  7 */
(PID.TID 0000.0001)                -1.080000000000000E+03,      /* K =  8 */
(PID.TID 0000.0001)                -1.420000000000000E+03,      /* K =  9 */
(PID.TID 0000.0001)                -1.810000000000000E+03,      /* K = 10 */
(PID.TID 0000.0001)                -2.250000000000000E+03,      /* K = 11 */
(PID.TID 0000.0001)                -2.740000000000000E+03,      /* K = 12 */
(PID.TID 0000.0001)                -3.280000000000000E+03,      /* K = 13 */
(PID.TID 0000.0001)                -3.870000000000000E+03,      /* K = 14 */
(PID.TID 0000.0001)                -4.510000000000000E+03,      /* K = 15 */
(PID.TID 0000.0001)                -5.200000000000000E+03       /* K = 16 */
(PID.TID 0000.0001)     ;
(PID.TID 0000.0001) deepFacC = /* deep-model grid factor @ cell-Center (-) */
(PID.TID 0000.0001)    15 @  1.000000000000000E+00              /* K =  1: 15 */
(PID.TID 0000.0001)     ;
(PID.TID 0000.0001) deepFacF = /* deep-model grid factor @ W-Interface (-) */
(PID.TID 0000.0001)    16 @  1.000000000000000E+00              /* K =  1: 16 */
(PID.TID 0000.0001)     ;
(PID.TID 0000.0001) rVel2wUnit = /* convert units: rVel -> wSpeed (=1 if z-coord)*/
(PID.TID 0000.0001)    16 @  1.000000000000000E+00              /* K =  1: 16 */
(PID.TID 0000.0001)     ;
(PID.TID 0000.0001) wUnit2rVel = /* convert units: wSpeed -> rVel (=1 if z-coord)*/
(PID.TID 0000.0001)    16 @  1.000000000000000E+00              /* K =  1: 16 */
(PID.TID 0000.0001)     ;
(PID.TID 0000.0001) dBdrRef = /* Vertical grad. of reference buoyancy [(m/s/r)^2] */
(PID.TID 0000.0001)    15 @  0.000000000000000E+00              /* K =  1: 15 */
(PID.TID 0000.0001)     ;
(PID.TID 0000.0001) rotateGrid = /* use rotated grid ( True/False ) */
(PID.TID 0000.0001)                   F
(PID.TID 0000.0001)     ;
(PID.TID 0000.0001) phiEuler = /* Euler angle, rotation about original z-coordinate [rad] */
(PID.TID 0000.0001)                 0.000000000000000E+00
(PID.TID 0000.0001)     ;
(PID.TID 0000.0001) thetaEuler = /* Euler angle, rotation about new x-coordinate [rad] */
(PID.TID 0000.0001)                 0.000000000000000E+00
(PID.TID 0000.0001)     ;
(PID.TID 0000.0001) psiEuler = /* Euler angle, rotation about new z-coordinate [rad] */
(PID.TID 0000.0001)                 0.000000000000000E+00
(PID.TID 0000.0001)     ;
(PID.TID 0000.0001) dxF =  /* dxF(:,1,:,1) ( units: m ) */
(PID.TID 0000.0001)    90 @  9.246038586187513E+04              /* I =  1: 90 */
(PID.TID 0000.0001)     ;
(PID.TID 0000.0001) dxF =  /* dxF(1,:,1,:) ( units: m ) */
(PID.TID 0000.0001)                 9.246038586187513E+04,      /* J =  1 */
(PID.TID 0000.0001)                 1.225786591246834E+05,      /* J =  2 */
(PID.TID 0000.0001)                 1.520997414818001E+05,      /* J =  3 */
(PID.TID 0000.0001)                 1.808798091874300E+05,      /* J =  4 */
(PID.TID 0000.0001)                 2.087786486446736E+05,      /* J =  5 */
(PID.TID 0000.0001)                 2.356603395120765E+05,      /* J =  6 */
(PID.TID 0000.0001)                 2.613939168938713E+05,      /* J =  7 */
(PID.TID 0000.0001)                 2.858540093877838E+05,      /* J =  8 */
(PID.TID 0000.0001)                 3.089214498819034E+05,      /* J =  9 */
(PID.TID 0000.0001)                 3.304838561248741E+05,      /* J = 10 */
(PID.TID 0000.0001)                 3.504361782409254E+05,      /* J = 11 */
(PID.TID 0000.0001)                 3.686812105223082E+05,      /* J = 12 */
(PID.TID 0000.0001)                 3.851300650057323E+05,      /* J = 13 */
(PID.TID 0000.0001)                 3.997026045255871E+05,      /* J = 14 */
(PID.TID 0000.0001)                 4.123278331341585E+05,      /* J = 15 */
(PID.TID 0000.0001)                 4.229442419867491E+05,      /* J = 16 */
(PID.TID 0000.0001)                 4.315001090065870E+05,      /* J = 17 */
(PID.TID 0000.0001)                 4.379537508695838E+05,      /* J = 18 */
(PID.TID 0000.0001)                 4.422737260813012E+05,      /* J = 19 */
(PID.TID 0000.0001)     2 @  4.444389881567502E+05,             /* J = 20: 21 */
(PID.TID 0000.0001)                 4.422737260813012E+05,      /* J = 22 */
(PID.TID 0000.0001)                 4.379537508695838E+05,      /* J = 23 */
(PID.TID 0000.0001)                 4.315001090065870E+05,      /* J = 24 */
(PID.TID 0000.0001)                 4.229442419867491E+05,      /* J = 25 */
(PID.TID 0000.0001)                 4.123278331341585E+05,      /* J = 26 */
(PID.TID 0000.0001)                 3.997026045255871E+05,      /* J = 27 */
(PID.TID 0000.0001)                 3.851300650057323E+05,      /* J = 28 */
(PID.TID 0000.0001)                 3.686812105223082E+05,      /* J = 29 */
(PID.TID 0000.0001)                 3.504361782409254E+05,      /* J = 30 */
(PID.TID 0000.0001)                 3.304838561248741E+05,      /* J = 31 */
(PID.TID 0000.0001)                 3.089214498819034E+05,      /* J = 32 */
(PID.TID 0000.0001)                 2.858540093877838E+05,      /* J = 33 */
(PID.TID 0000.0001)                 2.613939168938713E+05,      /* J = 34 */
(PID.TID 0000.0001)                 2.356603395120765E+05,      /* J = 35 */
(PID.TID 0000.0001)                 2.087786486446736E+05,      /* J = 36 */
(PID.TID 0000.0001)                 1.808798091874300E+05,      /* J = 37 */
(PID.TID 0000.0001)                 1.520997414818001E+05,      /* J = 38 */
(PID.TID 0000.0001)                 1.225786591246834E+05,      /* J = 39 */
(PID.TID 0000.0001)                 9.246038586187513E+04       /* J = 40 */
(PID.TID 0000.0001)     ;
(PID.TID 0000.0001) dyF =  /* dyF(:,1,:,1) ( units: m ) */
(PID.TID 0000.0001)    90 @  4.447098934081552E+05              /* I =  1: 90 */
(PID.TID 0000.0001)     ;
(PID.TID 0000.0001) dyF =  /* dyF(1,:,1,:) ( units: m ) */
(PID.TID 0000.0001)    40 @  4.447098934081552E+05              /* J =  1: 40 */
(PID.TID 0000.0001)     ;
(PID.TID 0000.0001) dxG =  /* dxG(:,1,:,1) ( units: m ) */
(PID.TID 0000.0001)    90 @  7.722306258078101E+04              /* I =  1: 90 */
(PID.TID 0000.0001)     ;
(PID.TID 0000.0001) dxG =  /* dxG(1,:,1,:) ( units: m ) */
(PID.TID 0000.0001)                 7.722306258078101E+04,      /* J =  1 */
(PID.TID 0000.0001)                 1.075850604052271E+05,      /* J =  2 */
(PID.TID 0000.0001)                 1.374229146297914E+05,      /* J =  3 */
(PID.TID 0000.0001)                 1.665912582279823E+05,      /* J =  4 */
(PID.TID 0000.0001)                 1.949479859617814E+05,      /* J =  5 */
(PID.TID 0000.0001)                 2.223549467040777E+05,      /* J =  6 */
(PID.TID 0000.0001)                 2.486786164970726E+05,      /* J =  7 */
(PID.TID 0000.0001)                 2.737907490675810E+05,      /* J =  8 */
(PID.TID 0000.0001)                 2.975690006299821E+05,      /* J =  9 */
(PID.TID 0000.0001)                 3.198975259328452E+05,      /* J = 10 */
(PID.TID 0000.0001)                 3.406675426453503E+05,      /* J = 11 */
(PID.TID 0000.0001)                 3.597778613338690E+05,      /* J = 12 */
(PID.TID 0000.0001)                 3.771353784467131E+05,      /* J = 13 */
(PID.TID 0000.0001)                 3.926555299052806E+05,      /* J = 14 */
(PID.TID 0000.0001)                 4.062627030917454E+05,      /* J = 15 */
(PID.TID 0000.0001)                 4.178906052261313E+05,      /* J = 16 */
(PID.TID 0000.0001)                 4.274825863380723E+05,      /* J = 17 */
(PID.TID 0000.0001)                 4.349919152597734E+05,      /* J = 18 */
(PID.TID 0000.0001)                 4.403820072955634E+05,      /* J = 19 */
(PID.TID 0000.0001)                 4.436266024588540E+05,      /* J = 20 */
(PID.TID 0000.0001)                 4.447098934081552E+05,      /* J = 21 */
(PID.TID 0000.0001)                 4.436266024588540E+05,      /* J = 22 */
(PID.TID 0000.0001)                 4.403820072955634E+05,      /* J = 23 */
(PID.TID 0000.0001)                 4.349919152597734E+05,      /* J = 24 */
(PID.TID 0000.0001)                 4.274825863380723E+05,      /* J = 25 */
(PID.TID 0000.0001)                 4.178906052261313E+05,      /* J = 26 */
(PID.TID 0000.0001)                 4.062627030917454E+05,      /* J = 27 */
(PID.TID 0000.0001)                 3.926555299052806E+05,      /* J = 28 */
(PID.TID 0000.0001)                 3.771353784467131E+05,      /* J = 29 */
(PID.TID 0000.0001)                 3.597778613338690E+05,      /* J = 30 */
(PID.TID 0000.0001)                 3.406675426453503E+05,      /* J = 31 */
(PID.TID 0000.0001)                 3.198975259328452E+05,      /* J = 32 */
(PID.TID 0000.0001)                 2.975690006299821E+05,      /* J = 33 */
(PID.TID 0000.0001)                 2.737907490675810E+05,      /* J = 34 */
(PID.TID 0000.0001)                 2.486786164970726E+05,      /* J = 35 */
(PID.TID 0000.0001)                 2.223549467040777E+05,      /* J = 36 */
(PID.TID 0000.0001)                 1.949479859617814E+05,      /* J = 37 */
(PID.TID 0000.0001)                 1.665912582279823E+05,      /* J = 38 */
(PID.TID 0000.0001)                 1.374229146297914E+05,      /* J = 39 */
(PID.TID 0000.0001)                 1.075850604052271E+05       /* J = 40 */
(PID.TID 0000.0001)     ;
(PID.TID 0000.0001) dyG =  /* dyG(:,1,:,1) ( units: m ) */
(PID.TID 0000.0001)    90 @  4.447098934081552E+05              /* I =  1: 90 */
(PID.TID 0000.0001)     ;
(PID.TID 0000.0001) dyG =  /* dyG(1,:,1,:) ( units: m ) */
(PID.TID 0000.0001)    40 @  4.447098934081552E+05              /* J =  1: 40 */
(PID.TID 0000.0001)     ;
(PID.TID 0000.0001) dxC =  /* dxC(:,1,:,1) ( units: m ) */
(PID.TID 0000.0001)    90 @  9.246038586187513E+04              /* I =  1: 90 */
(PID.TID 0000.0001)     ;
(PID.TID 0000.0001) dxC =  /* dxC(1,:,1,:) ( units: m ) */
(PID.TID 0000.0001)                 9.246038586187513E+04,      /* J =  1 */
(PID.TID 0000.0001)                 1.225786591246834E+05,      /* J =  2 */
(PID.TID 0000.0001)                 1.520997414818001E+05,      /* J =  3 */
(PID.TID 0000.0001)                 1.808798091874300E+05,      /* J =  4 */
(PID.TID 0000.0001)                 2.087786486446736E+05,      /* J =  5 */
(PID.TID 0000.0001)                 2.356603395120765E+05,      /* J =  6 */
(PID.TID 0000.0001)                 2.613939168938713E+05,      /* J =  7 */
(PID.TID 0000.0001)                 2.858540093877838E+05,      /* J =  8 */
(PID.TID 0000.0001)                 3.089214498819034E+05,      /* J =  9 */
(PID.TID 0000.0001)                 3.304838561248741E+05,      /* J = 10 */
(PID.TID 0000.0001)                 3.504361782409254E+05,      /* J = 11 */
(PID.TID 0000.0001)                 3.686812105223082E+05,      /* J = 12 */
(PID.TID 0000.0001)                 3.851300650057323E+05,      /* J = 13 */
(PID.TID 0000.0001)                 3.997026045255871E+05,      /* J = 14 */
(PID.TID 0000.0001)                 4.123278331341585E+05,      /* J = 15 */
(PID.TID 0000.0001)                 4.229442419867491E+05,      /* J = 16 */
(PID.TID 0000.0001)                 4.315001090065870E+05,      /* J = 17 */
(PID.TID 0000.0001)                 4.379537508695838E+05,      /* J = 18 */
(PID.TID 0000.0001)                 4.422737260813012E+05,      /* J = 19 */
(PID.TID 0000.0001)     2 @  4.444389881567502E+05,             /* J = 20: 21 */
(PID.TID 0000.0001)                 4.422737260813012E+05,      /* J = 22 */
(PID.TID 0000.0001)                 4.379537508695838E+05,      /* J = 23 */
(PID.TID 0000.0001)                 4.315001090065870E+05,      /* J = 24 */
(PID.TID 0000.0001)                 4.229442419867491E+05,      /* J = 25 */
(PID.TID 0000.0001)                 4.123278331341585E+05,      /* J = 26 */
(PID.TID 0000.0001)                 3.997026045255871E+05,      /* J = 27 */
(PID.TID 0000.0001)                 3.851300650057323E+05,      /* J = 28 */
(PID.TID 0000.0001)                 3.686812105223082E+05,      /* J = 29 */
(PID.TID 0000.0001)                 3.504361782409254E+05,      /* J = 30 */
(PID.TID 0000.0001)                 3.304838561248741E+05,      /* J = 31 */
(PID.TID 0000.0001)                 3.089214498819034E+05,      /* J = 32 */
(PID.TID 0000.0001)                 2.858540093877838E+05,      /* J = 33 */
(PID.TID 0000.0001)                 2.613939168938713E+05,      /* J = 34 */
(PID.TID 0000.0001)                 2.356603395120765E+05,      /* J = 35 */
(PID.TID 0000.0001)                 2.087786486446736E+05,      /* J = 36 */
(PID.TID 0000.0001)                 1.808798091874300E+05,      /* J = 37 */
(PID.TID 0000.0001)                 1.520997414818001E+05,      /* J = 38 */
(PID.TID 0000.0001)                 1.225786591246834E+05,      /* J = 39 */
(PID.TID 0000.0001)                 9.246038586187513E+04       /* J = 40 */
(PID.TID 0000.0001)     ;
(PID.TID 0000.0001) dyC =  /* dyC(:,1,:,1) ( units: m ) */
(PID.TID 0000.0001)    90 @  4.447098934081552E+05              /* I =  1: 90 */
(PID.TID 0000.0001)     ;
(PID.TID 0000.0001) dyC =  /* dyC(1,:,1,:) ( units: m ) */
(PID.TID 0000.0001)    40 @  4.447098934081552E+05              /* J =  1: 40 */
(PID.TID 0000.0001)     ;
(PID.TID 0000.0001) dxV =  /* dxV(:,1,:,1) ( units: m ) */
(PID.TID 0000.0001)    90 @  7.722306258078101E+04              /* I =  1: 90 */
(PID.TID 0000.0001)     ;
(PID.TID 0000.0001) dxV =  /* dxV(1,:,1,:) ( units: m ) */
(PID.TID 0000.0001)                 7.722306258078101E+04,      /* J =  1 */
(PID.TID 0000.0001)                 1.075850604052271E+05,      /* J =  2 */
(PID.TID 0000.0001)                 1.374229146297914E+05,      /* J =  3 */
(PID.TID 0000.0001)                 1.665912582279823E+05,      /* J =  4 */
(PID.TID 0000.0001)                 1.949479859617814E+05,      /* J =  5 */
(PID.TID 0000.0001)                 2.223549467040777E+05,      /* J =  6 */
(PID.TID 0000.0001)                 2.486786164970726E+05,      /* J =  7 */
(PID.TID 0000.0001)                 2.737907490675810E+05,      /* J =  8 */
(PID.TID 0000.0001)                 2.975690006299821E+05,      /* J =  9 */
(PID.TID 0000.0001)                 3.198975259328452E+05,      /* J = 10 */
(PID.TID 0000.0001)                 3.406675426453503E+05,      /* J = 11 */
(PID.TID 0000.0001)                 3.597778613338690E+05,      /* J = 12 */
(PID.TID 0000.0001)                 3.771353784467131E+05,      /* J = 13 */
(PID.TID 0000.0001)                 3.926555299052806E+05,      /* J = 14 */
(PID.TID 0000.0001)                 4.062627030917454E+05,      /* J = 15 */
(PID.TID 0000.0001)                 4.178906052261313E+05,      /* J = 16 */
(PID.TID 0000.0001)                 4.274825863380723E+05,      /* J = 17 */
(PID.TID 0000.0001)                 4.349919152597734E+05,      /* J = 18 */
(PID.TID 0000.0001)                 4.403820072955634E+05,      /* J = 19 */
(PID.TID 0000.0001)                 4.436266024588540E+05,      /* J = 20 */
(PID.TID 0000.0001)                 4.447098934081552E+05,      /* J = 21 */
(PID.TID 0000.0001)                 4.436266024588540E+05,      /* J = 22 */
(PID.TID 0000.0001)                 4.403820072955634E+05,      /* J = 23 */
(PID.TID 0000.0001)                 4.349919152597734E+05,      /* J = 24 */
(PID.TID 0000.0001)                 4.274825863380723E+05,      /* J = 25 */
(PID.TID 0000.0001)                 4.178906052261313E+05,      /* J = 26 */
(PID.TID 0000.0001)                 4.062627030917454E+05,      /* J = 27 */
(PID.TID 0000.0001)                 3.926555299052806E+05,      /* J = 28 */
(PID.TID 0000.0001)                 3.771353784467131E+05,      /* J = 29 */
(PID.TID 0000.0001)                 3.597778613338690E+05,      /* J = 30 */
(PID.TID 0000.0001)                 3.406675426453503E+05,      /* J = 31 */
(PID.TID 0000.0001)                 3.198975259328452E+05,      /* J = 32 */
(PID.TID 0000.0001)                 2.975690006299821E+05,      /* J = 33 */
(PID.TID 0000.0001)                 2.737907490675810E+05,      /* J = 34 */
(PID.TID 0000.0001)                 2.486786164970726E+05,      /* J = 35 */
(PID.TID 0000.0001)                 2.223549467040777E+05,      /* J = 36 */
(PID.TID 0000.0001)                 1.949479859617814E+05,      /* J = 37 */
(PID.TID 0000.0001)                 1.665912582279823E+05,      /* J = 38 */
(PID.TID 0000.0001)                 1.374229146297914E+05,      /* J = 39 */
(PID.TID 0000.0001)                 1.075850604052271E+05       /* J = 40 */
(PID.TID 0000.0001)     ;
(PID.TID 0000.0001) dyU =  /* dyU(:,1,:,1) ( units: m ) */
(PID.TID 0000.0001)    90 @  4.447098934081552E+05              /* I =  1: 90 */
(PID.TID 0000.0001)     ;
(PID.TID 0000.0001) dyU =  /* dyU(1,:,1,:) ( units: m ) */
(PID.TID 0000.0001)    40 @  4.447098934081552E+05              /* J =  1: 40 */
(PID.TID 0000.0001)     ;
(PID.TID 0000.0001) rA  =  /* rA (:,1,:,1) ( units: m^2 ) */
(PID.TID 0000.0001)    90 @  4.110969866729047E+10              /* I =  1: 90 */
(PID.TID 0000.0001)     ;
(PID.TID 0000.0001) rA  =  /* rA (1,:,1,:) ( units: m^2 ) */
(PID.TID 0000.0001)                 4.110969866729047E+10,      /* J =  1 */
(PID.TID 0000.0001)                 5.450087291636665E+10,      /* J =  2 */
(PID.TID 0000.0001)                 6.762652439100235E+10,      /* J =  3 */
(PID.TID 0000.0001)                 8.042270623659998E+10,      /* J =  4 */
(PID.TID 0000.0001)                 9.282707674147523E+10,      /* J =  5 */
(PID.TID 0000.0001)                 1.047792030594103E+11,      /* J =  6 */
(PID.TID 0000.0001)                 1.162208556324093E+11,      /* J =  7 */
(PID.TID 0000.0001)                 1.270962918792468E+11,      /* J =  8 */
(PID.TID 0000.0001)                 1.373525277677229E+11,      /* J =  9 */
(PID.TID 0000.0001)                 1.469395959475426E+11,      /* J = 10 */
(PID.TID 0000.0001)                 1.558107891862220E+11,      /* J = 11 */
(PID.TID 0000.0001)                 1.639228879220326E+11,      /* J = 12 */
(PID.TID 0000.0001)                 1.712363708253573E+11,      /* J = 13 */
(PID.TID 0000.0001)                 1.777156073426415E+11,      /* J = 14 */
(PID.TID 0000.0001)                 1.833290312848623E+11,      /* J = 15 */
(PID.TID 0000.0001)                 1.880492946148330E+11,      /* J = 16 */
(PID.TID 0000.0001)                 1.918534006840893E+11,      /* J = 17 */
(PID.TID 0000.0001)                 1.947228162702492E+11,      /* J = 18 */
(PID.TID 0000.0001)                 1.966435618690094E+11,      /* J = 19 */
(PID.TID 0000.0001)     2 @  1.976062798008856E+11,             /* J = 20: 21 */
(PID.TID 0000.0001)                 1.966435618690094E+11,      /* J = 22 */
(PID.TID 0000.0001)                 1.947228162702492E+11,      /* J = 23 */
(PID.TID 0000.0001)                 1.918534006840893E+11,      /* J = 24 */
(PID.TID 0000.0001)                 1.880492946148330E+11,      /* J = 25 */
(PID.TID 0000.0001)                 1.833290312848623E+11,      /* J = 26 */
(PID.TID 0000.0001)                 1.777156073426415E+11,      /* J = 27 */
(PID.TID 0000.0001)                 1.712363708253573E+11,      /* J = 28 */
(PID.TID 0000.0001)                 1.639228879220326E+11,      /* J = 29 */
(PID.TID 0000.0001)                 1.558107891862220E+11,      /* J = 30 */
(PID.TID 0000.0001)                 1.469395959475426E+11,      /* J = 31 */
(PID.TID 0000.0001)                 1.373525277677229E+11,      /* J = 32 */
(PID.TID 0000.0001)                 1.270962918792468E+11,      /* J = 33 */
(PID.TID 0000.0001)                 1.162208556324093E+11,      /* J = 34 */
(PID.TID 0000.0001)                 1.047792030594103E+11,      /* J = 35 */
(PID.TID 0000.0001)                 9.282707674147523E+10,      /* J = 36 */
(PID.TID 0000.0001)                 8.042270623659998E+10,      /* J = 37 */
(PID.TID 0000.0001)                 6.762652439100235E+10,      /* J = 38 */
(PID.TID 0000.0001)                 5.450087291636665E+10,      /* J = 39 */
(PID.TID 0000.0001)                 4.110969866729047E+10       /* J = 40 */
(PID.TID 0000.0001)     ;
(PID.TID 0000.0001) rAw =  /* rAw(:,1,:,1) ( units: m^2 ) */
(PID.TID 0000.0001)    90 @  4.110969866729047E+10              /* I =  1: 90 */
(PID.TID 0000.0001)     ;
(PID.TID 0000.0001) rAw =  /* rAw(1,:,1,:) ( units: m^2 ) */
(PID.TID 0000.0001)                 4.110969866729047E+10,      /* J =  1 */
(PID.TID 0000.0001)                 5.450087291636665E+10,      /* J =  2 */
(PID.TID 0000.0001)                 6.762652439100235E+10,      /* J =  3 */
(PID.TID 0000.0001)                 8.042270623659998E+10,      /* J =  4 */
(PID.TID 0000.0001)                 9.282707674147523E+10,      /* J =  5 */
(PID.TID 0000.0001)                 1.047792030594103E+11,      /* J =  6 */
(PID.TID 0000.0001)                 1.162208556324093E+11,      /* J =  7 */
(PID.TID 0000.0001)                 1.270962918792468E+11,      /* J =  8 */
(PID.TID 0000.0001)                 1.373525277677229E+11,      /* J =  9 */
(PID.TID 0000.0001)                 1.469395959475426E+11,      /* J = 10 */
(PID.TID 0000.0001)                 1.558107891862220E+11,      /* J = 11 */
(PID.TID 0000.0001)                 1.639228879220326E+11,      /* J = 12 */
(PID.TID 0000.0001)                 1.712363708253573E+11,      /* J = 13 */
(PID.TID 0000.0001)                 1.777156073426415E+11,      /* J = 14 */
(PID.TID 0000.0001)                 1.833290312848623E+11,      /* J = 15 */
(PID.TID 0000.0001)                 1.880492946148330E+11,      /* J = 16 */
(PID.TID 0000.0001)                 1.918534006840893E+11,      /* J = 17 */
(PID.TID 0000.0001)                 1.947228162702492E+11,      /* J = 18 */
(PID.TID 0000.0001)                 1.966435618690094E+11,      /* J = 19 */
(PID.TID 0000.0001)     2 @  1.976062798008856E+11,             /* J = 20: 21 */
(PID.TID 0000.0001)                 1.966435618690094E+11,      /* J = 22 */
(PID.TID 0000.0001)                 1.947228162702492E+11,      /* J = 23 */
(PID.TID 0000.0001)                 1.918534006840893E+11,      /* J = 24 */
(PID.TID 0000.0001)                 1.880492946148330E+11,      /* J = 25 */
(PID.TID 0000.0001)                 1.833290312848623E+11,      /* J = 26 */
(PID.TID 0000.0001)                 1.777156073426415E+11,      /* J = 27 */
(PID.TID 0000.0001)                 1.712363708253573E+11,      /* J = 28 */
(PID.TID 0000.0001)                 1.639228879220326E+11,      /* J = 29 */
(PID.TID 0000.0001)                 1.558107891862220E+11,      /* J = 30 */
(PID.TID 0000.0001)                 1.469395959475426E+11,      /* J = 31 */
(PID.TID 0000.0001)                 1.373525277677229E+11,      /* J = 32 */
(PID.TID 0000.0001)                 1.270962918792468E+11,      /* J = 33 */
(PID.TID 0000.0001)                 1.162208556324093E+11,      /* J = 34 */
(PID.TID 0000.0001)                 1.047792030594103E+11,      /* J = 35 */
(PID.TID 0000.0001)                 9.282707674147523E+10,      /* J = 36 */
(PID.TID 0000.0001)                 8.042270623659998E+10,      /* J = 37 */
(PID.TID 0000.0001)                 6.762652439100235E+10,      /* J = 38 */
(PID.TID 0000.0001)                 5.450087291636665E+10,      /* J = 39 */
(PID.TID 0000.0001)                 4.110969866729047E+10       /* J = 40 */
(PID.TID 0000.0001)     ;
(PID.TID 0000.0001) rAs =  /* rAs(:,1,:,1) ( units: m^2 ) */
(PID.TID 0000.0001)    90 @  3.433488626798250E+10              /* I =  1: 90 */
(PID.TID 0000.0001)     ;
(PID.TID 0000.0001) rAs =  /* rAs(1,:,1,:) ( units: m^2 ) */
(PID.TID 0000.0001)                 3.433488626798250E+10,      /* J =  1 */
(PID.TID 0000.0001)                 4.783442523123625E+10,      /* J =  2 */
(PID.TID 0000.0001)                 6.110091968306414E+10,      /* J =  3 */
(PID.TID 0000.0001)                 7.406973659603818E+10,      /* J =  4 */
(PID.TID 0000.0001)                 8.667769319778079E+10,      /* J =  5 */
(PID.TID 0000.0001)                 9.886336479107463E+10,      /* J =  6 */
(PID.TID 0000.0001)                 1.105673840088173E+11,      /* J =  7 */
(PID.TID 0000.0001)                 1.217327300458638E+11,      /* J =  8 */
(PID.TID 0000.0001)                 1.323050064586578E+11,      /* J =  9 */
(PID.TID 0000.0001)                 1.422327061792377E+11,      /* J = 10 */
(PID.TID 0000.0001)                 1.514674624524945E+11,      /* J = 11 */
(PID.TID 0000.0001)                 1.599642844741385E+11,      /* J = 12 */
(PID.TID 0000.0001)                 1.676817765813788E+11,      /* J = 13 */
(PID.TID 0000.0001)                 1.745823399284268E+11,      /* J = 14 */
(PID.TID 0000.0001)                 1.806323556642996E+11,      /* J = 15 */
(PID.TID 0000.0001)                 1.858023487204767E+11,      /* J = 16 */
(PID.TID 0000.0001)                 1.900671314104743E+11,      /* J = 17 */
(PID.TID 0000.0001)                 1.934059261417216E+11,      /* J = 18 */
(PID.TID 0000.0001)                 1.958024666419019E+11,      /* J = 19 */
(PID.TID 0000.0001)                 1.972450772065981E+11,      /* J = 20 */
(PID.TID 0000.0001)                 1.977267295821495E+11,      /* J = 21 */
(PID.TID 0000.0001)                 1.972450772065981E+11,      /* J = 22 */
(PID.TID 0000.0001)                 1.958024666419019E+11,      /* J = 23 */
(PID.TID 0000.0001)                 1.934059261417216E+11,      /* J = 24 */
(PID.TID 0000.0001)                 1.900671314104743E+11,      /* J = 25 */
(PID.TID 0000.0001)                 1.858023487204767E+11,      /* J = 26 */
(PID.TID 0000.0001)                 1.806323556642996E+11,      /* J = 27 */
(PID.TID 0000.0001)                 1.745823399284268E+11,      /* J = 28 */
(PID.TID 0000.0001)                 1.676817765813788E+11,      /* J = 29 */
(PID.TID 0000.0001)                 1.599642844741385E+11,      /* J = 30 */
(PID.TID 0000.0001)                 1.514674624524945E+11,      /* J = 31 */
(PID.TID 0000.0001)                 1.422327061792377E+11,      /* J = 32 */
(PID.TID 0000.0001)                 1.323050064586578E+11,      /* J = 33 */
(PID.TID 0000.0001)                 1.217327300458638E+11,      /* J = 34 */
(PID.TID 0000.0001)                 1.105673840088173E+11,      /* J = 35 */
(PID.TID 0000.0001)                 9.886336479107463E+10,      /* J = 36 */
(PID.TID 0000.0001)                 8.667769319778079E+10,      /* J = 37 */
(PID.TID 0000.0001)                 7.406973659603818E+10,      /* J = 38 */
(PID.TID 0000.0001)                 6.110091968306414E+10,      /* J = 39 */
(PID.TID 0000.0001)                 4.783442523123625E+10       /* J = 40 */
(PID.TID 0000.0001)     ;
(PID.TID 0000.0001) globalArea = /* Integrated horizontal Area (m^2) */
(PID.TID 0000.0001)                 3.450614146649749E+14
(PID.TID 0000.0001)     ;
(PID.TID 0000.0001) // =======================================================
(PID.TID 0000.0001) // End of Model config. summary
(PID.TID 0000.0001) // =======================================================
(PID.TID 0000.0001) 
(PID.TID 0000.0001) == Packages configuration : Check & print summary ==
(PID.TID 0000.0001) 
(PID.TID 0000.0001) GMREDI_CHECK: #define GMREDI
(PID.TID 0000.0001) GM_AdvForm =     /* if FALSE => use SkewFlux Form */
(PID.TID 0000.0001)                   T
(PID.TID 0000.0001)     ;
(PID.TID 0000.0001) GM_InMomAsStress = /* if TRUE => apply as Eddy Stress */
(PID.TID 0000.0001)                   F
(PID.TID 0000.0001)     ;
(PID.TID 0000.0001) GM_AdvSeparate = /* Calc Bolus & Euler Adv. separately */
(PID.TID 0000.0001)                   F
(PID.TID 0000.0001)     ;
(PID.TID 0000.0001) GM_ExtraDiag =   /* Tensor Extra Diag (line 1&2) non 0 */
(PID.TID 0000.0001)                   T
(PID.TID 0000.0001)     ;
(PID.TID 0000.0001) GM_isopycK =    /* Background Isopyc. Diffusivity [m^2/s] */
(PID.TID 0000.0001)                 1.100000000000000E+03
(PID.TID 0000.0001)     ;
(PID.TID 0000.0001) GM_skewflx*K =  /* Background GM_SkewFlx Diffusivity [m^2/s] */
(PID.TID 0000.0001)                 0.000000000000000E+00
(PID.TID 0000.0001)     ;
(PID.TID 0000.0001) GM_advec*K =    /* Backg. GM-Advec(=Bolus) Diffusivity [m^2/s]*/
(PID.TID 0000.0001)                 9.000000000000000E+02
(PID.TID 0000.0001)     ;
(PID.TID 0000.0001) GM_Kmin_horiz = /* Minimum Horizontal Diffusivity [m^2/s] */
(PID.TID 0000.0001)                 5.000000000000000E+01
(PID.TID 0000.0001)     ;
(PID.TID 0000.0001) GM_Visbeck_alpha = /* Visbeck alpha coeff. [-] */
(PID.TID 0000.0001)                 0.000000000000000E+00
(PID.TID 0000.0001)     ;
(PID.TID 0000.0001) GM_Small_Number =  /* epsilon used in slope calc */
(PID.TID 0000.0001)                 9.999999999999999E-21
(PID.TID 0000.0001)     ;
(PID.TID 0000.0001) GM_slopeSqCutoff = /* Slope^2 cut-off value */
(PID.TID 0000.0001)                 1.000000000000000E+08
(PID.TID 0000.0001)     ;
(PID.TID 0000.0001) GM_taper_scheme =  /* Type of Tapering/Clipping scheme */
(PID.TID 0000.0001)               'dm95                                    '
(PID.TID 0000.0001)     ;
(PID.TID 0000.0001) GM_maxSlope =  /* Maximum Slope (Tapering/Clipping) */
(PID.TID 0000.0001)                 1.000000000000000E-02
(PID.TID 0000.0001)     ;
(PID.TID 0000.0001) GM_facTrL2dz = /* Minimum Trans.Layer Thick. (factor of dz) */
(PID.TID 0000.0001)                 1.000000000000000E+00
(PID.TID 0000.0001)     ;
(PID.TID 0000.0001) GM_facTrL2ML = /* Max.Trans.Layer Thick. (factor of MxL Depth)*/
(PID.TID 0000.0001)                 5.000000000000000E+00
(PID.TID 0000.0001)     ;
(PID.TID 0000.0001) GM_maxTransLay = /* Maximum Transition Layer Thickness [m] */
(PID.TID 0000.0001)                 5.000000000000000E+02
(PID.TID 0000.0001)     ;
(PID.TID 0000.0001) GM_UseBVP = /* if TRUE => use bvp a la Ferrari et al. (2010) */
(PID.TID 0000.0001)                   F
(PID.TID 0000.0001)     ;
(PID.TID 0000.0001) GM_BVP_ModeNumber = /* Vertical mode number for BVP wave speed */
(PID.TID 0000.0001)                       1
(PID.TID 0000.0001)     ;
(PID.TID 0000.0001) GM_BVP_cMin = /* Minimum wave speed for BVP [m/s] */
(PID.TID 0000.0001)                 1.000000000000000E-01
(PID.TID 0000.0001)     ;
(PID.TID 0000.0001) GM_useSubMeso = /* if TRUE => use Sub-Meso param. (B.Fox-Kemper) */
(PID.TID 0000.0001)                   F
(PID.TID 0000.0001)     ;
(PID.TID 0000.0001) subMeso_Ceff = /* efficiency coeff. of Mixed-Layer Eddies [-] */
(PID.TID 0000.0001)                 7.000000000000001E-02
(PID.TID 0000.0001)     ;
(PID.TID 0000.0001) subMeso_invTau = /* inverse of Sub-Meso mixing time-scale [/s] */
(PID.TID 0000.0001)                 2.000000000000000E-06
(PID.TID 0000.0001)     ;
(PID.TID 0000.0001) subMeso_LfMin = /* minimum length-scale "Lf" [m] */
(PID.TID 0000.0001)                 1.000000000000000E+03
(PID.TID 0000.0001)     ;
(PID.TID 0000.0001) subMeso_Lmax = /* maximum grid-scale length [m] */
(PID.TID 0000.0001)                 1.100000000000000E+05
(PID.TID 0000.0001)     ;
(PID.TID 0000.0001) CTRL_CHECK: ctrl package
(PID.TID 0000.0001) COST_CHECK: cost package
(PID.TID 0000.0001) GRDCHK_CHECK: grdchk package
(PID.TID 0000.0001) GAD_CHECK: #define ALLOW_GENERIC_ADVDIFF
(PID.TID 0000.0001) // =======================================================
(PID.TID 0000.0001) // CONFIG_CHECK : Normal End
(PID.TID 0000.0001) // =======================================================
(PID.TID 0000.0001) 
(PID.TID 0000.0001) INI_CG2D: CG2D normalisation factor =  6.5682677425711703E-05
(PID.TID 0000.0001) 
(PID.TID 0000.0001) Start initial hydrostatic pressure computation
(PID.TID 0000.0001) Pressure is predetermined for buoyancyRelation OCEANIC
(PID.TID 0000.0001) 
(PID.TID 0000.0001) // =======================================================
(PID.TID 0000.0001) // Begin MONITOR dynamic field statistics
(PID.TID 0000.0001) // =======================================================
(PID.TID 0000.0001) %MON time_tsnumber                =                     0
(PID.TID 0000.0001) %MON time_secondsf                =   0.0000000000000E+00
(PID.TID 0000.0001) %MON dynstat_eta_max              =   0.0000000000000E+00
(PID.TID 0000.0001) %MON dynstat_eta_min              =   0.0000000000000E+00
(PID.TID 0000.0001) %MON dynstat_eta_mean             =   0.0000000000000E+00
(PID.TID 0000.0001) %MON dynstat_eta_sd               =   0.0000000000000E+00
(PID.TID 0000.0001) %MON dynstat_eta_del2             =   0.0000000000000E+00
(PID.TID 0000.0001) %MON dynstat_uvel_max             =   0.0000000000000E+00
(PID.TID 0000.0001) %MON dynstat_uvel_min             =   0.0000000000000E+00
(PID.TID 0000.0001) %MON dynstat_uvel_mean            =   0.0000000000000E+00
(PID.TID 0000.0001) %MON dynstat_uvel_sd              =   0.0000000000000E+00
(PID.TID 0000.0001) %MON dynstat_uvel_del2            =   0.0000000000000E+00
(PID.TID 0000.0001) %MON dynstat_vvel_max             =   0.0000000000000E+00
(PID.TID 0000.0001) %MON dynstat_vvel_min             =   0.0000000000000E+00
(PID.TID 0000.0001) %MON dynstat_vvel_mean            =   0.0000000000000E+00
(PID.TID 0000.0001) %MON dynstat_vvel_sd              =   0.0000000000000E+00
(PID.TID 0000.0001) %MON dynstat_vvel_del2            =   0.0000000000000E+00
(PID.TID 0000.0001) %MON dynstat_wvel_max             =  -0.0000000000000E+00
(PID.TID 0000.0001) %MON dynstat_wvel_min             =  -0.0000000000000E+00
(PID.TID 0000.0001) %MON dynstat_wvel_mean            =   0.0000000000000E+00
(PID.TID 0000.0001) %MON dynstat_wvel_sd              =   0.0000000000000E+00
(PID.TID 0000.0001) %MON dynstat_wvel_del2            =   0.0000000000000E+00
(PID.TID 0000.0001) %MON dynstat_theta_max            =   2.9733388900757E+01
(PID.TID 0000.0001) %MON dynstat_theta_min            =  -1.9000000000000E+00
(PID.TID 0000.0001) %MON dynstat_theta_mean           =   3.6197074666132E+00
(PID.TID 0000.0001) %MON dynstat_theta_sd             =   4.4174614518570E+00
(PID.TID 0000.0001) %MON dynstat_theta_del2           =   5.6229722638211E-03
(PID.TID 0000.0001) %MON dynstat_salt_max             =   3.7475627899170E+01
(PID.TID 0000.0001) %MON dynstat_salt_min             =   2.9752769470215E+01
(PID.TID 0000.0001) %MON dynstat_salt_mean            =   3.4718006161478E+01
(PID.TID 0000.0001) %MON dynstat_salt_sd              =   2.9628819587991E-01
(PID.TID 0000.0001) %MON dynstat_salt_del2            =   1.0127003139695E-03
(PID.TID 0000.0001) %MON forcing_qnet_max             =   4.4161361694336E+02
(PID.TID 0000.0001) %MON forcing_qnet_min             =  -1.8132531738281E+02
(PID.TID 0000.0001) %MON forcing_qnet_mean            =  -1.6512526001044E+01
(PID.TID 0000.0001) %MON forcing_qnet_sd              =   1.0987288293460E+02
(PID.TID 0000.0001) %MON forcing_qnet_del2            =   1.0245701543512E+00
(PID.TID 0000.0001) %MON forcing_qsw_max              =   0.0000000000000E+00
(PID.TID 0000.0001) %MON forcing_qsw_min              =   0.0000000000000E+00
(PID.TID 0000.0001) %MON forcing_qsw_mean             =   0.0000000000000E+00
(PID.TID 0000.0001) %MON forcing_qsw_sd               =   0.0000000000000E+00
(PID.TID 0000.0001) %MON forcing_qsw_del2             =   0.0000000000000E+00
(PID.TID 0000.0001) %MON forcing_empmr_max            =   0.0000000000000E+00
(PID.TID 0000.0001) %MON forcing_empmr_min            =   0.0000000000000E+00
(PID.TID 0000.0001) %MON forcing_empmr_mean           =   0.0000000000000E+00
(PID.TID 0000.0001) %MON forcing_empmr_sd             =   0.0000000000000E+00
(PID.TID 0000.0001) %MON forcing_empmr_del2           =   0.0000000000000E+00
(PID.TID 0000.0001) %MON forcing_fu_max               =   2.7877888083458E-01
(PID.TID 0000.0001) %MON forcing_fu_min               =  -1.7088057100773E-01
(PID.TID 0000.0001) %MON forcing_fu_mean              =   1.6001735152566E-02
(PID.TID 0000.0001) %MON forcing_fu_sd                =   9.1062350670783E-02
(PID.TID 0000.0001) %MON forcing_fu_del2              =   7.2483493833855E-04
(PID.TID 0000.0001) %MON forcing_fv_max               =   2.3312132060528E-01
(PID.TID 0000.0001) %MON forcing_fv_min               =  -1.7813690006733E-01
(PID.TID 0000.0001) %MON forcing_fv_mean              =  -5.2588977395051E-03
(PID.TID 0000.0001) %MON forcing_fv_sd                =   4.8248606070107E-02
(PID.TID 0000.0001) %MON forcing_fv_del2              =   4.9948324922575E-04
(PID.TID 0000.0001) %MON advcfl_uvel_max              =   0.0000000000000E+00
(PID.TID 0000.0001) %MON advcfl_vvel_max              =   0.0000000000000E+00
(PID.TID 0000.0001) %MON advcfl_wvel_max              =   0.0000000000000E+00
(PID.TID 0000.0001) %MON advcfl_W_hf_max              =   0.0000000000000E+00
(PID.TID 0000.0001) %MON pe_b_mean                    =   0.0000000000000E+00
(PID.TID 0000.0001) %MON ke_max                       =   0.0000000000000E+00
(PID.TID 0000.0001) %MON ke_mean                      =   0.0000000000000E+00
(PID.TID 0000.0001) %MON ke_vol                       =   1.3226782436722E+18
(PID.TID 0000.0001) %MON vort_r_min                   =   0.0000000000000E+00
(PID.TID 0000.0001) %MON vort_r_max                   =   0.0000000000000E+00
(PID.TID 0000.0001) %MON vort_a_mean                  =  -2.5205769728597E-05
(PID.TID 0000.0001) %MON vort_a_sd                    =   7.3403301351718E-05
(PID.TID 0000.0001) %MON vort_p_mean                  =  -3.1758669979760E-05
(PID.TID 0000.0001) %MON vort_p_sd                    =   1.3126616755304E-04
(PID.TID 0000.0001) %MON surfExpan_theta_mean         =   0.0000000000000E+00
(PID.TID 0000.0001) %MON surfExpan_salt_mean          =   0.0000000000000E+00
(PID.TID 0000.0001) // =======================================================
(PID.TID 0000.0001) // End MONITOR dynamic field statistics
(PID.TID 0000.0001) // =======================================================
 EXTERNAL_FIELDS_LOAD, it=         0 : Reading new data, i0,i1=   12    1 (prev=   12    0 )
(PID.TID 0000.0001) SOLVE_FOR_PRESSURE: putPmEinXvector =    F
 cg2d: Sum(rhs),rhsMax =   1.15463194561016E-14  2.53674886388737E+00
(PID.TID 0000.0001)                    cg2d_init_res =    6.19022764877148E+00
(PID.TID 0000.0001)                       cg2d_iters =    26
(PID.TID 0000.0001)                         cg2d_res =    4.93012145236804E-14
(PID.TID 0000.0001) // =======================================================
(PID.TID 0000.0001) // Begin MONITOR dynamic field statistics
(PID.TID 0000.0001) // =======================================================
(PID.TID 0000.0001) %MON time_tsnumber                =                     1
(PID.TID 0000.0001) %MON time_secondsf                =   4.3200000000000E+04
(PID.TID 0000.0001) %MON dynstat_eta_max              =   1.7834701827803E-01
(PID.TID 0000.0001) %MON dynstat_eta_min              =  -1.1528119640449E-01
(PID.TID 0000.0001) %MON dynstat_eta_mean             =   8.2957662215125E-19
(PID.TID 0000.0001) %MON dynstat_eta_sd               =   2.6147239617250E-02
(PID.TID 0000.0001) %MON dynstat_eta_del2             =   1.1687994198159E-03
(PID.TID 0000.0001) %MON dynstat_uvel_max             =   8.2589328748254E-03
(PID.TID 0000.0001) %MON dynstat_uvel_min             =  -8.7864788593940E-03
(PID.TID 0000.0001) %MON dynstat_uvel_mean            =  -3.5948047481453E-04
(PID.TID 0000.0001) %MON dynstat_uvel_sd              =   1.2234921326690E-03
(PID.TID 0000.0001) %MON dynstat_uvel_del2            =   1.1644120182858E-05
(PID.TID 0000.0001) %MON dynstat_vvel_max             =   1.8419668083618E-02
(PID.TID 0000.0001) %MON dynstat_vvel_min             =  -1.1236436695294E-02
(PID.TID 0000.0001) %MON dynstat_vvel_mean            =   9.0346553674464E-04
(PID.TID 0000.0001) %MON dynstat_vvel_sd              =   3.3985660820185E-03
(PID.TID 0000.0001) %MON dynstat_vvel_del2            =   1.5509009627357E-05
(PID.TID 0000.0001) %MON dynstat_wvel_max             =   1.5967409621856E-04
(PID.TID 0000.0001) %MON dynstat_wvel_min             =  -1.0325807956452E-04
(PID.TID 0000.0001) %MON dynstat_wvel_mean            =  -2.2790126576819E-22
(PID.TID 0000.0001) %MON dynstat_wvel_sd              =   1.6737769309918E-05
(PID.TID 0000.0001) %MON dynstat_wvel_del2            =   2.5270555877497E-07
(PID.TID 0000.0001) %MON dynstat_theta_max            =   2.9714171265950E+01
(PID.TID 0000.0001) %MON dynstat_theta_min            =  -1.9004353995516E+00
(PID.TID 0000.0001) %MON dynstat_theta_mean           =   3.6192179564007E+00
(PID.TID 0000.0001) %MON dynstat_theta_sd             =   4.4160443943700E+00
(PID.TID 0000.0001) %MON dynstat_theta_del2           =   5.5367438984222E-03
(PID.TID 0000.0001) %MON dynstat_salt_max             =   3.7470957791636E+01
(PID.TID 0000.0001) %MON dynstat_salt_min             =   2.9754725812499E+01
(PID.TID 0000.0001) %MON dynstat_salt_mean            =   3.4717966814663E+01
(PID.TID 0000.0001) %MON dynstat_salt_sd              =   2.9615533038176E-01
(PID.TID 0000.0001) %MON dynstat_salt_del2            =   1.0134085960727E-03
(PID.TID 0000.0001) %MON forcing_qnet_max             =   4.2589080810547E+02
(PID.TID 0000.0001) %MON forcing_qnet_min             =  -1.8702698516846E+02
(PID.TID 0000.0001) %MON forcing_qnet_mean            =  -1.6700205338390E+01
(PID.TID 0000.0001) %MON forcing_qnet_sd              =   1.1285666794876E+02
(PID.TID 0000.0001) %MON forcing_qnet_del2            =   9.9079877721394E-01
(PID.TID 0000.0001) %MON forcing_qsw_max              =   0.0000000000000E+00
(PID.TID 0000.0001) %MON forcing_qsw_min              =   0.0000000000000E+00
(PID.TID 0000.0001) %MON forcing_qsw_mean             =   0.0000000000000E+00
(PID.TID 0000.0001) %MON forcing_qsw_sd               =   0.0000000000000E+00
(PID.TID 0000.0001) %MON forcing_qsw_del2             =   0.0000000000000E+00
(PID.TID 0000.0001) %MON forcing_empmr_max            =   0.0000000000000E+00
(PID.TID 0000.0001) %MON forcing_empmr_min            =   0.0000000000000E+00
(PID.TID 0000.0001) %MON forcing_empmr_mean           =   0.0000000000000E+00
(PID.TID 0000.0001) %MON forcing_empmr_sd             =   0.0000000000000E+00
(PID.TID 0000.0001) %MON forcing_empmr_del2           =   0.0000000000000E+00
(PID.TID 0000.0001) %MON forcing_fu_max               =   2.7488999068737E-01
(PID.TID 0000.0001) %MON forcing_fu_min               =  -1.6014087945223E-01
(PID.TID 0000.0001) %MON forcing_fu_mean              =   1.6117127468124E-02
(PID.TID 0000.0001) %MON forcing_fu_sd                =   9.0153154829689E-02
(PID.TID 0000.0001) %MON forcing_fu_del2              =   6.5365667764058E-04
(PID.TID 0000.0001) %MON forcing_fv_max               =   2.0835298299789E-01
(PID.TID 0000.0001) %MON forcing_fv_min               =  -1.8690676242113E-01
(PID.TID 0000.0001) %MON forcing_fv_mean              =  -6.3653356424171E-03
(PID.TID 0000.0001) %MON forcing_fv_sd                =   4.5157892194461E-02
(PID.TID 0000.0001) %MON forcing_fv_del2              =   4.4595114894327E-04
(PID.TID 0000.0001) %MON advcfl_uvel_max              =   2.7952615317443E-03
(PID.TID 0000.0001) %MON advcfl_vvel_max              =   1.7893230463437E-03
(PID.TID 0000.0001) %MON advcfl_wvel_max              =   2.5681970632036E-01
(PID.TID 0000.0001) %MON advcfl_W_hf_max              =   1.3026877595789E-01
(PID.TID 0000.0001) %MON pe_b_mean                    =   8.7484858528223E-07
(PID.TID 0000.0001) %MON ke_max                       =   1.1990059187008E-04
(PID.TID 0000.0001) %MON ke_mean                      =   6.2906533822057E-06
(PID.TID 0000.0001) %MON ke_vol                       =   1.3226782436722E+18
(PID.TID 0000.0001) %MON vort_r_min                   =  -5.9384272215235E-08
(PID.TID 0000.0001) %MON vort_r_max                   =   6.6674503753026E-08
(PID.TID 0000.0001) %MON vort_a_mean                  =  -2.5205769366640E-05
(PID.TID 0000.0001) %MON vort_a_sd                    =   7.3403223633030E-05
(PID.TID 0000.0001) %MON vort_p_mean                  =  -3.1758669523702E-05
(PID.TID 0000.0001) %MON vort_p_sd                    =   1.3126608317243E-04
(PID.TID 0000.0001) %MON surfExpan_theta_mean         =   4.5905012948263E-05
(PID.TID 0000.0001) %MON surfExpan_salt_mean          =   3.5008273008265E-06
(PID.TID 0000.0001) // =======================================================
(PID.TID 0000.0001) // End MONITOR dynamic field statistics
(PID.TID 0000.0001) // =======================================================
 cg2d: Sum(rhs),rhsMax =  -4.44089209850063E-15  4.94121768585574E+00
(PID.TID 0000.0001)                    cg2d_init_res =    3.35285419100450E+00
(PID.TID 0000.0001)                       cg2d_iters =    26
(PID.TID 0000.0001)                         cg2d_res =    3.25989020461535E-14
(PID.TID 0000.0001) // =======================================================
(PID.TID 0000.0001) // Begin MONITOR dynamic field statistics
(PID.TID 0000.0001) // =======================================================
(PID.TID 0000.0001) %MON time_tsnumber                =                     2
(PID.TID 0000.0001) %MON time_secondsf                =   8.6400000000000E+04
(PID.TID 0000.0001) %MON dynstat_eta_max              =   3.7226409194650E-01
(PID.TID 0000.0001) %MON dynstat_eta_min              =  -2.5315552801826E-01
(PID.TID 0000.0001) %MON dynstat_eta_mean             =  -4.2734693371373E-18
(PID.TID 0000.0001) %MON dynstat_eta_sd               =   5.9789062049083E-02
(PID.TID 0000.0001) %MON dynstat_eta_del2             =   2.2530904113839E-03
(PID.TID 0000.0001) %MON dynstat_uvel_max             =   1.9023736180468E-02
(PID.TID 0000.0001) %MON dynstat_uvel_min             =  -1.7153168236838E-02
(PID.TID 0000.0001) %MON dynstat_uvel_mean            =  -8.9141170723800E-04
(PID.TID 0000.0001) %MON dynstat_uvel_sd              =   2.1302162774026E-03
(PID.TID 0000.0001) %MON dynstat_uvel_del2            =   2.3441107341494E-05
(PID.TID 0000.0001) %MON dynstat_vvel_max             =   3.3844730644296E-02
(PID.TID 0000.0001) %MON dynstat_vvel_min             =  -1.8093893345735E-02
(PID.TID 0000.0001) %MON dynstat_vvel_mean            =   1.7649629132426E-03
(PID.TID 0000.0001) %MON dynstat_vvel_sd              =   6.2186935888800E-03
(PID.TID 0000.0001) %MON dynstat_vvel_del2            =   2.8959924412822E-05
(PID.TID 0000.0001) %MON dynstat_wvel_max             =   2.0483821974424E-04
(PID.TID 0000.0001) %MON dynstat_wvel_min             =  -1.4658764556708E-04
(PID.TID 0000.0001) %MON dynstat_wvel_mean            =   1.9964297677600E-22
(PID.TID 0000.0001) %MON dynstat_wvel_sd              =   2.4010150111396E-05
(PID.TID 0000.0001) %MON dynstat_wvel_del2            =   2.8691080451427E-07
(PID.TID 0000.0001) %MON dynstat_theta_max            =   2.9694895941763E+01
(PID.TID 0000.0001) %MON dynstat_theta_min            =  -1.9018693620866E+00
(PID.TID 0000.0001) %MON dynstat_theta_mean           =   3.6183199749458E+00
(PID.TID 0000.0001) %MON dynstat_theta_sd             =   4.4139496000672E+00
(PID.TID 0000.0001) %MON dynstat_theta_del2           =   5.4579172580798E-03
(PID.TID 0000.0001) %MON dynstat_salt_max             =   3.7466285170892E+01
(PID.TID 0000.0001) %MON dynstat_salt_min             =   2.9757385549830E+01
(PID.TID 0000.0001) %MON dynstat_salt_mean            =   3.4717893048630E+01
(PID.TID 0000.0001) %MON dynstat_salt_sd              =   2.9607831500405E-01
(PID.TID 0000.0001) %MON dynstat_salt_del2            =   1.0179213140459E-03
(PID.TID 0000.0001) %MON forcing_qnet_max             =   4.2641490173340E+02
(PID.TID 0000.0001) %MON forcing_qnet_min             =  -1.8679340387980E+02
(PID.TID 0000.0001) %MON forcing_qnet_mean            =  -1.6693949360478E+01
(PID.TID 0000.0001) %MON forcing_qnet_sd              =   1.1274774925900E+02
(PID.TID 0000.0001) %MON forcing_qnet_del2            =   9.9129556347980E-01
(PID.TID 0000.0001) %MON forcing_qsw_max              =   0.0000000000000E+00
(PID.TID 0000.0001) %MON forcing_qsw_min              =   0.0000000000000E+00
(PID.TID 0000.0001) %MON forcing_qsw_mean             =   0.0000000000000E+00
(PID.TID 0000.0001) %MON forcing_qsw_sd               =   0.0000000000000E+00
(PID.TID 0000.0001) %MON forcing_qsw_del2             =   0.0000000000000E+00
(PID.TID 0000.0001) %MON forcing_empmr_max            =   0.0000000000000E+00
(PID.TID 0000.0001) %MON forcing_empmr_min            =   0.0000000000000E+00
(PID.TID 0000.0001) %MON forcing_empmr_mean           =   0.0000000000000E+00
(PID.TID 0000.0001) %MON forcing_empmr_sd             =   0.0000000000000E+00
(PID.TID 0000.0001) %MON forcing_empmr_del2           =   0.0000000000000E+00
(PID.TID 0000.0001) %MON forcing_fu_max               =   2.7446071654558E-01
(PID.TID 0000.0001) %MON forcing_fu_min               =  -1.5920810426275E-01
(PID.TID 0000.0001) %MON forcing_fu_mean              =   1.6113281057605E-02
(PID.TID 0000.0001) %MON forcing_fu_sd                =   9.0144235663722E-02
(PID.TID 0000.0001) %MON forcing_fu_del2              =   6.5420219060852E-04
(PID.TID 0000.0001) %MON forcing_fv_max               =   2.0858977933725E-01
(PID.TID 0000.0001) %MON forcing_fv_min               =  -1.8661443367600E-01
(PID.TID 0000.0001) %MON forcing_fv_mean              =  -6.3284543789867E-03
(PID.TID 0000.0001) %MON forcing_fv_sd                =   4.5207594835594E-02
(PID.TID 0000.0001) %MON forcing_fv_del2              =   4.4584970315419E-04
(PID.TID 0000.0001) %MON advcfl_uvel_max              =   5.5856196873122E-03
(PID.TID 0000.0001) %MON advcfl_vvel_max              =   3.2877441799832E-03
(PID.TID 0000.0001) %MON advcfl_wvel_max              =   2.7924058608259E-01
(PID.TID 0000.0001) %MON advcfl_W_hf_max              =   1.4449361159155E-01
(PID.TID 0000.0001) %MON pe_b_mean                    =   4.5743003906977E-06
(PID.TID 0000.0001) %MON ke_max                       =   4.0308382132401E-04
(PID.TID 0000.0001) %MON ke_mean                      =   2.1182668822561E-05
(PID.TID 0000.0001) %MON ke_vol                       =   1.3226782436722E+18
(PID.TID 0000.0001) %MON vort_r_min                   =  -1.0722450724354E-07
(PID.TID 0000.0001) %MON vort_r_max                   =   1.3041023383902E-07
(PID.TID 0000.0001) %MON vort_a_mean                  =  -2.5205769265888E-05
(PID.TID 0000.0001) %MON vort_a_sd                    =   7.3403114365457E-05
(PID.TID 0000.0001) %MON vort_p_mean                  =  -3.1758751348343E-05
(PID.TID 0000.0001) %MON vort_p_sd                    =   1.3126617455109E-04
(PID.TID 0000.0001) %MON surfExpan_theta_mean         =   8.3178995249321E-05
(PID.TID 0000.0001) %MON surfExpan_salt_mean          =   6.6674318203567E-06
(PID.TID 0000.0001) // =======================================================
(PID.TID 0000.0001) // End MONITOR dynamic field statistics
(PID.TID 0000.0001) // =======================================================
 cg2d: Sum(rhs),rhsMax =   4.55191440096314E-15  6.30228849480757E+00
(PID.TID 0000.0001)                    cg2d_init_res =    2.20739905868481E+00
(PID.TID 0000.0001)                       cg2d_iters =    26
(PID.TID 0000.0001)                         cg2d_res =    2.89906331556894E-14
(PID.TID 0000.0001) // =======================================================
(PID.TID 0000.0001) // Begin MONITOR dynamic field statistics
(PID.TID 0000.0001) // =======================================================
(PID.TID 0000.0001) %MON time_tsnumber                =                     3
(PID.TID 0000.0001) %MON time_secondsf                =   1.2960000000000E+05
(PID.TID 0000.0001) %MON dynstat_eta_max              =   5.1145295111395E-01
(PID.TID 0000.0001) %MON dynstat_eta_min              =  -3.8057937320652E-01
(PID.TID 0000.0001) %MON dynstat_eta_mean             =   3.8489525155674E-18
(PID.TID 0000.0001) %MON dynstat_eta_sd               =   9.2604409734767E-02
(PID.TID 0000.0001) %MON dynstat_eta_del2             =   2.8391637797209E-03
(PID.TID 0000.0001) %MON dynstat_uvel_max             =   3.1188983282336E-02
(PID.TID 0000.0001) %MON dynstat_uvel_min             =  -3.0283090232386E-02
(PID.TID 0000.0001) %MON dynstat_uvel_mean            =  -1.5691965139706E-03
(PID.TID 0000.0001) %MON dynstat_uvel_sd              =   3.0603697583085E-03
(PID.TID 0000.0001) %MON dynstat_uvel_del2            =   3.6885429727697E-05
(PID.TID 0000.0001) %MON dynstat_vvel_max             =   4.5497674674220E-02
(PID.TID 0000.0001) %MON dynstat_vvel_min             =  -2.4708569822779E-02
(PID.TID 0000.0001) %MON dynstat_vvel_mean            =   2.5619724845296E-03
(PID.TID 0000.0001) %MON dynstat_vvel_sd              =   8.5711500903587E-03
(PID.TID 0000.0001) %MON dynstat_vvel_del2            =   4.5001601840202E-05
(PID.TID 0000.0001) %MON dynstat_wvel_max             =   2.0233739223649E-04
(PID.TID 0000.0001) %MON dynstat_wvel_min             =  -1.7004807614628E-04
(PID.TID 0000.0001) %MON dynstat_wvel_mean            =  -1.4092445419482E-22
(PID.TID 0000.0001) %MON dynstat_wvel_sd              =   2.7050360398823E-05
(PID.TID 0000.0001) %MON dynstat_wvel_del2            =   2.6421366607906E-07
(PID.TID 0000.0001) %MON dynstat_theta_max            =   2.9686972097687E+01
(PID.TID 0000.0001) %MON dynstat_theta_min            =  -1.9101640451471E+00
(PID.TID 0000.0001) %MON dynstat_theta_mean           =   3.6171035613853E+00
(PID.TID 0000.0001) %MON dynstat_theta_sd             =   4.4112809881132E+00
(PID.TID 0000.0001) %MON dynstat_theta_del2           =   5.3861813665267E-03
(PID.TID 0000.0001) %MON dynstat_salt_max             =   3.7461878944797E+01
(PID.TID 0000.0001) %MON dynstat_salt_min             =   2.9760605203875E+01
(PID.TID 0000.0001) %MON dynstat_salt_mean            =   3.4717791013544E+01
(PID.TID 0000.0001) %MON dynstat_salt_sd              =   2.9604843643081E-01
(PID.TID 0000.0001) %MON dynstat_salt_del2            =   1.0141065357507E-03
(PID.TID 0000.0001) %MON forcing_qnet_max             =   4.2693899536133E+02
(PID.TID 0000.0001) %MON forcing_qnet_min             =  -1.8655982259115E+02
(PID.TID 0000.0001) %MON forcing_qnet_mean            =  -1.6687693382567E+01
(PID.TID 0000.0001) %MON forcing_qnet_sd              =   1.1263946608433E+02
(PID.TID 0000.0001) %MON forcing_qnet_del2            =   9.9183674388333E-01
(PID.TID 0000.0001) %MON forcing_qsw_max              =   0.0000000000000E+00
(PID.TID 0000.0001) %MON forcing_qsw_min              =   0.0000000000000E+00
(PID.TID 0000.0001) %MON forcing_qsw_mean             =   0.0000000000000E+00
(PID.TID 0000.0001) %MON forcing_qsw_sd               =   0.0000000000000E+00
(PID.TID 0000.0001) %MON forcing_qsw_del2             =   0.0000000000000E+00
(PID.TID 0000.0001) %MON forcing_empmr_max            =   0.0000000000000E+00
(PID.TID 0000.0001) %MON forcing_empmr_min            =   0.0000000000000E+00
(PID.TID 0000.0001) %MON forcing_empmr_mean           =   0.0000000000000E+00
(PID.TID 0000.0001) %MON forcing_empmr_sd             =   0.0000000000000E+00
(PID.TID 0000.0001) %MON forcing_empmr_del2           =   0.0000000000000E+00
(PID.TID 0000.0001) %MON forcing_fu_max               =   2.7403144240379E-01
(PID.TID 0000.0001) %MON forcing_fu_min               =  -1.5949268937111E-01
(PID.TID 0000.0001) %MON forcing_fu_mean              =   1.6109434647086E-02
(PID.TID 0000.0001) %MON forcing_fu_sd                =   9.0138031840955E-02
(PID.TID 0000.0001) %MON forcing_fu_del2              =   6.5488191036968E-04
(PID.TID 0000.0001) %MON forcing_fv_max               =   2.0882657567660E-01
(PID.TID 0000.0001) %MON forcing_fv_min               =  -1.8632210493088E-01
(PID.TID 0000.0001) %MON forcing_fv_mean              =  -6.2915731155563E-03
(PID.TID 0000.0001) %MON forcing_fv_sd                =   4.5261152700224E-02
(PID.TID 0000.0001) %MON forcing_fv_del2              =   4.4588571962377E-04
(PID.TID 0000.0001) %MON advcfl_uvel_max              =   7.0027311527300E-03
(PID.TID 0000.0001) %MON advcfl_vvel_max              =   4.4197342471137E-03
(PID.TID 0000.0001) %MON advcfl_wvel_max              =   2.0967848023575E-01
(PID.TID 0000.0001) %MON advcfl_W_hf_max              =   1.0902199675495E-01
(PID.TID 0000.0001) %MON pe_b_mean                    =   1.0973484029161E-05
(PID.TID 0000.0001) %MON ke_max                       =   8.0387462085913E-04
(PID.TID 0000.0001) %MON ke_mean                      =   4.1301713628385E-05
(PID.TID 0000.0001) %MON ke_vol                       =   1.3226782436722E+18
(PID.TID 0000.0001) %MON vort_r_min                   =  -1.6052529690777E-07
(PID.TID 0000.0001) %MON vort_r_max                   =   1.9055740061240E-07
(PID.TID 0000.0001) %MON vort_a_mean                  =  -2.5205769253761E-05
(PID.TID 0000.0001) %MON vort_a_sd                    =   7.3402980024258E-05
(PID.TID 0000.0001) %MON vort_p_mean                  =  -3.1758834527177E-05
(PID.TID 0000.0001) %MON vort_p_sd                    =   1.3126621209091E-04
(PID.TID 0000.0001) %MON surfExpan_theta_mean         =   1.1248167062649E-04
(PID.TID 0000.0001) %MON surfExpan_salt_mean          =   9.2656390204660E-06
(PID.TID 0000.0001) // =======================================================
(PID.TID 0000.0001) // End MONITOR dynamic field statistics
(PID.TID 0000.0001) // =======================================================
 EXTERNAL_FIELDS_LOAD, it=         3 : Reading new data, i0,i1=   12    1 (prev=   12    0 )
 cg2d: Sum(rhs),rhsMax =  -2.93098878501041E-14  6.81726659975567E+00
(PID.TID 0000.0001)                    cg2d_init_res =    1.85666059054803E+00
(PID.TID 0000.0001)                       cg2d_iters =    26
(PID.TID 0000.0001)                         cg2d_res =    2.64970344044089E-14
(PID.TID 0000.0001) // =======================================================
(PID.TID 0000.0001) // Begin MONITOR dynamic field statistics
(PID.TID 0000.0001) // =======================================================
(PID.TID 0000.0001) %MON time_tsnumber                =                     4
(PID.TID 0000.0001) %MON time_secondsf                =   1.7280000000000E+05
(PID.TID 0000.0001) %MON dynstat_eta_max              =   5.9298406906404E-01
(PID.TID 0000.0001) %MON dynstat_eta_min              =  -4.9762571269522E-01
(PID.TID 0000.0001) %MON dynstat_eta_mean             =   5.2074063445912E-18
(PID.TID 0000.0001) %MON dynstat_eta_sd               =   1.2302244339780E-01
(PID.TID 0000.0001) %MON dynstat_eta_del2             =   2.9960735083818E-03
(PID.TID 0000.0001) %MON dynstat_uvel_max             =   4.3855556693524E-02
(PID.TID 0000.0001) %MON dynstat_uvel_min             =  -4.3142771759453E-02
(PID.TID 0000.0001) %MON dynstat_uvel_mean            =  -2.3645863087732E-03
(PID.TID 0000.0001) %MON dynstat_uvel_sd              =   4.1284671251833E-03
(PID.TID 0000.0001) %MON dynstat_uvel_del2            =   4.9829818821076E-05
(PID.TID 0000.0001) %MON dynstat_vvel_max             =   5.3788077437185E-02
(PID.TID 0000.0001) %MON dynstat_vvel_min             =  -3.6667354463849E-02
(PID.TID 0000.0001) %MON dynstat_vvel_mean            =   3.2749676549696E-03
(PID.TID 0000.0001) %MON dynstat_vvel_sd              =   1.0541874527541E-02
(PID.TID 0000.0001) %MON dynstat_vvel_del2            =   6.1847902060644E-05
(PID.TID 0000.0001) %MON dynstat_wvel_max             =   2.0977793563915E-04
(PID.TID 0000.0001) %MON dynstat_wvel_min             =  -2.0786227359051E-04
(PID.TID 0000.0001) %MON dynstat_wvel_mean            =  -8.4554672516895E-22
(PID.TID 0000.0001) %MON dynstat_wvel_sd              =   2.8990425625657E-05
(PID.TID 0000.0001) %MON dynstat_wvel_del2            =   2.6673376499730E-07
(PID.TID 0000.0001) %MON dynstat_theta_max            =   2.9692858529705E+01
(PID.TID 0000.0001) %MON dynstat_theta_min            =  -1.9241321575486E+00
(PID.TID 0000.0001) %MON dynstat_theta_mean           =   3.6156448694227E+00
(PID.TID 0000.0001) %MON dynstat_theta_sd             =   4.4081446709966E+00
(PID.TID 0000.0001) %MON dynstat_theta_del2           =   5.3409414674518E-03
(PID.TID 0000.0001) %MON dynstat_salt_max             =   3.7457596779932E+01
(PID.TID 0000.0001) %MON dynstat_salt_min             =   2.9764216491872E+01
(PID.TID 0000.0001) %MON dynstat_salt_mean            =   3.4717667821946E+01
(PID.TID 0000.0001) %MON dynstat_salt_sd              =   2.9603681852576E-01
(PID.TID 0000.0001) %MON dynstat_salt_del2            =   1.0120132570704E-03
(PID.TID 0000.0001) %MON forcing_qnet_max             =   4.2746308898926E+02
(PID.TID 0000.0001) %MON forcing_qnet_min             =  -1.8632624130249E+02
(PID.TID 0000.0001) %MON forcing_qnet_mean            =  -1.6681437404655E+01
(PID.TID 0000.0001) %MON forcing_qnet_sd              =   1.1253182025933E+02
(PID.TID 0000.0001) %MON forcing_qnet_del2            =   9.9242224579849E-01
(PID.TID 0000.0001) %MON forcing_qsw_max              =   0.0000000000000E+00
(PID.TID 0000.0001) %MON forcing_qsw_min              =   0.0000000000000E+00
(PID.TID 0000.0001) %MON forcing_qsw_mean             =   0.0000000000000E+00
(PID.TID 0000.0001) %MON forcing_qsw_sd               =   0.0000000000000E+00
(PID.TID 0000.0001) %MON forcing_qsw_del2             =   0.0000000000000E+00
(PID.TID 0000.0001) %MON forcing_empmr_max            =   0.0000000000000E+00
(PID.TID 0000.0001) %MON forcing_empmr_min            =   0.0000000000000E+00
(PID.TID 0000.0001) %MON forcing_empmr_mean           =   0.0000000000000E+00
(PID.TID 0000.0001) %MON forcing_empmr_sd             =   0.0000000000000E+00
(PID.TID 0000.0001) %MON forcing_empmr_del2           =   0.0000000000000E+00
(PID.TID 0000.0001) %MON forcing_fu_max               =   2.7360216826200E-01
(PID.TID 0000.0001) %MON forcing_fu_min               =  -1.5989939942956E-01
(PID.TID 0000.0001) %MON forcing_fu_mean              =   1.6105588236568E-02
(PID.TID 0000.0001) %MON forcing_fu_sd                =   9.0134543922067E-02
(PID.TID 0000.0001) %MON forcing_fu_del2              =   6.5569541955203E-04
(PID.TID 0000.0001) %MON forcing_fv_max               =   2.0906337201595E-01
(PID.TID 0000.0001) %MON forcing_fv_min               =  -1.8602977618575E-01
(PID.TID 0000.0001) %MON forcing_fv_mean              =  -6.2546918521259E-03
(PID.TID 0000.0001) %MON forcing_fv_sd                =   4.5318552119942E-02
(PID.TID 0000.0001) %MON forcing_fv_del2              =   4.4605916505437E-04
(PID.TID 0000.0001) %MON advcfl_uvel_max              =   9.4664771217031E-03
(PID.TID 0000.0001) %MON advcfl_vvel_max              =   5.2250803944983E-03
(PID.TID 0000.0001) %MON advcfl_wvel_max              =   2.3782206904407E-01
(PID.TID 0000.0001) %MON advcfl_W_hf_max              =   1.1862763589327E-01
(PID.TID 0000.0001) %MON pe_b_mean                    =   1.9366444567783E-05
(PID.TID 0000.0001) %MON ke_max                       =   1.2669621504303E-03
(PID.TID 0000.0001) %MON ke_mean                      =   6.4989851726599E-05
(PID.TID 0000.0001) %MON ke_vol                       =   1.3226782436722E+18
(PID.TID 0000.0001) %MON vort_r_min                   =  -2.1230895880561E-07
(PID.TID 0000.0001) %MON vort_r_max                   =   2.4554352572252E-07
(PID.TID 0000.0001) %MON vort_a_mean                  =  -2.5205769238877E-05
(PID.TID 0000.0001) %MON vort_a_sd                    =   7.3402826360377E-05
(PID.TID 0000.0001) %MON vort_p_mean                  =  -3.1758889225063E-05
(PID.TID 0000.0001) %MON vort_p_sd                    =   1.3126611258029E-04
(PID.TID 0000.0001) %MON surfExpan_theta_mean         =   1.3485879051460E-04
(PID.TID 0000.0001) %MON surfExpan_salt_mean          =   1.1212762788425E-05
(PID.TID 0000.0001) // =======================================================
(PID.TID 0000.0001) // End MONITOR dynamic field statistics
(PID.TID 0000.0001) // =======================================================
 cg2d: Sum(rhs),rhsMax =   2.13162820728030E-14  6.91967777569565E+00
(PID.TID 0000.0001)                    cg2d_init_res =    1.78283260764696E+00
(PID.TID 0000.0001)                       cg2d_iters =    26
(PID.TID 0000.0001)                         cg2d_res =    2.66203863720469E-14
(PID.TID 0000.0001) // =======================================================
(PID.TID 0000.0001) // Begin MONITOR dynamic field statistics
(PID.TID 0000.0001) // =======================================================
(PID.TID 0000.0001) %MON time_tsnumber                =                     5
(PID.TID 0000.0001) %MON time_secondsf                =   2.1600000000000E+05
(PID.TID 0000.0001) %MON dynstat_eta_max              =   6.3632955551851E-01
(PID.TID 0000.0001) %MON dynstat_eta_min              =  -5.7673172875161E-01
(PID.TID 0000.0001) %MON dynstat_eta_mean             =  -9.0563588601586E-18
(PID.TID 0000.0001) %MON dynstat_eta_sd               =   1.5170374629127E-01
(PID.TID 0000.0001) %MON dynstat_eta_del2             =   2.9216746286454E-03
(PID.TID 0000.0001) %MON dynstat_uvel_max             =   5.6469601980618E-02
(PID.TID 0000.0001) %MON dynstat_uvel_min             =  -5.4254408359155E-02
(PID.TID 0000.0001) %MON dynstat_uvel_mean            =  -3.2479801206937E-03
(PID.TID 0000.0001) %MON dynstat_uvel_sd              =   5.3176552664217E-03
(PID.TID 0000.0001) %MON dynstat_uvel_del2            =   6.1287702097196E-05
(PID.TID 0000.0001) %MON dynstat_vvel_max             =   5.9776075950635E-02
(PID.TID 0000.0001) %MON dynstat_vvel_min             =  -4.8162702153546E-02
(PID.TID 0000.0001) %MON dynstat_vvel_mean            =   3.8874370013312E-03
(PID.TID 0000.0001) %MON dynstat_vvel_sd              =   1.2165795352760E-02
(PID.TID 0000.0001) %MON dynstat_vvel_del2            =   7.7091471732383E-05
(PID.TID 0000.0001) %MON dynstat_wvel_max             =   2.4145854569485E-04
(PID.TID 0000.0001) %MON dynstat_wvel_min             =  -2.4354016805918E-04
(PID.TID 0000.0001) %MON dynstat_wvel_mean            =   4.6974818064941E-22
(PID.TID 0000.0001) %MON dynstat_wvel_sd              =   3.0856074158923E-05
(PID.TID 0000.0001) %MON dynstat_wvel_del2            =   2.9644920146988E-07
(PID.TID 0000.0001) %MON dynstat_theta_max            =   2.9706135481503E+01
(PID.TID 0000.0001) %MON dynstat_theta_min            =  -1.9423124093436E+00
(PID.TID 0000.0001) %MON dynstat_theta_mean           =   3.6140100402150E+00
(PID.TID 0000.0001) %MON dynstat_theta_sd             =   4.4046292938907E+00
(PID.TID 0000.0001) %MON dynstat_theta_del2           =   5.3076302785904E-03
(PID.TID 0000.0001) %MON dynstat_salt_max             =   3.7453603833970E+01
(PID.TID 0000.0001) %MON dynstat_salt_min             =   2.9768036583867E+01
(PID.TID 0000.0001) %MON dynstat_salt_mean            =   3.4717530254978E+01
(PID.TID 0000.0001) %MON dynstat_salt_sd              =   2.9602597793004E-01
(PID.TID 0000.0001) %MON dynstat_salt_del2            =   1.0088486910547E-03
(PID.TID 0000.0001) %MON forcing_qnet_max             =   4.2798718261719E+02
(PID.TID 0000.0001) %MON forcing_qnet_min             =  -1.8609266001383E+02
(PID.TID 0000.0001) %MON forcing_qnet_mean            =  -1.6675181426744E+01
(PID.TID 0000.0001) %MON forcing_qnet_sd              =   1.1242481361476E+02
(PID.TID 0000.0001) %MON forcing_qnet_del2            =   9.9305199082959E-01
(PID.TID 0000.0001) %MON forcing_qsw_max              =   0.0000000000000E+00
(PID.TID 0000.0001) %MON forcing_qsw_min              =   0.0000000000000E+00
(PID.TID 0000.0001) %MON forcing_qsw_mean             =   0.0000000000000E+00
(PID.TID 0000.0001) %MON forcing_qsw_sd               =   0.0000000000000E+00
(PID.TID 0000.0001) %MON forcing_qsw_del2             =   0.0000000000000E+00
(PID.TID 0000.0001) %MON forcing_empmr_max            =   0.0000000000000E+00
(PID.TID 0000.0001) %MON forcing_empmr_min            =   0.0000000000000E+00
(PID.TID 0000.0001) %MON forcing_empmr_mean           =   0.0000000000000E+00
(PID.TID 0000.0001) %MON forcing_empmr_sd             =   0.0000000000000E+00
(PID.TID 0000.0001) %MON forcing_empmr_del2           =   0.0000000000000E+00
(PID.TID 0000.0001) %MON forcing_fu_max               =   2.7317289412022E-01
(PID.TID 0000.0001) %MON forcing_fu_min               =  -1.6030610948801E-01
(PID.TID 0000.0001) %MON forcing_fu_mean              =   1.6101741826049E-02
(PID.TID 0000.0001) %MON forcing_fu_sd                =   9.0133772222350E-02
(PID.TID 0000.0001) %MON forcing_fu_del2              =   6.5664222090357E-04
(PID.TID 0000.0001) %MON forcing_fv_max               =   2.0930016835531E-01
(PID.TID 0000.0001) %MON forcing_fv_min               =  -1.8573744744062E-01
(PID.TID 0000.0001) %MON forcing_fv_mean              =  -6.2178105886955E-03
(PID.TID 0000.0001) %MON forcing_fv_sd                =   4.5379778517573E-02
(PID.TID 0000.0001) %MON forcing_fv_del2              =   4.4636987924417E-04
(PID.TID 0000.0001) %MON advcfl_uvel_max              =   1.2404736447192E-02
(PID.TID 0000.0001) %MON advcfl_vvel_max              =   5.8067664321050E-03
(PID.TID 0000.0001) %MON advcfl_wvel_max              =   2.4905786768184E-01
(PID.TID 0000.0001) %MON advcfl_W_hf_max              =   1.2559028027755E-01
(PID.TID 0000.0001) %MON pe_b_mean                    =   2.9449221030134E-05
(PID.TID 0000.0001) %MON ke_max                       =   1.8396676761282E-03
(PID.TID 0000.0001) %MON ke_mean                      =   9.0869919222733E-05
(PID.TID 0000.0001) %MON ke_vol                       =   1.3226782436722E+18
(PID.TID 0000.0001) %MON vort_r_min                   =  -2.5864227016043E-07
(PID.TID 0000.0001) %MON vort_r_max                   =   2.9365404879262E-07
(PID.TID 0000.0001) %MON vort_a_mean                  =  -2.5205769223573E-05
(PID.TID 0000.0001) %MON vort_a_sd                    =   7.3402658279286E-05
(PID.TID 0000.0001) %MON vort_p_mean                  =  -3.1758916838916E-05
(PID.TID 0000.0001) %MON vort_p_sd                    =   1.3126588262038E-04
(PID.TID 0000.0001) %MON surfExpan_theta_mean         =   1.5117571094129E-04
(PID.TID 0000.0001) %MON surfExpan_salt_mean          =   1.2542008027900E-05
(PID.TID 0000.0001) // =======================================================
(PID.TID 0000.0001) // End MONITOR dynamic field statistics
(PID.TID 0000.0001) // =======================================================
 cg2d: Sum(rhs),rhsMax =  -1.42108547152020E-14  6.87877910610654E+00
(PID.TID 0000.0001)                    cg2d_init_res =    1.74759155020835E+00
(PID.TID 0000.0001)                       cg2d_iters =    26
(PID.TID 0000.0001)                         cg2d_res =    2.85702423099849E-14
(PID.TID 0000.0001) // =======================================================
(PID.TID 0000.0001) // Begin MONITOR dynamic field statistics
(PID.TID 0000.0001) // =======================================================
(PID.TID 0000.0001) %MON time_tsnumber                =                     6
(PID.TID 0000.0001) %MON time_secondsf                =   2.5920000000000E+05
(PID.TID 0000.0001) %MON dynstat_eta_max              =   7.2954329740383E-01
(PID.TID 0000.0001) %MON dynstat_eta_min              =  -6.3761885566710E-01
(PID.TID 0000.0001) %MON dynstat_eta_mean             =   9.0563588601586E-19
(PID.TID 0000.0001) %MON dynstat_eta_sd               =   1.7930329494909E-01
(PID.TID 0000.0001) %MON dynstat_eta_del2             =   2.7741412506413E-03
(PID.TID 0000.0001) %MON dynstat_uvel_max             =   6.8696796604553E-02
(PID.TID 0000.0001) %MON dynstat_uvel_min             =  -6.3370493524293E-02
(PID.TID 0000.0001) %MON dynstat_uvel_mean            =  -4.1885205340489E-03
(PID.TID 0000.0001) %MON dynstat_uvel_sd              =   6.5895926887814E-03
(PID.TID 0000.0001) %MON dynstat_uvel_del2            =   7.1301242303806E-05
(PID.TID 0000.0001) %MON dynstat_vvel_max             =   6.9459974470742E-02
(PID.TID 0000.0001) %MON dynstat_vvel_min             =  -5.9112524764660E-02
(PID.TID 0000.0001) %MON dynstat_vvel_mean            =   4.3862708550658E-03
(PID.TID 0000.0001) %MON dynstat_vvel_sd              =   1.3458637104262E-02
(PID.TID 0000.0001) %MON dynstat_vvel_del2            =   8.9858828439718E-05
(PID.TID 0000.0001) %MON dynstat_wvel_max             =   2.6805351269873E-04
(PID.TID 0000.0001) %MON dynstat_wvel_min             =  -2.7422322909525E-04
(PID.TID 0000.0001) %MON dynstat_wvel_mean            =   9.3949636129883E-23
(PID.TID 0000.0001) %MON dynstat_wvel_sd              =   3.2788108141435E-05
(PID.TID 0000.0001) %MON dynstat_wvel_del2            =   3.3573859227147E-07
(PID.TID 0000.0001) %MON dynstat_theta_max            =   2.9716931612002E+01
(PID.TID 0000.0001) %MON dynstat_theta_min            =  -1.9627742293874E+00
(PID.TID 0000.0001) %MON dynstat_theta_mean           =   3.6122583309357E+00
(PID.TID 0000.0001) %MON dynstat_theta_sd             =   4.4008136460838E+00
(PID.TID 0000.0001) %MON dynstat_theta_del2           =   5.2764631136479E-03
(PID.TID 0000.0001) %MON dynstat_salt_max             =   3.7450111662077E+01
(PID.TID 0000.0001) %MON dynstat_salt_min             =   2.9771878758795E+01
(PID.TID 0000.0001) %MON dynstat_salt_mean            =   3.4717384279179E+01
(PID.TID 0000.0001) %MON dynstat_salt_sd              =   2.9600858409606E-01
(PID.TID 0000.0001) %MON dynstat_salt_del2            =   1.0057520421633E-03
(PID.TID 0000.0001) %MON forcing_qnet_max             =   4.2851127624512E+02
(PID.TID 0000.0001) %MON forcing_qnet_min             =  -1.8585907872518E+02
(PID.TID 0000.0001) %MON forcing_qnet_mean            =  -1.6668925448832E+01
(PID.TID 0000.0001) %MON forcing_qnet_sd              =   1.1231844797748E+02
(PID.TID 0000.0001) %MON forcing_qnet_del2            =   9.9372589486325E-01
(PID.TID 0000.0001) %MON forcing_qsw_max              =   0.0000000000000E+00
(PID.TID 0000.0001) %MON forcing_qsw_min              =   0.0000000000000E+00
(PID.TID 0000.0001) %MON forcing_qsw_mean             =   0.0000000000000E+00
(PID.TID 0000.0001) %MON forcing_qsw_sd               =   0.0000000000000E+00
(PID.TID 0000.0001) %MON forcing_qsw_del2             =   0.0000000000000E+00
(PID.TID 0000.0001) %MON forcing_empmr_max            =   0.0000000000000E+00
(PID.TID 0000.0001) %MON forcing_empmr_min            =   0.0000000000000E+00
(PID.TID 0000.0001) %MON forcing_empmr_mean           =   0.0000000000000E+00
(PID.TID 0000.0001) %MON forcing_empmr_sd             =   0.0000000000000E+00
(PID.TID 0000.0001) %MON forcing_empmr_del2           =   0.0000000000000E+00
(PID.TID 0000.0001) %MON forcing_fu_max               =   2.7274361997843E-01
(PID.TID 0000.0001) %MON forcing_fu_min               =  -1.6071281954646E-01
(PID.TID 0000.0001) %MON forcing_fu_mean              =   1.6097895415531E-02
(PID.TID 0000.0001) %MON forcing_fu_sd                =   9.0135716811571E-02
(PID.TID 0000.0001) %MON forcing_fu_del2              =   6.5772173879570E-04
(PID.TID 0000.0001) %MON forcing_fv_max               =   2.0962250605226E-01
(PID.TID 0000.0001) %MON forcing_fv_min               =  -1.8544511869550E-01
(PID.TID 0000.0001) %MON forcing_fv_mean              =  -6.1809293252651E-03
(PID.TID 0000.0001) %MON forcing_fv_sd                =   4.5444816425210E-02
(PID.TID 0000.0001) %MON forcing_fv_del2              =   4.4681757582574E-04
(PID.TID 0000.0001) %MON advcfl_uvel_max              =   1.5145760608001E-02
(PID.TID 0000.0001) %MON advcfl_vvel_max              =   6.7474795178033E-03
(PID.TID 0000.0001) %MON advcfl_wvel_max              =   2.1702566329583E-01
(PID.TID 0000.0001) %MON advcfl_W_hf_max              =   1.1183972992433E-01
(PID.TID 0000.0001) %MON pe_b_mean                    =   4.1139379877027E-05
(PID.TID 0000.0001) %MON ke_max                       =   2.4635293938012E-03
(PID.TID 0000.0001) %MON ke_mean                      =   1.1765363446795E-04
(PID.TID 0000.0001) %MON ke_vol                       =   1.3226782436722E+18
(PID.TID 0000.0001) %MON vort_r_min                   =  -2.9739803260792E-07
(PID.TID 0000.0001) %MON vort_r_max                   =   3.3421451772101E-07
(PID.TID 0000.0001) %MON vort_a_mean                  =  -2.5205769235329E-05
(PID.TID 0000.0001) %MON vort_a_sd                    =   7.3402480591422E-05
(PID.TID 0000.0001) %MON vort_p_mean                  =  -3.1758927990870E-05
(PID.TID 0000.0001) %MON vort_p_sd                    =   1.3126555872437E-04
(PID.TID 0000.0001) %MON surfExpan_theta_mean         =   1.6207398862111E-04
(PID.TID 0000.0001) %MON surfExpan_salt_mean          =   1.3324779879823E-05
(PID.TID 0000.0001) // =======================================================
(PID.TID 0000.0001) // End MONITOR dynamic field statistics
(PID.TID 0000.0001) // =======================================================
 EXTERNAL_FIELDS_LOAD, it=         6 : Reading new data, i0,i1=   12    1 (prev=   12    0 )
 cg2d: Sum(rhs),rhsMax =  -3.01980662698043E-14  7.25010384079270E+00
(PID.TID 0000.0001)                    cg2d_init_res =    1.59989501681803E+00
(PID.TID 0000.0001)                       cg2d_iters =    26
(PID.TID 0000.0001)                         cg2d_res =    2.68496060747189E-14
(PID.TID 0000.0001) // =======================================================
(PID.TID 0000.0001) // Begin MONITOR dynamic field statistics
(PID.TID 0000.0001) // =======================================================
(PID.TID 0000.0001) %MON time_tsnumber                =                     7
(PID.TID 0000.0001) %MON time_secondsf                =   3.0240000000000E+05
(PID.TID 0000.0001) %MON dynstat_eta_max              =   8.3348724321225E-01
(PID.TID 0000.0001) %MON dynstat_eta_min              =  -6.9205691919400E-01
(PID.TID 0000.0001) %MON dynstat_eta_mean             =  -1.4490174176254E-17
(PID.TID 0000.0001) %MON dynstat_eta_sd               =   2.0600513230060E-01
(PID.TID 0000.0001) %MON dynstat_eta_del2             =   2.6355879707135E-03
(PID.TID 0000.0001) %MON dynstat_uvel_max             =   8.0350514586575E-02
(PID.TID 0000.0001) %MON dynstat_uvel_min             =  -7.7917526256130E-02
(PID.TID 0000.0001) %MON dynstat_uvel_mean            =  -5.1546256313697E-03
(PID.TID 0000.0001) %MON dynstat_uvel_sd              =   7.9091909607840E-03
(PID.TID 0000.0001) %MON dynstat_uvel_del2            =   8.0149883062297E-05
(PID.TID 0000.0001) %MON dynstat_vvel_max             =   7.9307922516147E-02
(PID.TID 0000.0001) %MON dynstat_vvel_min             =  -6.9997979692153E-02
(PID.TID 0000.0001) %MON dynstat_vvel_mean            =   4.7623553632231E-03
(PID.TID 0000.0001) %MON dynstat_vvel_sd              =   1.4435929225008E-02
(PID.TID 0000.0001) %MON dynstat_vvel_del2            =   1.0026035765411E-04
(PID.TID 0000.0001) %MON dynstat_wvel_max             =   2.8911987605273E-04
(PID.TID 0000.0001) %MON dynstat_wvel_min             =  -2.9896641005389E-04
(PID.TID 0000.0001) %MON dynstat_wvel_mean            =  -2.2547912671172E-21
(PID.TID 0000.0001) %MON dynstat_wvel_sd              =   3.4652153459317E-05
(PID.TID 0000.0001) %MON dynstat_wvel_del2            =   3.7328299439234E-07
(PID.TID 0000.0001) %MON dynstat_theta_max            =   2.9717979799624E+01
(PID.TID 0000.0001) %MON dynstat_theta_min            =  -1.9833482710991E+00
(PID.TID 0000.0001) %MON dynstat_theta_mean           =   3.6104435319036E+00
(PID.TID 0000.0001) %MON dynstat_theta_sd             =   4.3967768011379E+00
(PID.TID 0000.0001) %MON dynstat_theta_del2           =   5.2405856974644E-03
(PID.TID 0000.0001) %MON dynstat_salt_max             =   3.7447248780115E+01
(PID.TID 0000.0001) %MON dynstat_salt_min             =   2.9775562841637E+01
(PID.TID 0000.0001) %MON dynstat_salt_mean            =   3.4717235079923E+01
(PID.TID 0000.0001) %MON dynstat_salt_sd              =   2.9598279917747E-01
(PID.TID 0000.0001) %MON dynstat_salt_del2            =   1.0026089991348E-03
(PID.TID 0000.0001) %MON forcing_qnet_max             =   4.2903536987305E+02
(PID.TID 0000.0001) %MON forcing_qnet_min             =  -1.8562549743652E+02
(PID.TID 0000.0001) %MON forcing_qnet_mean            =  -1.6662669470921E+01
(PID.TID 0000.0001) %MON forcing_qnet_sd              =   1.1221272517031E+02
(PID.TID 0000.0001) %MON forcing_qnet_del2            =   9.9444386812388E-01
(PID.TID 0000.0001) %MON forcing_qsw_max              =   0.0000000000000E+00
(PID.TID 0000.0001) %MON forcing_qsw_min              =   0.0000000000000E+00
(PID.TID 0000.0001) %MON forcing_qsw_mean             =   0.0000000000000E+00
(PID.TID 0000.0001) %MON forcing_qsw_sd               =   0.0000000000000E+00
(PID.TID 0000.0001) %MON forcing_qsw_del2             =   0.0000000000000E+00
(PID.TID 0000.0001) %MON forcing_empmr_max            =   0.0000000000000E+00
(PID.TID 0000.0001) %MON forcing_empmr_min            =   0.0000000000000E+00
(PID.TID 0000.0001) %MON forcing_empmr_mean           =   0.0000000000000E+00
(PID.TID 0000.0001) %MON forcing_empmr_sd             =   0.0000000000000E+00
(PID.TID 0000.0001) %MON forcing_empmr_del2           =   0.0000000000000E+00
(PID.TID 0000.0001) %MON forcing_fu_max               =   2.7231434583664E-01
(PID.TID 0000.0001) %MON forcing_fu_min               =  -1.6111952960491E-01
(PID.TID 0000.0001) %MON forcing_fu_mean              =   1.6094049005012E-02
(PID.TID 0000.0001) %MON forcing_fu_sd                =   9.0140377513934E-02
(PID.TID 0000.0001) %MON forcing_fu_del2              =   6.5893332094781E-04
(PID.TID 0000.0001) %MON forcing_fv_max               =   2.1056245863438E-01
(PID.TID 0000.0001) %MON forcing_fv_min               =  -1.8515278995037E-01
(PID.TID 0000.0001) %MON forcing_fv_mean              =  -6.1440480618347E-03
(PID.TID 0000.0001) %MON forcing_fv_sd                =   4.5513649503191E-02
(PID.TID 0000.0001) %MON forcing_fv_del2              =   4.4740184358134E-04
(PID.TID 0000.0001) %MON advcfl_uvel_max              =   1.7564101703441E-02
(PID.TID 0000.0001) %MON advcfl_vvel_max              =   7.7041286993655E-03
(PID.TID 0000.0001) %MON advcfl_wvel_max              =   1.8506664514467E-01
(PID.TID 0000.0001) %MON advcfl_W_hf_max              =   9.3594405336576E-02
(PID.TID 0000.0001) %MON pe_b_mean                    =   5.4304682732574E-05
(PID.TID 0000.0001) %MON ke_max                       =   3.2228475544243E-03
(PID.TID 0000.0001) %MON ke_mean                      =   1.4422984223629E-04
(PID.TID 0000.0001) %MON ke_vol                       =   1.3226782436722E+18
(PID.TID 0000.0001) %MON vort_r_min                   =  -3.2759825357564E-07
(PID.TID 0000.0001) %MON vort_r_max                   =   3.6777616023961E-07
(PID.TID 0000.0001) %MON vort_a_mean                  =  -2.5205769288964E-05
(PID.TID 0000.0001) %MON vort_a_sd                    =   7.3402298345503E-05
(PID.TID 0000.0001) %MON vort_p_mean                  =  -3.1758932203913E-05
(PID.TID 0000.0001) %MON vort_p_sd                    =   1.3126517980694E-04
(PID.TID 0000.0001) %MON surfExpan_theta_mean         =   1.6807198356290E-04
(PID.TID 0000.0001) %MON surfExpan_salt_mean          =   1.3632862745345E-05
(PID.TID 0000.0001) // =======================================================
(PID.TID 0000.0001) // End MONITOR dynamic field statistics
(PID.TID 0000.0001) // =======================================================
 cg2d: Sum(rhs),rhsMax =   3.55271367880050E-15  7.86920876352690E+00
(PID.TID 0000.0001)                    cg2d_init_res =    1.41877083376262E+00
(PID.TID 0000.0001)                       cg2d_iters =    26
(PID.TID 0000.0001)                         cg2d_res =    2.39980824529077E-14
(PID.TID 0000.0001) // =======================================================
(PID.TID 0000.0001) // Begin MONITOR dynamic field statistics
(PID.TID 0000.0001) // =======================================================
(PID.TID 0000.0001) %MON time_tsnumber                =                     8
(PID.TID 0000.0001) %MON time_secondsf                =   3.4560000000000E+05
(PID.TID 0000.0001) %MON dynstat_eta_max              =   9.0789220076975E-01
(PID.TID 0000.0001) %MON dynstat_eta_min              =  -7.2753041705749E-01
(PID.TID 0000.0001) %MON dynstat_eta_mean             =   1.9923989492349E-17
(PID.TID 0000.0001) %MON dynstat_eta_sd               =   2.3166803278248E-01
(PID.TID 0000.0001) %MON dynstat_eta_del2             =   2.5291752455362E-03
(PID.TID 0000.0001) %MON dynstat_uvel_max             =   9.1359735709091E-02
(PID.TID 0000.0001) %MON dynstat_uvel_min             =  -9.8312193726696E-02
(PID.TID 0000.0001) %MON dynstat_uvel_mean            =  -6.1147013638890E-03
(PID.TID 0000.0001) %MON dynstat_uvel_sd              =   9.2437143780011E-03
(PID.TID 0000.0001) %MON dynstat_uvel_del2            =   8.8044548984722E-05
(PID.TID 0000.0001) %MON dynstat_vvel_max             =   8.5968367508571E-02
(PID.TID 0000.0001) %MON dynstat_vvel_min             =  -7.9888675658618E-02
(PID.TID 0000.0001) %MON dynstat_vvel_mean            =   5.0111064163979E-03
(PID.TID 0000.0001) %MON dynstat_vvel_sd              =   1.5118576626039E-02
(PID.TID 0000.0001) %MON dynstat_vvel_del2            =   1.0869288918803E-04
(PID.TID 0000.0001) %MON dynstat_wvel_max             =   3.0380150003705E-04
(PID.TID 0000.0001) %MON dynstat_wvel_min             =  -3.1733644772922E-04
(PID.TID 0000.0001) %MON dynstat_wvel_mean            =   4.6974818064941E-22
(PID.TID 0000.0001) %MON dynstat_wvel_sd              =   3.6252161206587E-05
(PID.TID 0000.0001) %MON dynstat_wvel_del2            =   4.0329861959201E-07
(PID.TID 0000.0001) %MON dynstat_theta_max            =   2.9708605291157E+01
(PID.TID 0000.0001) %MON dynstat_theta_min            =  -2.0020235665567E+00
(PID.TID 0000.0001) %MON dynstat_theta_mean           =   3.6086140869707E+00
(PID.TID 0000.0001) %MON dynstat_theta_sd             =   4.3925957503698E+00
(PID.TID 0000.0001) %MON dynstat_theta_del2           =   5.1996371851762E-03
(PID.TID 0000.0001) %MON dynstat_salt_max             =   3.7444989886224E+01
(PID.TID 0000.0001) %MON dynstat_salt_min             =   2.9778924852396E+01
(PID.TID 0000.0001) %MON dynstat_salt_mean            =   3.4717087173468E+01
(PID.TID 0000.0001) %MON dynstat_salt_sd              =   2.9594851107340E-01
(PID.TID 0000.0001) %MON dynstat_salt_del2            =   9.9938094442009E-04
(PID.TID 0000.0001) %MON forcing_qnet_max             =   4.2955946350098E+02
(PID.TID 0000.0001) %MON forcing_qnet_min             =  -1.8539191614787E+02
(PID.TID 0000.0001) %MON forcing_qnet_mean            =  -1.6656413493009E+01
(PID.TID 0000.0001) %MON forcing_qnet_sd              =   1.1210764701191E+02
(PID.TID 0000.0001) %MON forcing_qnet_del2            =   9.9520581523265E-01
(PID.TID 0000.0001) %MON forcing_qsw_max              =   0.0000000000000E+00
(PID.TID 0000.0001) %MON forcing_qsw_min              =   0.0000000000000E+00
(PID.TID 0000.0001) %MON forcing_qsw_mean             =   0.0000000000000E+00
(PID.TID 0000.0001) %MON forcing_qsw_sd               =   0.0000000000000E+00
(PID.TID 0000.0001) %MON forcing_qsw_del2             =   0.0000000000000E+00
(PID.TID 0000.0001) %MON forcing_empmr_max            =   0.0000000000000E+00
(PID.TID 0000.0001) %MON forcing_empmr_min            =   0.0000000000000E+00
(PID.TID 0000.0001) %MON forcing_empmr_mean           =   0.0000000000000E+00
(PID.TID 0000.0001) %MON forcing_empmr_sd             =   0.0000000000000E+00
(PID.TID 0000.0001) %MON forcing_empmr_del2           =   0.0000000000000E+00
(PID.TID 0000.0001) %MON forcing_fu_max               =   2.7188507169485E-01
(PID.TID 0000.0001) %MON forcing_fu_min               =  -1.6152623966336E-01
(PID.TID 0000.0001) %MON forcing_fu_mean              =   1.6090202594493E-02
(PID.TID 0000.0001) %MON forcing_fu_sd                =   9.0147753908164E-02
(PID.TID 0000.0001) %MON forcing_fu_del2              =   6.6027624036139E-04
(PID.TID 0000.0001) %MON forcing_fv_max               =   2.1150241121650E-01
(PID.TID 0000.0001) %MON forcing_fv_min               =  -1.8486046120524E-01
(PID.TID 0000.0001) %MON forcing_fv_mean              =  -6.1071667984043E-03
(PID.TID 0000.0001) %MON forcing_fv_sd                =   4.5586260559939E-02
(PID.TID 0000.0001) %MON forcing_fv_del2              =   4.4812214832125E-04
(PID.TID 0000.0001) %MON advcfl_uvel_max              =   1.8679731035549E-02
(PID.TID 0000.0001) %MON advcfl_vvel_max              =   8.3511375200320E-03
(PID.TID 0000.0001) %MON advcfl_wvel_max              =   1.9972713587228E-01
(PID.TID 0000.0001) %MON advcfl_W_hf_max              =   1.0242840091058E-01
(PID.TID 0000.0001) %MON pe_b_mean                    =   6.8677333056691E-05
(PID.TID 0000.0001) %MON ke_max                       =   4.2227249788504E-03
(PID.TID 0000.0001) %MON ke_mean                      =   1.6969379373375E-04
(PID.TID 0000.0001) %MON ke_vol                       =   1.3226782436722E+18
(PID.TID 0000.0001) %MON vort_r_min                   =  -3.4942514681962E-07
(PID.TID 0000.0001) %MON vort_r_max                   =   4.4978936025403E-07
(PID.TID 0000.0001) %MON vort_a_mean                  =  -2.5205769380887E-05
(PID.TID 0000.0001) %MON vort_a_sd                    =   7.3402116790104E-05
(PID.TID 0000.0001) %MON vort_p_mean                  =  -3.1758934367767E-05
(PID.TID 0000.0001) %MON vort_p_sd                    =   1.3126477352979E-04
(PID.TID 0000.0001) %MON surfExpan_theta_mean         =   1.6966133492746E-04
(PID.TID 0000.0001) %MON surfExpan_salt_mean          =   1.3527444756756E-05
(PID.TID 0000.0001) // =======================================================
(PID.TID 0000.0001) // End MONITOR dynamic field statistics
(PID.TID 0000.0001) // =======================================================
 cg2d: Sum(rhs),rhsMax =   5.50670620214078E-14  8.21195865179567E+00
(PID.TID 0000.0001)                    cg2d_init_res =    1.31028992681352E+00
(PID.TID 0000.0001)                       cg2d_iters =    25
(PID.TID 0000.0001)                         cg2d_res =    9.71831744529399E-14
(PID.TID 0000.0001) // =======================================================
(PID.TID 0000.0001) // Begin MONITOR dynamic field statistics
(PID.TID 0000.0001) // =======================================================
(PID.TID 0000.0001) %MON time_tsnumber                =                     9
(PID.TID 0000.0001) %MON time_secondsf                =   3.8880000000000E+05
(PID.TID 0000.0001) %MON dynstat_eta_max              =   9.5118699409664E-01
(PID.TID 0000.0001) %MON dynstat_eta_min              =  -8.1220044556007E-01
(PID.TID 0000.0001) %MON dynstat_eta_mean             =  -5.4338153160952E-18
(PID.TID 0000.0001) %MON dynstat_eta_sd               =   2.5600835599832E-01
(PID.TID 0000.0001) %MON dynstat_eta_del2             =   2.4476072891500E-03
(PID.TID 0000.0001) %MON dynstat_uvel_max             =   1.0172302483821E-01
(PID.TID 0000.0001) %MON dynstat_uvel_min             =  -1.1625974364422E-01
(PID.TID 0000.0001) %MON dynstat_uvel_mean            =  -7.0380326162996E-03
(PID.TID 0000.0001) %MON dynstat_uvel_sd              =   1.0561772357484E-02
(PID.TID 0000.0001) %MON dynstat_uvel_del2            =   9.5101575642344E-05
(PID.TID 0000.0001) %MON dynstat_vvel_max             =   9.0911951446575E-02
(PID.TID 0000.0001) %MON dynstat_vvel_min             =  -8.8663490298942E-02
(PID.TID 0000.0001) %MON dynstat_vvel_mean            =   5.1328312921264E-03
(PID.TID 0000.0001) %MON dynstat_vvel_sd              =   1.5534413644674E-02
(PID.TID 0000.0001) %MON dynstat_vvel_del2            =   1.1549100203000E-04
(PID.TID 0000.0001) %MON dynstat_wvel_max             =   3.1100918435980E-04
(PID.TID 0000.0001) %MON dynstat_wvel_min             =  -3.2963610182796E-04
(PID.TID 0000.0001) %MON dynstat_wvel_mean            =  -1.8789927225977E-22
(PID.TID 0000.0001) %MON dynstat_wvel_sd              =   3.7435144004951E-05
(PID.TID 0000.0001) %MON dynstat_wvel_del2            =   4.2377144197384E-07
(PID.TID 0000.0001) %MON dynstat_theta_max            =   2.9690155784570E+01
(PID.TID 0000.0001) %MON dynstat_theta_min            =  -2.0173274928151E+00
(PID.TID 0000.0001) %MON dynstat_theta_mean           =   3.6068126131924E+00
(PID.TID 0000.0001) %MON dynstat_theta_sd             =   4.3883402119695E+00
(PID.TID 0000.0001) %MON dynstat_theta_del2           =   5.1557039910663E-03
(PID.TID 0000.0001) %MON dynstat_salt_max             =   3.7443175371603E+01
(PID.TID 0000.0001) %MON dynstat_salt_min             =   2.9781825361232E+01
(PID.TID 0000.0001) %MON dynstat_salt_mean            =   3.4716944464718E+01
(PID.TID 0000.0001) %MON dynstat_salt_sd              =   2.9590597156134E-01
(PID.TID 0000.0001) %MON dynstat_salt_del2            =   9.9619341464723E-04
(PID.TID 0000.0001) %MON forcing_qnet_max             =   4.3008355712891E+02
(PID.TID 0000.0001) %MON forcing_qnet_min             =  -1.8515833485921E+02
(PID.TID 0000.0001) %MON forcing_qnet_mean            =  -1.6650157515098E+01
(PID.TID 0000.0001) %MON forcing_qnet_sd              =   1.1200321531664E+02
(PID.TID 0000.0001) %MON forcing_qnet_del2            =   9.9601163526981E-01
(PID.TID 0000.0001) %MON forcing_qsw_max              =   0.0000000000000E+00
(PID.TID 0000.0001) %MON forcing_qsw_min              =   0.0000000000000E+00
(PID.TID 0000.0001) %MON forcing_qsw_mean             =   0.0000000000000E+00
(PID.TID 0000.0001) %MON forcing_qsw_sd               =   0.0000000000000E+00
(PID.TID 0000.0001) %MON forcing_qsw_del2             =   0.0000000000000E+00
(PID.TID 0000.0001) %MON forcing_empmr_max            =   0.0000000000000E+00
(PID.TID 0000.0001) %MON forcing_empmr_min            =   0.0000000000000E+00
(PID.TID 0000.0001) %MON forcing_empmr_mean           =   0.0000000000000E+00
(PID.TID 0000.0001) %MON forcing_empmr_sd             =   0.0000000000000E+00
(PID.TID 0000.0001) %MON forcing_empmr_del2           =   0.0000000000000E+00
(PID.TID 0000.0001) %MON forcing_fu_max               =   2.7145579755306E-01
(PID.TID 0000.0001) %MON forcing_fu_min               =  -1.6193294972181E-01
(PID.TID 0000.0001) %MON forcing_fu_mean              =   1.6086356183975E-02
(PID.TID 0000.0001) %MON forcing_fu_sd                =   9.0157845327697E-02
(PID.TID 0000.0001) %MON forcing_fu_del2              =   6.6174969745051E-04
(PID.TID 0000.0001) %MON forcing_fv_max               =   2.1244236379862E-01
(PID.TID 0000.0001) %MON forcing_fv_min               =  -1.8456813246012E-01
(PID.TID 0000.0001) %MON forcing_fv_mean              =  -6.0702855349739E-03
(PID.TID 0000.0001) %MON forcing_fv_sd                =   4.5662631572644E-02
(PID.TID 0000.0001) %MON forcing_fv_del2              =   4.4897783530480E-04
(PID.TID 0000.0001) %MON advcfl_uvel_max              =   1.8330170413436E-02
(PID.TID 0000.0001) %MON advcfl_vvel_max              =   8.8313670568320E-03
(PID.TID 0000.0001) %MON advcfl_wvel_max              =   2.0597176499525E-01
(PID.TID 0000.0001) %MON advcfl_W_hf_max              =   1.0857806404152E-01
(PID.TID 0000.0001) %MON pe_b_mean                    =   8.3866685892549E-05
(PID.TID 0000.0001) %MON ke_max                       =   5.3111397799031E-03
(PID.TID 0000.0001) %MON ke_mean                      =   1.9334764750409E-04
(PID.TID 0000.0001) %MON ke_vol                       =   1.3226782436722E+18
(PID.TID 0000.0001) %MON vort_r_min                   =  -3.9463335053050E-07
(PID.TID 0000.0001) %MON vort_r_max                   =   5.3859816765384E-07
(PID.TID 0000.0001) %MON vort_a_mean                  =  -2.5205769497037E-05
(PID.TID 0000.0001) %MON vort_a_sd                    =   7.3401941172481E-05
(PID.TID 0000.0001) %MON vort_p_mean                  =  -3.1758935327525E-05
(PID.TID 0000.0001) %MON vort_p_sd                    =   1.3126435711660E-04
(PID.TID 0000.0001) %MON surfExpan_theta_mean         =   1.6734959453726E-04
(PID.TID 0000.0001) %MON surfExpan_salt_mean          =   1.3062605303614E-05
(PID.TID 0000.0001) // =======================================================
(PID.TID 0000.0001) // End MONITOR dynamic field statistics
(PID.TID 0000.0001) // =======================================================
 EXTERNAL_FIELDS_LOAD, it=         9 : Reading new data, i0,i1=   12    1 (prev=   12    0 )
 cg2d: Sum(rhs),rhsMax =  -2.13162820728030E-14  8.30815242442404E+00
(PID.TID 0000.0001)                    cg2d_init_res =    1.24977301042400E+00
(PID.TID 0000.0001)                       cg2d_iters =    25
(PID.TID 0000.0001)                         cg2d_res =    8.93499976152764E-14
(PID.TID 0000.0001) // =======================================================
(PID.TID 0000.0001) // Begin MONITOR dynamic field statistics
(PID.TID 0000.0001) // =======================================================
(PID.TID 0000.0001) %MON time_tsnumber                =                    10
(PID.TID 0000.0001) %MON time_secondsf                =   4.3200000000000E+05
(PID.TID 0000.0001) %MON dynstat_eta_max              =   9.6719021597590E-01
(PID.TID 0000.0001) %MON dynstat_eta_min              =  -8.6634324007616E-01
(PID.TID 0000.0001) %MON dynstat_eta_mean             =  -4.3470522528761E-17
(PID.TID 0000.0001) %MON dynstat_eta_sd               =   2.7870509079161E-01
(PID.TID 0000.0001) %MON dynstat_eta_del2             =   2.3770563987105E-03
(PID.TID 0000.0001) %MON dynstat_uvel_max             =   1.1145230218944E-01
(PID.TID 0000.0001) %MON dynstat_uvel_min             =  -1.3043887048025E-01
(PID.TID 0000.0001) %MON dynstat_uvel_mean            =  -7.8957544939125E-03
(PID.TID 0000.0001) %MON dynstat_uvel_sd              =   1.1834319269119E-02
(PID.TID 0000.0001) %MON dynstat_uvel_del2            =   1.0137310488003E-04
(PID.TID 0000.0001) %MON dynstat_vvel_max             =   1.0161816634912E-01
(PID.TID 0000.0001) %MON dynstat_vvel_min             =  -9.6137567232656E-02
(PID.TID 0000.0001) %MON dynstat_vvel_mean            =   5.1329447822381E-03
(PID.TID 0000.0001) %MON dynstat_vvel_sd              =   1.5718743292267E-02
(PID.TID 0000.0001) %MON dynstat_vvel_del2            =   1.2084400122733E-04
(PID.TID 0000.0001) %MON dynstat_wvel_max             =   3.0979807862797E-04
(PID.TID 0000.0001) %MON dynstat_wvel_min             =  -3.3777606086855E-04
(PID.TID 0000.0001) %MON dynstat_wvel_mean            =  -2.8184890838965E-22
(PID.TID 0000.0001) %MON dynstat_wvel_sd              =   3.8129408844046E-05
(PID.TID 0000.0001) %MON dynstat_wvel_del2            =   4.3499691121986E-07
(PID.TID 0000.0001) %MON dynstat_theta_max            =   2.9665686458956E+01
(PID.TID 0000.0001) %MON dynstat_theta_min            =  -2.0285226548706E+00
(PID.TID 0000.0001) %MON dynstat_theta_mean           =   3.6050756258024E+00
(PID.TID 0000.0001) %MON dynstat_theta_sd             =   4.3840750507336E+00
(PID.TID 0000.0001) %MON dynstat_theta_del2           =   5.1110808901023E-03
(PID.TID 0000.0001) %MON dynstat_salt_max             =   3.7441585673943E+01
(PID.TID 0000.0001) %MON dynstat_salt_min             =   2.9784156168764E+01
(PID.TID 0000.0001) %MON dynstat_salt_mean            =   3.4716810250834E+01
(PID.TID 0000.0001) %MON dynstat_salt_sd              =   2.9585633293431E-01
(PID.TID 0000.0001) %MON dynstat_salt_del2            =   9.9308448150965E-04
(PID.TID 0000.0001) %MON forcing_qnet_max             =   4.3060765075684E+02
(PID.TID 0000.0001) %MON forcing_qnet_min             =  -1.8492475357056E+02
(PID.TID 0000.0001) %MON forcing_qnet_mean            =  -1.6643901537186E+01
(PID.TID 0000.0001) %MON forcing_qnet_sd              =   1.1189943189448E+02
(PID.TID 0000.0001) %MON forcing_qnet_del2            =   9.9686122184036E-01
(PID.TID 0000.0001) %MON forcing_qsw_max              =   0.0000000000000E+00
(PID.TID 0000.0001) %MON forcing_qsw_min              =   0.0000000000000E+00
(PID.TID 0000.0001) %MON forcing_qsw_mean             =   0.0000000000000E+00
(PID.TID 0000.0001) %MON forcing_qsw_sd               =   0.0000000000000E+00
(PID.TID 0000.0001) %MON forcing_qsw_del2             =   0.0000000000000E+00
(PID.TID 0000.0001) %MON forcing_empmr_max            =   0.0000000000000E+00
(PID.TID 0000.0001) %MON forcing_empmr_min            =   0.0000000000000E+00
(PID.TID 0000.0001) %MON forcing_empmr_mean           =   0.0000000000000E+00
(PID.TID 0000.0001) %MON forcing_empmr_sd             =   0.0000000000000E+00
(PID.TID 0000.0001) %MON forcing_empmr_del2           =   0.0000000000000E+00
(PID.TID 0000.0001) %MON forcing_fu_max               =   2.7102652341127E-01
(PID.TID 0000.0001) %MON forcing_fu_min               =  -1.6233965978026E-01
(PID.TID 0000.0001) %MON forcing_fu_mean              =   1.6082509773456E-02
(PID.TID 0000.0001) %MON forcing_fu_sd                =   9.0170650860979E-02
(PID.TID 0000.0001) %MON forcing_fu_del2              =   6.6335282235437E-04
(PID.TID 0000.0001) %MON forcing_fv_max               =   2.1338231638074E-01
(PID.TID 0000.0001) %MON forcing_fv_min               =  -1.8427580371499E-01
(PID.TID 0000.0001) %MON forcing_fv_mean              =  -6.0334042715435E-03
(PID.TID 0000.0001) %MON forcing_fv_sd                =   4.5742743708708E-02
(PID.TID 0000.0001) %MON forcing_fv_del2              =   4.4996813217914E-04
(PID.TID 0000.0001) %MON advcfl_uvel_max              =   1.6827974078125E-02
(PID.TID 0000.0001) %MON advcfl_vvel_max              =   9.8713899810926E-03
(PID.TID 0000.0001) %MON advcfl_wvel_max              =   2.0534293866717E-01
(PID.TID 0000.0001) %MON advcfl_W_hf_max              =   1.0471411312947E-01
(PID.TID 0000.0001) %MON pe_b_mean                    =   9.9396479678396E-05
(PID.TID 0000.0001) %MON ke_max                       =   6.2755196430212E-03
(PID.TID 0000.0001) %MON ke_mean                      =   2.1470171874760E-04
(PID.TID 0000.0001) %MON ke_vol                       =   1.3226782436722E+18
(PID.TID 0000.0001) %MON vort_r_min                   =  -4.2636805679048E-07
(PID.TID 0000.0001) %MON vort_r_max                   =   6.1846256142247E-07
(PID.TID 0000.0001) %MON vort_a_mean                  =  -2.5205769620114E-05
(PID.TID 0000.0001) %MON vort_a_sd                    =   7.3401776536380E-05
(PID.TID 0000.0001) %MON vort_p_mean                  =  -3.1758934551889E-05
(PID.TID 0000.0001) %MON vort_p_sd                    =   1.3126394387329E-04
(PID.TID 0000.0001) %MON surfExpan_theta_mean         =   1.6169699683898E-04
(PID.TID 0000.0001) %MON surfExpan_salt_mean          =   1.2294483364894E-05
(PID.TID 0000.0001) // =======================================================
(PID.TID 0000.0001) // End MONITOR dynamic field statistics
(PID.TID 0000.0001) // =======================================================
(PID.TID 0000.0001) %CHECKPOINT        10 ckptA
 --> objf_test(bi,bj)   =  0.000000000000000D+00
 --> objf_tracer(bi,bj) =  0.000000000000000D+00
 --> objf_atl(bi,bj)    =  0.000000000000000D+00
 --> objf_test(bi,bj)   =  0.000000000000000D+00
 --> objf_tracer(bi,bj) =  0.000000000000000D+00
 --> objf_atl(bi,bj)    =  0.000000000000000D+00
 --> objf_test(bi,bj)   =  0.000000000000000D+00
 --> objf_tracer(bi,bj) =  0.000000000000000D+00
 --> objf_atl(bi,bj)    =  0.000000000000000D+00
 --> objf_test(bi,bj)   =  0.000000000000000D+00
 --> objf_tracer(bi,bj) =  0.000000000000000D+00
 --> objf_atl(bi,bj)    = -0.456780848880511D-01
  local fc = -0.456780848880511D-01
 global fc = -0.456780848880511D-01
 EXTERNAL_FIELDS_LOAD, it=         0 : Reading new data, i0,i1=   12    1 (prev=   12    0 )
(PID.TID 0000.0001) SOLVE_FOR_PRESSURE: putPmEinXvector =    F
 cg2d: Sum(rhs),rhsMax =   1.15463194561016E-14  2.53674886388737E+00
 cg2d: Sum(rhs),rhsMax =  -4.44089209850063E-15  4.94121768585574E+00
 cg2d: Sum(rhs),rhsMax =   4.55191440096314E-15  6.30228849480757E+00
 EXTERNAL_FIELDS_LOAD, it=         3 : Reading new data, i0,i1=   12    1 (prev=   12    0 )
 cg2d: Sum(rhs),rhsMax =  -2.93098878501041E-14  6.81726659975567E+00
 cg2d: Sum(rhs),rhsMax =   2.13162820728030E-14  6.91967777569565E+00
 cg2d: Sum(rhs),rhsMax =  -1.42108547152020E-14  6.87877910610654E+00
 EXTERNAL_FIELDS_LOAD, it=         6 : Reading new data, i0,i1=   12    1 (prev=   12    0 )
 cg2d: Sum(rhs),rhsMax =  -3.01980662698043E-14  7.25010384079270E+00
 cg2d: Sum(rhs),rhsMax =   3.55271367880050E-15  7.86920876352690E+00
 cg2d: Sum(rhs),rhsMax =   5.50670620214078E-14  8.21195865179567E+00
 EXTERNAL_FIELDS_LOAD, it=         9 : Reading new data, i0,i1=   12    1 (prev=   12    0 )
 cg2d: Sum(rhs),rhsMax =  -2.13162820728030E-14  8.30815242442404E+00
(PID.TID 0000.0001) Did not write pickup because writePickupAtEnd = FALSE
 EXTERNAL_FIELDS_LOAD, it=         9 : Reading new data, i0,i1=   12    1 (prev=   12    0 )
 cg2d: Sum(rhs),rhsMax =  -2.13162820728030E-14  8.30815242442404E+00
(PID.TID 0000.0001) Did not write pickup because writePickupAtEnd = FALSE
 EXTERNAL_FIELDS_LOAD, it=         9 : Reading new data, i0,i1=   12    1 (prev=   12    0 )
 cg2d: Sum(rhs),rhsMax =  -2.13162820728030E-14  8.30815242442404E+00
(PID.TID 0000.0001) Did not write pickup because writePickupAtEnd = FALSE
(PID.TID 0000.0001) // =======================================================
(PID.TID 0000.0001) // Begin MONITOR dynamic field statistics
(PID.TID 0000.0001) // =======================================================
(PID.TID 0000.0001) %MON ad_time_tsnumber             =                    10
(PID.TID 0000.0001) %MON ad_time_secondsf             =   4.3200000000000E+05
(PID.TID 0000.0001) %MON ad_dynstat_adeta_max         =   0.0000000000000E+00
(PID.TID 0000.0001) %MON ad_dynstat_adeta_min         =   0.0000000000000E+00
(PID.TID 0000.0001) %MON ad_dynstat_adeta_mean        =   0.0000000000000E+00
(PID.TID 0000.0001) %MON ad_dynstat_adeta_sd          =   0.0000000000000E+00
(PID.TID 0000.0001) %MON ad_dynstat_adeta_del2        =   0.0000000000000E+00
(PID.TID 0000.0001) %MON ad_dynstat_aduvel_max        =   0.0000000000000E+00
(PID.TID 0000.0001) %MON ad_dynstat_aduvel_min        =   0.0000000000000E+00
(PID.TID 0000.0001) %MON ad_dynstat_aduvel_mean       =   0.0000000000000E+00
(PID.TID 0000.0001) %MON ad_dynstat_aduvel_sd         =   0.0000000000000E+00
(PID.TID 0000.0001) %MON ad_dynstat_aduvel_del2       =   0.0000000000000E+00
(PID.TID 0000.0001) %MON ad_dynstat_advvel_max        =   5.3455016886572E-03
(PID.TID 0000.0001) %MON ad_dynstat_advvel_min        =   0.0000000000000E+00
(PID.TID 0000.0001) %MON ad_dynstat_advvel_mean       =   3.0039420594258E-05
(PID.TID 0000.0001) %MON ad_dynstat_advvel_sd         =   3.1338584631815E-04
(PID.TID 0000.0001) %MON ad_dynstat_advvel_del2       =   4.2134021819863E-06
(PID.TID 0000.0001) %MON ad_dynstat_adwvel_max        =   0.0000000000000E+00
(PID.TID 0000.0001) %MON ad_dynstat_adwvel_min        =   0.0000000000000E+00
(PID.TID 0000.0001) %MON ad_dynstat_adwvel_mean       =   0.0000000000000E+00
(PID.TID 0000.0001) %MON ad_dynstat_adwvel_sd         =   0.0000000000000E+00
(PID.TID 0000.0001) %MON ad_dynstat_adwvel_del2       =   0.0000000000000E+00
(PID.TID 0000.0001) %MON ad_dynstat_adtheta_max       =   2.0191847399702E-06
(PID.TID 0000.0001) %MON ad_dynstat_adtheta_min       =  -4.9674929303407E-06
(PID.TID 0000.0001) %MON ad_dynstat_adtheta_mean      =  -2.0423133980734E-08
(PID.TID 0000.0001) %MON ad_dynstat_adtheta_sd        =   2.4100214423407E-07
(PID.TID 0000.0001) %MON ad_dynstat_adtheta_del2      =   1.9831900115645E-09
(PID.TID 0000.0001) %MON ad_dynstat_adsalt_max        =   0.0000000000000E+00
(PID.TID 0000.0001) %MON ad_dynstat_adsalt_min        =   0.0000000000000E+00
(PID.TID 0000.0001) %MON ad_dynstat_adsalt_mean       =   0.0000000000000E+00
(PID.TID 0000.0001) %MON ad_dynstat_adsalt_sd         =   0.0000000000000E+00
(PID.TID 0000.0001) %MON ad_dynstat_adsalt_del2       =   0.0000000000000E+00
(PID.TID 0000.0001) %MON ad_forcing_adqnet_max        =   0.0000000000000E+00
(PID.TID 0000.0001) %MON ad_forcing_adqnet_min        =   0.0000000000000E+00
(PID.TID 0000.0001) %MON ad_forcing_adqnet_mean       =   0.0000000000000E+00
(PID.TID 0000.0001) %MON ad_forcing_adqnet_sd         =   0.0000000000000E+00
(PID.TID 0000.0001) %MON ad_forcing_adqnet_del2       =   0.0000000000000E+00
(PID.TID 0000.0001) %MON ad_forcing_adempmr_max       =   0.0000000000000E+00
(PID.TID 0000.0001) %MON ad_forcing_adempmr_min       =   0.0000000000000E+00
(PID.TID 0000.0001) %MON ad_forcing_adempmr_mean      =   0.0000000000000E+00
(PID.TID 0000.0001) %MON ad_forcing_adempmr_sd        =   0.0000000000000E+00
(PID.TID 0000.0001) %MON ad_forcing_adempmr_del2      =   0.0000000000000E+00
(PID.TID 0000.0001) %MON ad_forcing_adfu_max          =   0.0000000000000E+00
(PID.TID 0000.0001) %MON ad_forcing_adfu_min          =   0.0000000000000E+00
(PID.TID 0000.0001) %MON ad_forcing_adfu_mean         =   0.0000000000000E+00
(PID.TID 0000.0001) %MON ad_forcing_adfu_sd           =   0.0000000000000E+00
(PID.TID 0000.0001) %MON ad_forcing_adfu_del2         =   0.0000000000000E+00
(PID.TID 0000.0001) %MON ad_forcing_adfv_max          =   0.0000000000000E+00
(PID.TID 0000.0001) %MON ad_forcing_adfv_min          =   0.0000000000000E+00
(PID.TID 0000.0001) %MON ad_forcing_adfv_mean         =   0.0000000000000E+00
(PID.TID 0000.0001) %MON ad_forcing_adfv_sd           =   0.0000000000000E+00
(PID.TID 0000.0001) %MON ad_forcing_adfv_del2         =   0.0000000000000E+00
(PID.TID 0000.0001) %MON ad_advcfl_aduvel_max         =   0.0000000000000E+00
(PID.TID 0000.0001) %MON ad_advcfl_advvel_max         =   5.1927262328308E-04
(PID.TID 0000.0001) %MON ad_advcfl_adwvel_max         =   0.0000000000000E+00
(PID.TID 0000.0001) %MON ad_advcfl_adW_hf_max         =   0.0000000000000E+00
(PID.TID 0000.0001) // =======================================================
(PID.TID 0000.0001) // End MONITOR dynamic field statistics
(PID.TID 0000.0001) // =======================================================
 cg2d: Sum(rhs),rhsMax =  -1.31905646577085E-15  8.04918799222692E-09
 EXTERNAL_FIELDS_LOAD, it=         6 : Reading new data, i0,i1=   12    1 (prev=   12    0 )
 cg2d: Sum(rhs),rhsMax =  -2.84217094304040E-14  7.25010384079270E+00
 cg2d: Sum(rhs),rhsMax =   5.32907051820075E-15  7.86920876352690E+00
 cg2d: Sum(rhs),rhsMax =   8.70414851306123E-14  8.21195865179567E+00
 cg2d: Sum(rhs),rhsMax =   8.70414851306123E-14  8.21195865179567E+00
(PID.TID 0000.0001) // =======================================================
(PID.TID 0000.0001) // Begin MONITOR dynamic field statistics
(PID.TID 0000.0001) // =======================================================
(PID.TID 0000.0001) %MON ad_time_tsnumber             =                     9
(PID.TID 0000.0001) %MON ad_time_secondsf             =   3.8880000000000E+05
(PID.TID 0000.0001) %MON ad_dynstat_adeta_max         =   6.8870039243438E-05
(PID.TID 0000.0001) %MON ad_dynstat_adeta_min         =  -5.7115500222520E-05
(PID.TID 0000.0001) %MON ad_dynstat_adeta_mean        =   5.3902676467391E-10
(PID.TID 0000.0001) %MON ad_dynstat_adeta_sd          =   2.7356806926318E-06
(PID.TID 0000.0001) %MON ad_dynstat_adeta_del2        =   8.0094004952133E-08
(PID.TID 0000.0001) %MON ad_dynstat_aduvel_max        =   6.6029338392979E-04
(PID.TID 0000.0001) %MON ad_dynstat_aduvel_min        =  -1.3576579480780E-04
(PID.TID 0000.0001) %MON ad_dynstat_aduvel_mean       =   3.4016672165857E-07
(PID.TID 0000.0001) %MON ad_dynstat_aduvel_sd         =   1.2004582434884E-05
(PID.TID 0000.0001) %MON ad_dynstat_aduvel_del2       =   8.1281187645715E-08
(PID.TID 0000.0001) %MON ad_dynstat_advvel_max        =   1.0037378777369E-02
(PID.TID 0000.0001) %MON ad_dynstat_advvel_min        =  -2.1867173307151E-03
(PID.TID 0000.0001) %MON ad_dynstat_advvel_mean       =   5.8331528746043E-05
(PID.TID 0000.0001) %MON ad_dynstat_advvel_sd         =   5.1618776697146E-04
(PID.TID 0000.0001) %MON ad_dynstat_advvel_del2       =   6.8587071793975E-06
(PID.TID 0000.0001) %MON ad_dynstat_adwvel_max        =   1.6819780774693E-04
(PID.TID 0000.0001) %MON ad_dynstat_adwvel_min        =  -3.2077138099712E-04
(PID.TID 0000.0001) %MON ad_dynstat_adwvel_mean       =   2.1149803897018E-07
(PID.TID 0000.0001) %MON ad_dynstat_adwvel_sd         =   5.8977898625758E-06
(PID.TID 0000.0001) %MON ad_dynstat_adwvel_del2       =   7.0561354398291E-08
(PID.TID 0000.0001) %MON ad_dynstat_adtheta_max       =   1.4056942631864E-05
(PID.TID 0000.0001) %MON ad_dynstat_adtheta_min       =  -2.0653934275698E-05
(PID.TID 0000.0001) %MON ad_dynstat_adtheta_mean      =  -4.4709268103106E-08
(PID.TID 0000.0001) %MON ad_dynstat_adtheta_sd        =   1.1366875116014E-06
(PID.TID 0000.0001) %MON ad_dynstat_adtheta_del2      =   1.7349184246810E-08
(PID.TID 0000.0001) %MON ad_dynstat_adsalt_max        =   5.5002013183966E-05
(PID.TID 0000.0001) %MON ad_dynstat_adsalt_min        =  -5.3041278459417E-05
(PID.TID 0000.0001) %MON ad_dynstat_adsalt_mean       =   2.2319070428031E-08
(PID.TID 0000.0001) %MON ad_dynstat_adsalt_sd         =   4.2217546504815E-06
(PID.TID 0000.0001) %MON ad_dynstat_adsalt_del2       =   6.0838718214298E-08
(PID.TID 0000.0001) %MON ad_forcing_adqnet_max        =   0.0000000000000E+00
(PID.TID 0000.0001) %MON ad_forcing_adqnet_min        =   0.0000000000000E+00
(PID.TID 0000.0001) %MON ad_forcing_adqnet_mean       =   0.0000000000000E+00
(PID.TID 0000.0001) %MON ad_forcing_adqnet_sd         =   0.0000000000000E+00
(PID.TID 0000.0001) %MON ad_forcing_adqnet_del2       =   0.0000000000000E+00
(PID.TID 0000.0001) %MON ad_forcing_adempmr_max       =   8.1360581041744E-04
(PID.TID 0000.0001) %MON ad_forcing_adempmr_min       =  -7.9214728442988E-04
(PID.TID 0000.0001) %MON ad_forcing_adempmr_mean      =  -3.8137956973203E-07
(PID.TID 0000.0001) %MON ad_forcing_adempmr_sd        =   9.2015862314491E-05
(PID.TID 0000.0001) %MON ad_forcing_adempmr_del2      =   4.8975839249090E-06
(PID.TID 0000.0001) %MON ad_forcing_adfu_max          =   0.0000000000000E+00
(PID.TID 0000.0001) %MON ad_forcing_adfu_min          =   0.0000000000000E+00
(PID.TID 0000.0001) %MON ad_forcing_adfu_mean         =   0.0000000000000E+00
(PID.TID 0000.0001) %MON ad_forcing_adfu_sd           =   0.0000000000000E+00
(PID.TID 0000.0001) %MON ad_forcing_adfu_del2         =   0.0000000000000E+00
(PID.TID 0000.0001) %MON ad_forcing_adfv_max          =   0.0000000000000E+00
(PID.TID 0000.0001) %MON ad_forcing_adfv_min          =   0.0000000000000E+00
(PID.TID 0000.0001) %MON ad_forcing_adfv_mean         =   0.0000000000000E+00
(PID.TID 0000.0001) %MON ad_forcing_adfv_sd           =   0.0000000000000E+00
(PID.TID 0000.0001) %MON ad_forcing_adfv_del2         =   0.0000000000000E+00
(PID.TID 0000.0001) %MON ad_advcfl_aduvel_max         =   7.4065041339586E-05
(PID.TID 0000.0001) %MON ad_advcfl_advvel_max         =   9.7505085812058E-04
(PID.TID 0000.0001) %MON ad_advcfl_adwvel_max         =   2.3095539431792E-01
(PID.TID 0000.0001) %MON ad_advcfl_adW_hf_max         =   2.7652037852092E-01
(PID.TID 0000.0001) // =======================================================
(PID.TID 0000.0001) // End MONITOR dynamic field statistics
(PID.TID 0000.0001) // =======================================================
 cg2d: Sum(rhs),rhsMax =  -1.51670397161713E-15  9.23188036155935E-09
 cg2d: Sum(rhs),rhsMax =   5.32907051820075E-15  7.86920876352690E+00
(PID.TID 0000.0001) // =======================================================
(PID.TID 0000.0001) // Begin MONITOR dynamic field statistics
(PID.TID 0000.0001) // =======================================================
(PID.TID 0000.0001) %MON ad_time_tsnumber             =                     8
(PID.TID 0000.0001) %MON ad_time_secondsf             =   3.4560000000000E+05
(PID.TID 0000.0001) %MON ad_dynstat_adeta_max         =   1.6525120030191E-04
(PID.TID 0000.0001) %MON ad_dynstat_adeta_min         =  -1.3332595923914E-04
(PID.TID 0000.0001) %MON ad_dynstat_adeta_mean        =   2.4457582443405E-09
(PID.TID 0000.0001) %MON ad_dynstat_adeta_sd          =   6.6120091207085E-06
(PID.TID 0000.0001) %MON ad_dynstat_adeta_del2        =   2.0335156013841E-07
(PID.TID 0000.0001) %MON ad_dynstat_aduvel_max        =   1.7669924755616E-03
(PID.TID 0000.0001) %MON ad_dynstat_aduvel_min        =  -5.0961930836301E-04
(PID.TID 0000.0001) %MON ad_dynstat_aduvel_mean       =   1.2203822731844E-06
(PID.TID 0000.0001) %MON ad_dynstat_aduvel_sd         =   3.6916984183813E-05
(PID.TID 0000.0001) %MON ad_dynstat_aduvel_del2       =   2.6500858421129E-07
(PID.TID 0000.0001) %MON ad_dynstat_advvel_max        =   1.3989660379855E-02
(PID.TID 0000.0001) %MON ad_dynstat_advvel_min        =  -6.6709954012215E-03
(PID.TID 0000.0001) %MON ad_dynstat_advvel_mean       =   8.3145537647024E-05
(PID.TID 0000.0001) %MON ad_dynstat_advvel_sd         =   6.5484801157196E-04
(PID.TID 0000.0001) %MON ad_dynstat_advvel_del2       =   8.6054946971582E-06
(PID.TID 0000.0001) %MON ad_dynstat_adwvel_max        =   2.2366514267485E-04
(PID.TID 0000.0001) %MON ad_dynstat_adwvel_min        =  -4.5395612682849E-04
(PID.TID 0000.0001) %MON ad_dynstat_adwvel_mean       =   2.3233695022615E-07
(PID.TID 0000.0001) %MON ad_dynstat_adwvel_sd         =   7.7962868558292E-06
(PID.TID 0000.0001) %MON ad_dynstat_adwvel_del2       =   9.4324753385088E-08
(PID.TID 0000.0001) %MON ad_dynstat_adtheta_max       =   4.6821866042314E-05
(PID.TID 0000.0001) %MON ad_dynstat_adtheta_min       =  -4.1192322424389E-05
(PID.TID 0000.0001) %MON ad_dynstat_adtheta_mean      =  -7.2027398116271E-08
(PID.TID 0000.0001) %MON ad_dynstat_adtheta_sd        =   3.8660273325343E-06
(PID.TID 0000.0001) %MON ad_dynstat_adtheta_del2      =   5.5367656973737E-08
(PID.TID 0000.0001) %MON ad_dynstat_adsalt_max        =   1.8191874518388E-04
(PID.TID 0000.0001) %MON ad_dynstat_adsalt_min        =  -1.9088980524828E-04
(PID.TID 0000.0001) %MON ad_dynstat_adsalt_mean       =   6.0378224163613E-08
(PID.TID 0000.0001) %MON ad_dynstat_adsalt_sd         =   1.7028398586040E-05
(PID.TID 0000.0001) %MON ad_dynstat_adsalt_del2       =   2.4306095155232E-07
(PID.TID 0000.0001) %MON ad_forcing_adqnet_max        =   0.0000000000000E+00
(PID.TID 0000.0001) %MON ad_forcing_adqnet_min        =   0.0000000000000E+00
(PID.TID 0000.0001) %MON ad_forcing_adqnet_mean       =   0.0000000000000E+00
(PID.TID 0000.0001) %MON ad_forcing_adqnet_sd         =   0.0000000000000E+00
(PID.TID 0000.0001) %MON ad_forcing_adqnet_del2       =   0.0000000000000E+00
(PID.TID 0000.0001) %MON ad_forcing_adempmr_max       =   2.0217541186160E-03
(PID.TID 0000.0001) %MON ad_forcing_adempmr_min       =  -1.8224439714792E-03
(PID.TID 0000.0001) %MON ad_forcing_adempmr_mean      =  -8.7497152512998E-07
(PID.TID 0000.0001) %MON ad_forcing_adempmr_sd        =   2.0115656748532E-04
(PID.TID 0000.0001) %MON ad_forcing_adempmr_del2      =   9.7792561635556E-06
(PID.TID 0000.0001) %MON ad_forcing_adfu_max          =   0.0000000000000E+00
(PID.TID 0000.0001) %MON ad_forcing_adfu_min          =   0.0000000000000E+00
(PID.TID 0000.0001) %MON ad_forcing_adfu_mean         =   0.0000000000000E+00
(PID.TID 0000.0001) %MON ad_forcing_adfu_sd           =   0.0000000000000E+00
(PID.TID 0000.0001) %MON ad_forcing_adfu_del2         =   0.0000000000000E+00
(PID.TID 0000.0001) %MON ad_forcing_adfv_max          =   0.0000000000000E+00
(PID.TID 0000.0001) %MON ad_forcing_adfv_min          =   0.0000000000000E+00
(PID.TID 0000.0001) %MON ad_forcing_adfv_mean         =   0.0000000000000E+00
(PID.TID 0000.0001) %MON ad_forcing_adfv_sd           =   0.0000000000000E+00
(PID.TID 0000.0001) %MON ad_forcing_adfv_del2         =   0.0000000000000E+00
(PID.TID 0000.0001) %MON ad_advcfl_aduvel_max         =   1.9820336525305E-04
(PID.TID 0000.0001) %MON ad_advcfl_advvel_max         =   1.3589833223140E-03
(PID.TID 0000.0001) %MON ad_advcfl_adwvel_max         =   3.2684841131652E-01
(PID.TID 0000.0001) %MON ad_advcfl_adW_hf_max         =   3.9147431471781E-01
(PID.TID 0000.0001) // =======================================================
(PID.TID 0000.0001) // End MONITOR dynamic field statistics
(PID.TID 0000.0001) // =======================================================
 cg2d: Sum(rhs),rhsMax =  -5.30890435779252E-15  8.78011552233888E-09
 EXTERNAL_FIELDS_LOAD, it=         6 : Reading new data, i0,i1=   12    1 (prev=   12    0 )
 cg2d: Sum(rhs),rhsMax =  -2.84217094304040E-14  7.25010384079270E+00
(PID.TID 0000.0001) // =======================================================
(PID.TID 0000.0001) // Begin MONITOR dynamic field statistics
(PID.TID 0000.0001) // =======================================================
(PID.TID 0000.0001) %MON ad_time_tsnumber             =                     7
(PID.TID 0000.0001) %MON ad_time_secondsf             =   3.0240000000000E+05
(PID.TID 0000.0001) %MON ad_dynstat_adeta_max         =   2.7867345750750E-04
(PID.TID 0000.0001) %MON ad_dynstat_adeta_min         =  -2.1967023515062E-04
(PID.TID 0000.0001) %MON ad_dynstat_adeta_mean        =   6.7238259018075E-09
(PID.TID 0000.0001) %MON ad_dynstat_adeta_sd          =   1.1434482796636E-05
(PID.TID 0000.0001) %MON ad_dynstat_adeta_del2        =   3.7555603147418E-07
(PID.TID 0000.0001) %MON ad_dynstat_aduvel_max        =   2.8060387411709E-03
(PID.TID 0000.0001) %MON ad_dynstat_aduvel_min        =  -1.0435983739678E-03
(PID.TID 0000.0001) %MON ad_dynstat_aduvel_mean       =   2.7493642404708E-06
(PID.TID 0000.0001) %MON ad_dynstat_aduvel_sd         =   7.3497584595590E-05
(PID.TID 0000.0001) %MON ad_dynstat_aduvel_del2       =   5.6565168299056E-07
(PID.TID 0000.0001) %MON ad_dynstat_advvel_max        =   1.7410636135952E-02
(PID.TID 0000.0001) %MON ad_dynstat_advvel_min        =  -1.2445800518730E-02
(PID.TID 0000.0001) %MON ad_dynstat_advvel_mean       =   1.0336726087169E-04
(PID.TID 0000.0001) %MON ad_dynstat_advvel_sd         =   8.1536154982798E-04
(PID.TID 0000.0001) %MON ad_dynstat_advvel_del2       =   1.0590722168428E-05
(PID.TID 0000.0001) %MON ad_dynstat_adwvel_max        =   2.5708782082069E-04
(PID.TID 0000.0001) %MON ad_dynstat_adwvel_min        =  -5.4267117439701E-04
(PID.TID 0000.0001) %MON ad_dynstat_adwvel_mean       =   2.1672688367971E-07
(PID.TID 0000.0001) %MON ad_dynstat_adwvel_sd         =   8.9151591144573E-06
(PID.TID 0000.0001) %MON ad_dynstat_adwvel_del2       =   1.0934844929720E-07
(PID.TID 0000.0001) %MON ad_dynstat_adtheta_max       =   1.1473070202404E-04
(PID.TID 0000.0001) %MON ad_dynstat_adtheta_min       =  -1.1031735490314E-04
(PID.TID 0000.0001) %MON ad_dynstat_adtheta_mean      =  -1.0104795691687E-07
(PID.TID 0000.0001) %MON ad_dynstat_adtheta_sd        =   9.9247212620733E-06
(PID.TID 0000.0001) %MON ad_dynstat_adtheta_del2      =   1.4318968694840E-07
(PID.TID 0000.0001) %MON ad_dynstat_adsalt_max        =   5.0052627648482E-04
(PID.TID 0000.0001) %MON ad_dynstat_adsalt_min        =  -5.2118681147144E-04
(PID.TID 0000.0001) %MON ad_dynstat_adsalt_mean       =   1.0666273177800E-07
(PID.TID 0000.0001) %MON ad_dynstat_adsalt_sd         =   4.5508886537716E-05
(PID.TID 0000.0001) %MON ad_dynstat_adsalt_del2       =   6.6227065285329E-07
(PID.TID 0000.0001) %MON ad_forcing_adqnet_max        =   0.0000000000000E+00
(PID.TID 0000.0001) %MON ad_forcing_adqnet_min        =   0.0000000000000E+00
(PID.TID 0000.0001) %MON ad_forcing_adqnet_mean       =   0.0000000000000E+00
(PID.TID 0000.0001) %MON ad_forcing_adqnet_sd         =   0.0000000000000E+00
(PID.TID 0000.0001) %MON ad_forcing_adqnet_del2       =   0.0000000000000E+00
(PID.TID 0000.0001) %MON ad_forcing_adempmr_max       =   3.2140480236327E-03
(PID.TID 0000.0001) %MON ad_forcing_adempmr_min       =  -2.7549636271358E-03
(PID.TID 0000.0001) %MON ad_forcing_adempmr_mean      =  -1.3157868589846E-06
(PID.TID 0000.0001) %MON ad_forcing_adempmr_sd        =   2.9347079865197E-04
(PID.TID 0000.0001) %MON ad_forcing_adempmr_del2      =   1.2792808071584E-05
(PID.TID 0000.0001) %MON ad_forcing_adfu_max          =   0.0000000000000E+00
(PID.TID 0000.0001) %MON ad_forcing_adfu_min          =   0.0000000000000E+00
(PID.TID 0000.0001) %MON ad_forcing_adfu_mean         =   0.0000000000000E+00
(PID.TID 0000.0001) %MON ad_forcing_adfu_sd           =   0.0000000000000E+00
(PID.TID 0000.0001) %MON ad_forcing_adfu_del2         =   0.0000000000000E+00
(PID.TID 0000.0001) %MON ad_forcing_adfv_max          =   0.0000000000000E+00
(PID.TID 0000.0001) %MON ad_forcing_adfv_min          =   0.0000000000000E+00
(PID.TID 0000.0001) %MON ad_forcing_adfv_mean         =   0.0000000000000E+00
(PID.TID 0000.0001) %MON ad_forcing_adfv_sd           =   0.0000000000000E+00
(PID.TID 0000.0001) %MON ad_forcing_adfv_del2         =   0.0000000000000E+00
(PID.TID 0000.0001) %MON ad_advcfl_aduvel_max         =   3.1475307859120E-04
(PID.TID 0000.0001) %MON ad_advcfl_advvel_max         =   1.6913036840914E-03
(PID.TID 0000.0001) %MON ad_advcfl_adwvel_max         =   3.9072324556585E-01
(PID.TID 0000.0001) %MON ad_advcfl_adW_hf_max         =   4.6825701838257E-01
(PID.TID 0000.0001) // =======================================================
(PID.TID 0000.0001) // End MONITOR dynamic field statistics
(PID.TID 0000.0001) // =======================================================
 cg2d: Sum(rhs),rhsMax =   3.53016227361280E-15  5.53237860414566E-09
 EXTERNAL_FIELDS_LOAD, it=         3 : Reading new data, i0,i1=   12    1 (prev=   12    0 )
 cg2d: Sum(rhs),rhsMax =  -2.93098878501041E-14  6.81726659975567E+00
 cg2d: Sum(rhs),rhsMax =   2.13162820728030E-14  6.91967777569565E+00
 cg2d: Sum(rhs),rhsMax =  -3.10862446895044E-14  6.87877910610654E+00
 cg2d: Sum(rhs),rhsMax =  -3.10862446895044E-14  6.87877910610654E+00
(PID.TID 0000.0001) // =======================================================
(PID.TID 0000.0001) // Begin MONITOR dynamic field statistics
(PID.TID 0000.0001) // =======================================================
(PID.TID 0000.0001) %MON ad_time_tsnumber             =                     6
(PID.TID 0000.0001) %MON ad_time_secondsf             =   2.5920000000000E+05
(PID.TID 0000.0001) %MON ad_dynstat_adeta_max         =   4.0116328957594E-04
(PID.TID 0000.0001) %MON ad_dynstat_adeta_min         =  -3.1178758182741E-04
(PID.TID 0000.0001) %MON ad_dynstat_adeta_mean        =   1.4447806320503E-08
(PID.TID 0000.0001) %MON ad_dynstat_adeta_sd          =   1.7135881353238E-05
(PID.TID 0000.0001) %MON ad_dynstat_adeta_del2        =   5.9950688927560E-07
(PID.TID 0000.0001) %MON ad_dynstat_aduvel_max        =   4.1945712676468E-03
(PID.TID 0000.0001) %MON ad_dynstat_aduvel_min        =  -1.5176973374340E-03
(PID.TID 0000.0001) %MON ad_dynstat_aduvel_mean       =   5.0348675519789E-06
(PID.TID 0000.0001) %MON ad_dynstat_aduvel_sd         =   1.1967259287285E-04
(PID.TID 0000.0001) %MON ad_dynstat_aduvel_del2       =   9.4679622696391E-07
(PID.TID 0000.0001) %MON ad_dynstat_advvel_max        =   2.0572239713373E-02
(PID.TID 0000.0001) %MON ad_dynstat_advvel_min        =  -1.8505307941686E-02
(PID.TID 0000.0001) %MON ad_dynstat_advvel_mean       =   1.1867383803415E-04
(PID.TID 0000.0001) %MON ad_dynstat_advvel_sd         =   1.0124490600814E-03
(PID.TID 0000.0001) %MON ad_dynstat_advvel_del2       =   1.2960547118224E-05
(PID.TID 0000.0001) %MON ad_dynstat_adwvel_max        =   2.7212450127343E-04
(PID.TID 0000.0001) %MON ad_dynstat_adwvel_min        =  -5.9075841433504E-04
(PID.TID 0000.0001) %MON ad_dynstat_adwvel_mean       =   1.9395702625596E-07
(PID.TID 0000.0001) %MON ad_dynstat_adwvel_sd         =   9.4508401072699E-06
(PID.TID 0000.0001) %MON ad_dynstat_adwvel_del2       =   1.1770719791242E-07
(PID.TID 0000.0001) %MON ad_dynstat_adtheta_max       =   2.1782252937976E-04
(PID.TID 0000.0001) %MON ad_dynstat_adtheta_min       =  -2.1408756241581E-04
(PID.TID 0000.0001) %MON ad_dynstat_adtheta_mean      =  -1.2954160814947E-07
(PID.TID 0000.0001) %MON ad_dynstat_adtheta_sd        =   1.9357524583136E-05
(PID.TID 0000.0001) %MON ad_dynstat_adtheta_del2      =   2.8041027144318E-07
(PID.TID 0000.0001) %MON ad_dynstat_adsalt_max        =   1.0032734657208E-03
(PID.TID 0000.0001) %MON ad_dynstat_adsalt_min        =  -1.0279353805569E-03
(PID.TID 0000.0001) %MON ad_dynstat_adsalt_mean       =   1.5325961196026E-07
(PID.TID 0000.0001) %MON ad_dynstat_adsalt_sd         =   8.9571274654427E-05
(PID.TID 0000.0001) %MON ad_dynstat_adsalt_del2       =   1.3041575241633E-06
(PID.TID 0000.0001) %MON ad_forcing_adqnet_max        =   0.0000000000000E+00
(PID.TID 0000.0001) %MON ad_forcing_adqnet_min        =   0.0000000000000E+00
(PID.TID 0000.0001) %MON ad_forcing_adqnet_mean       =   0.0000000000000E+00
(PID.TID 0000.0001) %MON ad_forcing_adqnet_sd         =   0.0000000000000E+00
(PID.TID 0000.0001) %MON ad_forcing_adqnet_del2       =   0.0000000000000E+00
(PID.TID 0000.0001) %MON ad_forcing_adempmr_max       =   4.1382568259427E-03
(PID.TID 0000.0001) %MON ad_forcing_adempmr_min       =  -3.3589258282911E-03
(PID.TID 0000.0001) %MON ad_forcing_adempmr_mean      =  -1.6836109726063E-06
(PID.TID 0000.0001) %MON ad_forcing_adempmr_sd        =   3.6739830118605E-04
(PID.TID 0000.0001) %MON ad_forcing_adempmr_del2      =   1.4482139601754E-05
(PID.TID 0000.0001) %MON ad_forcing_adfu_max          =   0.0000000000000E+00
(PID.TID 0000.0001) %MON ad_forcing_adfu_min          =   0.0000000000000E+00
(PID.TID 0000.0001) %MON ad_forcing_adfu_mean         =   0.0000000000000E+00
(PID.TID 0000.0001) %MON ad_forcing_adfu_sd           =   0.0000000000000E+00
(PID.TID 0000.0001) %MON ad_forcing_adfu_del2         =   0.0000000000000E+00
(PID.TID 0000.0001) %MON ad_forcing_adfv_max          =   0.0000000000000E+00
(PID.TID 0000.0001) %MON ad_forcing_adfv_min          =   0.0000000000000E+00
(PID.TID 0000.0001) %MON ad_forcing_adfv_mean         =   0.0000000000000E+00
(PID.TID 0000.0001) %MON ad_forcing_adfv_sd           =   0.0000000000000E+00
(PID.TID 0000.0001) %MON ad_forcing_adfv_del2         =   0.0000000000000E+00
(PID.TID 0000.0001) %MON ad_advcfl_aduvel_max         =   4.7050463006476E-04
(PID.TID 0000.0001) %MON ad_advcfl_advvel_max         =   1.9984281186253E-03
(PID.TID 0000.0001) %MON ad_advcfl_adwvel_max         =   4.2534605832123E-01
(PID.TID 0000.0001) %MON ad_advcfl_adW_hf_max         =   5.1014015319461E-01
(PID.TID 0000.0001) // =======================================================
(PID.TID 0000.0001) // End MONITOR dynamic field statistics
(PID.TID 0000.0001) // =======================================================
 cg2d: Sum(rhs),rhsMax =   1.53488333154428E-14  3.71467237024396E-09
 cg2d: Sum(rhs),rhsMax =   2.13162820728030E-14  6.91967777569565E+00
(PID.TID 0000.0001) // =======================================================
(PID.TID 0000.0001) // Begin MONITOR dynamic field statistics
(PID.TID 0000.0001) // =======================================================
(PID.TID 0000.0001) %MON ad_time_tsnumber             =                     5
(PID.TID 0000.0001) %MON ad_time_secondsf             =   2.1600000000000E+05
(PID.TID 0000.0001) %MON ad_dynstat_adeta_max         =   5.2761793277289E-04
(PID.TID 0000.0001) %MON ad_dynstat_adeta_min         =  -4.0935173744431E-04
(PID.TID 0000.0001) %MON ad_dynstat_adeta_mean        =   2.6660856973185E-08
(PID.TID 0000.0001) %MON ad_dynstat_adeta_sd          =   2.3704840558884E-05
(PID.TID 0000.0001) %MON ad_dynstat_adeta_del2        =   8.7407557400279E-07
(PID.TID 0000.0001) %MON ad_dynstat_aduvel_max        =   6.6066384258238E-03
(PID.TID 0000.0001) %MON ad_dynstat_aduvel_min        =  -1.8342277056890E-03
(PID.TID 0000.0001) %MON ad_dynstat_aduvel_mean       =   8.1757401649608E-06
(PID.TID 0000.0001) %MON ad_dynstat_aduvel_sd         =   1.7078021849226E-04
(PID.TID 0000.0001) %MON ad_dynstat_aduvel_del2       =   1.3328695031080E-06
(PID.TID 0000.0001) %MON ad_dynstat_advvel_max        =   2.3558234103912E-02
(PID.TID 0000.0001) %MON ad_dynstat_advvel_min        =  -2.4307012497020E-02
(PID.TID 0000.0001) %MON ad_dynstat_advvel_mean       =   1.2935786507603E-04
(PID.TID 0000.0001) %MON ad_dynstat_advvel_sd         =   1.2201326524874E-03
(PID.TID 0000.0001) %MON ad_dynstat_advvel_del2       =   1.5368950064267E-05
(PID.TID 0000.0001) %MON ad_dynstat_adwvel_max        =   2.7106583998397E-04
(PID.TID 0000.0001) %MON ad_dynstat_adwvel_min        =  -5.9852190688587E-04
(PID.TID 0000.0001) %MON ad_dynstat_adwvel_mean       =   1.7552532060965E-07
(PID.TID 0000.0001) %MON ad_dynstat_adwvel_sd         =   9.4115920384918E-06
(PID.TID 0000.0001) %MON ad_dynstat_adwvel_del2       =   1.1925850389906E-07
(PID.TID 0000.0001) %MON ad_dynstat_adtheta_max       =   3.4930337949291E-04
(PID.TID 0000.0001) %MON ad_dynstat_adtheta_min       =  -3.6188668662655E-04
(PID.TID 0000.0001) %MON ad_dynstat_adtheta_mean      =  -1.5431736520765E-07
(PID.TID 0000.0001) %MON ad_dynstat_adtheta_sd        =   3.1616517602649E-05
(PID.TID 0000.0001) %MON ad_dynstat_adtheta_del2      =   4.5597287235472E-07
(PID.TID 0000.0001) %MON ad_dynstat_adsalt_max        =   1.7532831580135E-03
(PID.TID 0000.0001) %MON ad_dynstat_adsalt_min        =  -1.6742634337117E-03
(PID.TID 0000.0001) %MON ad_dynstat_adsalt_mean       =   1.9205251997206E-07
(PID.TID 0000.0001) %MON ad_dynstat_adsalt_sd         =   1.4666959670942E-04
(PID.TID 0000.0001) %MON ad_dynstat_adsalt_del2       =   2.1194863906336E-06
(PID.TID 0000.0001) %MON ad_forcing_adqnet_max        =   0.0000000000000E+00
(PID.TID 0000.0001) %MON ad_forcing_adqnet_min        =   0.0000000000000E+00
(PID.TID 0000.0001) %MON ad_forcing_adqnet_mean       =   0.0000000000000E+00
(PID.TID 0000.0001) %MON ad_forcing_adqnet_sd         =   0.0000000000000E+00
(PID.TID 0000.0001) %MON ad_forcing_adqnet_del2       =   0.0000000000000E+00
(PID.TID 0000.0001) %MON ad_forcing_adempmr_max       =   4.7525302143764E-03
(PID.TID 0000.0001) %MON ad_forcing_adempmr_min       =  -3.6519255088677E-03
(PID.TID 0000.0001) %MON ad_forcing_adempmr_mean      =  -2.0322402665059E-06
(PID.TID 0000.0001) %MON ad_forcing_adempmr_sd        =   4.3366201690052E-04
(PID.TID 0000.0001) %MON ad_forcing_adempmr_del2      =   1.6239785873655E-05
(PID.TID 0000.0001) %MON ad_forcing_adfu_max          =   0.0000000000000E+00
(PID.TID 0000.0001) %MON ad_forcing_adfu_min          =   0.0000000000000E+00
(PID.TID 0000.0001) %MON ad_forcing_adfu_mean         =   0.0000000000000E+00
(PID.TID 0000.0001) %MON ad_forcing_adfu_sd           =   0.0000000000000E+00
(PID.TID 0000.0001) %MON ad_forcing_adfu_del2         =   0.0000000000000E+00
(PID.TID 0000.0001) %MON ad_forcing_adfv_max          =   0.0000000000000E+00
(PID.TID 0000.0001) %MON ad_forcing_adfv_min          =   0.0000000000000E+00
(PID.TID 0000.0001) %MON ad_forcing_adfv_mean         =   0.0000000000000E+00
(PID.TID 0000.0001) %MON ad_forcing_adfv_sd           =   0.0000000000000E+00
(PID.TID 0000.0001) %MON ad_forcing_adfv_del2         =   0.0000000000000E+00
(PID.TID 0000.0001) %MON ad_advcfl_aduvel_max         =   7.4106595648756E-04
(PID.TID 0000.0001) %MON ad_advcfl_advvel_max         =   2.3612313452795E-03
(PID.TID 0000.0001) %MON ad_advcfl_adwvel_max         =   4.3093577295783E-01
(PID.TID 0000.0001) %MON ad_advcfl_adW_hf_max         =   5.1723300336730E-01
(PID.TID 0000.0001) // =======================================================
(PID.TID 0000.0001) // End MONITOR dynamic field statistics
(PID.TID 0000.0001) // =======================================================
 cg2d: Sum(rhs),rhsMax =   5.85642645489770E-15  5.91068743865405E-09
 EXTERNAL_FIELDS_LOAD, it=         3 : Reading new data, i0,i1=   12    1 (prev=   12    0 )
 cg2d: Sum(rhs),rhsMax =  -2.93098878501041E-14  6.81726659975567E+00
(PID.TID 0000.0001) // =======================================================
(PID.TID 0000.0001) // Begin MONITOR dynamic field statistics
(PID.TID 0000.0001) // =======================================================
(PID.TID 0000.0001) %MON ad_time_tsnumber             =                     4
(PID.TID 0000.0001) %MON ad_time_secondsf             =   1.7280000000000E+05
(PID.TID 0000.0001) %MON ad_dynstat_adeta_max         =   6.5547533860488E-04
(PID.TID 0000.0001) %MON ad_dynstat_adeta_min         =  -5.1442887443402E-04
(PID.TID 0000.0001) %MON ad_dynstat_adeta_mean        =   4.4294807222727E-08
(PID.TID 0000.0001) %MON ad_dynstat_adeta_sd          =   3.1129332995499E-05
(PID.TID 0000.0001) %MON ad_dynstat_adeta_del2        =   1.1963291949100E-06
(PID.TID 0000.0001) %MON ad_dynstat_aduvel_max        =   8.9408280981845E-03
(PID.TID 0000.0001) %MON ad_dynstat_aduvel_min        =  -2.3614232661883E-03
(PID.TID 0000.0001) %MON ad_dynstat_aduvel_mean       =   1.2204143376947E-05
(PID.TID 0000.0001) %MON ad_dynstat_aduvel_sd         =   2.2084371130238E-04
(PID.TID 0000.0001) %MON ad_dynstat_aduvel_del2       =   1.6608291090832E-06
(PID.TID 0000.0001) %MON ad_dynstat_advvel_max        =   2.6355239936098E-02
(PID.TID 0000.0001) %MON ad_dynstat_advvel_min        =  -2.9709645678554E-02
(PID.TID 0000.0001) %MON ad_dynstat_advvel_mean       =   1.3599875316772E-04
(PID.TID 0000.0001) %MON ad_dynstat_advvel_sd         =   1.4202007800451E-03
(PID.TID 0000.0001) %MON ad_dynstat_advvel_del2       =   1.7604601816336E-05
(PID.TID 0000.0001) %MON ad_dynstat_adwvel_max        =   2.5285245036996E-04
(PID.TID 0000.0001) %MON ad_dynstat_adwvel_min        =  -5.6441027452143E-04
(PID.TID 0000.0001) %MON ad_dynstat_adwvel_mean       =   1.5931676217633E-07
(PID.TID 0000.0001) %MON ad_dynstat_adwvel_sd         =   8.7522804366816E-06
(PID.TID 0000.0001) %MON ad_dynstat_adwvel_del2       =   1.1310814574977E-07
(PID.TID 0000.0001) %MON ad_dynstat_adtheta_max       =   5.0405573035587E-04
(PID.TID 0000.0001) %MON ad_dynstat_adtheta_min       =  -5.5126384951621E-04
(PID.TID 0000.0001) %MON ad_dynstat_adtheta_mean      =  -1.7177813556419E-07
(PID.TID 0000.0001) %MON ad_dynstat_adtheta_sd        =   4.6169011777367E-05
(PID.TID 0000.0001) %MON ad_dynstat_adtheta_del2      =   6.6049420055647E-07
(PID.TID 0000.0001) %MON ad_dynstat_adsalt_max        =   2.6891794537831E-03
(PID.TID 0000.0001) %MON ad_dynstat_adsalt_min        =  -2.4411771841203E-03
(PID.TID 0000.0001) %MON ad_dynstat_adsalt_mean       =   2.1500152244274E-07
(PID.TID 0000.0001) %MON ad_dynstat_adsalt_sd         =   2.1434713186374E-04
(PID.TID 0000.0001) %MON ad_dynstat_adsalt_del2       =   3.0670763341150E-06
(PID.TID 0000.0001) %MON ad_forcing_adqnet_max        =   0.0000000000000E+00
(PID.TID 0000.0001) %MON ad_forcing_adqnet_min        =   0.0000000000000E+00
(PID.TID 0000.0001) %MON ad_forcing_adqnet_mean       =   0.0000000000000E+00
(PID.TID 0000.0001) %MON ad_forcing_adqnet_sd         =   0.0000000000000E+00
(PID.TID 0000.0001) %MON ad_forcing_adqnet_del2       =   0.0000000000000E+00
(PID.TID 0000.0001) %MON ad_forcing_adempmr_max       =   5.1783439523667E-03
(PID.TID 0000.0001) %MON ad_forcing_adempmr_min       =  -3.9314948413785E-03
(PID.TID 0000.0001) %MON ad_forcing_adempmr_mean      =  -2.2808755205515E-06
(PID.TID 0000.0001) %MON ad_forcing_adempmr_sd        =   5.0636368753208E-04
(PID.TID 0000.0001) %MON ad_forcing_adempmr_del2      =   1.9405161672549E-05
(PID.TID 0000.0001) %MON ad_forcing_adfu_max          =   0.0000000000000E+00
(PID.TID 0000.0001) %MON ad_forcing_adfu_min          =   0.0000000000000E+00
(PID.TID 0000.0001) %MON ad_forcing_adfu_mean         =   0.0000000000000E+00
(PID.TID 0000.0001) %MON ad_forcing_adfu_sd           =   0.0000000000000E+00
(PID.TID 0000.0001) %MON ad_forcing_adfu_del2         =   0.0000000000000E+00
(PID.TID 0000.0001) %MON ad_forcing_adfv_max          =   0.0000000000000E+00
(PID.TID 0000.0001) %MON ad_forcing_adfv_min          =   0.0000000000000E+00
(PID.TID 0000.0001) %MON ad_forcing_adfv_mean         =   0.0000000000000E+00
(PID.TID 0000.0001) %MON ad_forcing_adfv_sd           =   0.0000000000000E+00
(PID.TID 0000.0001) %MON ad_forcing_adfv_del2         =   0.0000000000000E+00
(PID.TID 0000.0001) %MON ad_advcfl_aduvel_max         =   1.0028917732918E-03
(PID.TID 0000.0001) %MON ad_advcfl_advvel_max         =   2.8860538349562E-03
(PID.TID 0000.0001) %MON ad_advcfl_adwvel_max         =   4.0637539765543E-01
(PID.TID 0000.0001) %MON ad_advcfl_adW_hf_max         =   4.8799307540536E-01
(PID.TID 0000.0001) // =======================================================
(PID.TID 0000.0001) // End MONITOR dynamic field statistics
(PID.TID 0000.0001) // =======================================================
 cg2d: Sum(rhs),rhsMax =   8.32667268468867E-16  7.28684962858521E-09
 EXTERNAL_FIELDS_LOAD, it=         0 : Reading new data, i0,i1=   12    1 (prev=   12    0 )
(PID.TID 0000.0001) SOLVE_FOR_PRESSURE: putPmEinXvector =    F
 cg2d: Sum(rhs),rhsMax =   1.15463194561016E-14  2.53674886388737E+00
 cg2d: Sum(rhs),rhsMax =  -4.44089209850063E-15  4.94121768585574E+00
 cg2d: Sum(rhs),rhsMax =   4.66293670342566E-15  6.30228849480757E+00
 cg2d: Sum(rhs),rhsMax =   4.66293670342566E-15  6.30228849480757E+00
(PID.TID 0000.0001) // =======================================================
(PID.TID 0000.0001) // Begin MONITOR dynamic field statistics
(PID.TID 0000.0001) // =======================================================
(PID.TID 0000.0001) %MON ad_time_tsnumber             =                     3
(PID.TID 0000.0001) %MON ad_time_secondsf             =   1.2960000000000E+05
(PID.TID 0000.0001) %MON ad_dynstat_adeta_max         =   7.8394326249993E-04
(PID.TID 0000.0001) %MON ad_dynstat_adeta_min         =  -6.2961344034210E-04
(PID.TID 0000.0001) %MON ad_dynstat_adeta_mean        =   6.8137257203871E-08
(PID.TID 0000.0001) %MON ad_dynstat_adeta_sd          =   3.9365434322476E-05
(PID.TID 0000.0001) %MON ad_dynstat_adeta_del2        =   1.5628015319428E-06
(PID.TID 0000.0001) %MON ad_dynstat_aduvel_max        =   1.0935912731698E-02
(PID.TID 0000.0001) %MON ad_dynstat_aduvel_min        =  -2.7760410916855E-03
(PID.TID 0000.0001) %MON ad_dynstat_aduvel_mean       =   1.7038621543817E-05
(PID.TID 0000.0001) %MON ad_dynstat_aduvel_sd         =   2.6522776755587E-04
(PID.TID 0000.0001) %MON ad_dynstat_aduvel_del2       =   1.9082393976621E-06
(PID.TID 0000.0001) %MON ad_dynstat_advvel_max        =   2.8923559211290E-02
(PID.TID 0000.0001) %MON ad_dynstat_advvel_min        =  -3.4735120235821E-02
(PID.TID 0000.0001) %MON ad_dynstat_advvel_mean       =   1.3919078938391E-04
(PID.TID 0000.0001) %MON ad_dynstat_advvel_sd         =   1.6063845111606E-03
(PID.TID 0000.0001) %MON ad_dynstat_advvel_del2       =   1.9608665158946E-05
(PID.TID 0000.0001) %MON ad_dynstat_adwvel_max        =   2.1550125779782E-04
(PID.TID 0000.0001) %MON ad_dynstat_adwvel_min        =  -4.8697177314471E-04
(PID.TID 0000.0001) %MON ad_dynstat_adwvel_mean       =   1.3762003518739E-07
(PID.TID 0000.0001) %MON ad_dynstat_adwvel_sd         =   7.4524445299136E-06
(PID.TID 0000.0001) %MON ad_dynstat_adwvel_del2       =   9.8494533953130E-08
(PID.TID 0000.0001) %MON ad_dynstat_adtheta_max       =   6.8992844120017E-04
(PID.TID 0000.0001) %MON ad_dynstat_adtheta_min       =  -7.7414396226679E-04
(PID.TID 0000.0001) %MON ad_dynstat_adtheta_mean      =  -1.7902889663721E-07
(PID.TID 0000.0001) %MON ad_dynstat_adtheta_sd        =   6.2659234407725E-05
(PID.TID 0000.0001) %MON ad_dynstat_adtheta_del2      =   8.8873265828664E-07
(PID.TID 0000.0001) %MON ad_dynstat_adsalt_max        =   3.7901946006416E-03
(PID.TID 0000.0001) %MON ad_dynstat_adsalt_min        =  -3.3496765148604E-03
(PID.TID 0000.0001) %MON ad_dynstat_adsalt_mean       =   2.1443842551823E-07
(PID.TID 0000.0001) %MON ad_dynstat_adsalt_sd         =   2.9096079721682E-04
(PID.TID 0000.0001) %MON ad_dynstat_adsalt_del2       =   4.1238698037793E-06
(PID.TID 0000.0001) %MON ad_forcing_adqnet_max        =   0.0000000000000E+00
(PID.TID 0000.0001) %MON ad_forcing_adqnet_min        =   0.0000000000000E+00
(PID.TID 0000.0001) %MON ad_forcing_adqnet_mean       =   0.0000000000000E+00
(PID.TID 0000.0001) %MON ad_forcing_adqnet_sd         =   0.0000000000000E+00
(PID.TID 0000.0001) %MON ad_forcing_adqnet_del2       =   0.0000000000000E+00
(PID.TID 0000.0001) %MON ad_forcing_adempmr_max       =   5.6054565743736E-03
(PID.TID 0000.0001) %MON ad_forcing_adempmr_min       =  -4.8462882161549E-03
(PID.TID 0000.0001) %MON ad_forcing_adempmr_mean      =  -2.0985421407843E-06
(PID.TID 0000.0001) %MON ad_forcing_adempmr_sd        =   5.9965950170714E-04
(PID.TID 0000.0001) %MON ad_forcing_adempmr_del2      =   2.4873664978364E-05
(PID.TID 0000.0001) %MON ad_forcing_adfu_max          =   0.0000000000000E+00
(PID.TID 0000.0001) %MON ad_forcing_adfu_min          =   0.0000000000000E+00
(PID.TID 0000.0001) %MON ad_forcing_adfu_mean         =   0.0000000000000E+00
(PID.TID 0000.0001) %MON ad_forcing_adfu_sd           =   0.0000000000000E+00
(PID.TID 0000.0001) %MON ad_forcing_adfu_del2         =   0.0000000000000E+00
(PID.TID 0000.0001) %MON ad_forcing_adfv_max          =   0.0000000000000E+00
(PID.TID 0000.0001) %MON ad_forcing_adfv_min          =   0.0000000000000E+00
(PID.TID 0000.0001) %MON ad_forcing_adfv_mean         =   0.0000000000000E+00
(PID.TID 0000.0001) %MON ad_forcing_adfv_sd           =   0.0000000000000E+00
(PID.TID 0000.0001) %MON ad_forcing_adfv_del2         =   0.0000000000000E+00
(PID.TID 0000.0001) %MON ad_advcfl_aduvel_max         =   1.2266802125726E-03
(PID.TID 0000.0001) %MON ad_advcfl_advvel_max         =   3.3742383887337E-03
(PID.TID 0000.0001) %MON ad_advcfl_adwvel_max         =   3.5061967666419E-01
(PID.TID 0000.0001) %MON ad_advcfl_adW_hf_max         =   4.2105848435880E-01
(PID.TID 0000.0001) // =======================================================
(PID.TID 0000.0001) // End MONITOR dynamic field statistics
(PID.TID 0000.0001) // =======================================================
 cg2d: Sum(rhs),rhsMax =  -1.03805852802452E-14  8.27066071797116E-09
 cg2d: Sum(rhs),rhsMax =  -4.44089209850063E-15  4.94121768585574E+00
(PID.TID 0000.0001) // =======================================================
(PID.TID 0000.0001) // Begin MONITOR dynamic field statistics
(PID.TID 0000.0001) // =======================================================
(PID.TID 0000.0001) %MON ad_time_tsnumber             =                     2
(PID.TID 0000.0001) %MON ad_time_secondsf             =   8.6400000000000E+04
(PID.TID 0000.0001) %MON ad_dynstat_adeta_max         =   9.1306139104694E-04
(PID.TID 0000.0001) %MON ad_dynstat_adeta_min         =  -7.5660015149313E-04
(PID.TID 0000.0001) %MON ad_dynstat_adeta_mean        =   9.8847203893541E-08
(PID.TID 0000.0001) %MON ad_dynstat_adeta_sd          =   4.8334083741485E-05
(PID.TID 0000.0001) %MON ad_dynstat_adeta_del2        =   1.9698381387045E-06
(PID.TID 0000.0001) %MON ad_dynstat_aduvel_max        =   1.2533601022650E-02
(PID.TID 0000.0001) %MON ad_dynstat_aduvel_min        =  -3.0893751509235E-03
(PID.TID 0000.0001) %MON ad_dynstat_aduvel_mean       =   2.2480385436130E-05
(PID.TID 0000.0001) %MON ad_dynstat_aduvel_sd         =   3.0217524034155E-04
(PID.TID 0000.0001) %MON ad_dynstat_aduvel_del2       =   2.0902644926921E-06
(PID.TID 0000.0001) %MON ad_dynstat_advvel_max        =   3.1225132598268E-02
(PID.TID 0000.0001) %MON ad_dynstat_advvel_min        =  -3.9399086831040E-02
(PID.TID 0000.0001) %MON ad_dynstat_advvel_mean       =   1.3941476324801E-04
(PID.TID 0000.0001) %MON ad_dynstat_advvel_sd         =   1.7769062502143E-03
(PID.TID 0000.0001) %MON ad_dynstat_advvel_del2       =   2.1368622601126E-05
(PID.TID 0000.0001) %MON ad_dynstat_adwvel_max        =   1.5962026319307E-04
(PID.TID 0000.0001) %MON ad_dynstat_adwvel_min        =  -3.6614939349428E-04
(PID.TID 0000.0001) %MON ad_dynstat_adwvel_mean       =   1.0409201470415E-07
(PID.TID 0000.0001) %MON ad_dynstat_adwvel_sd         =   5.5313641201442E-06
(PID.TID 0000.0001) %MON ad_dynstat_adwvel_del2       =   7.4970319037591E-08
(PID.TID 0000.0001) %MON ad_dynstat_adtheta_max       =   9.0190042693483E-04
(PID.TID 0000.0001) %MON ad_dynstat_adtheta_min       =  -1.0266084413957E-03
(PID.TID 0000.0001) %MON ad_dynstat_adtheta_mean      =  -1.7525771407321E-07
(PID.TID 0000.0001) %MON ad_dynstat_adtheta_sd        =   8.0858851023844E-05
(PID.TID 0000.0001) %MON ad_dynstat_adtheta_del2      =   1.1381195133615E-06
(PID.TID 0000.0001) %MON ad_dynstat_adsalt_max        =   5.0366257891535E-03
(PID.TID 0000.0001) %MON ad_dynstat_adsalt_min        =  -4.3613066756153E-03
(PID.TID 0000.0001) %MON ad_dynstat_adsalt_mean       =   1.8326721217044E-07
(PID.TID 0000.0001) %MON ad_dynstat_adsalt_sd         =   3.7545469242933E-04
(PID.TID 0000.0001) %MON ad_dynstat_adsalt_del2       =   5.2783791117038E-06
(PID.TID 0000.0001) %MON ad_forcing_adqnet_max        =   0.0000000000000E+00
(PID.TID 0000.0001) %MON ad_forcing_adqnet_min        =   0.0000000000000E+00
(PID.TID 0000.0001) %MON ad_forcing_adqnet_mean       =   0.0000000000000E+00
(PID.TID 0000.0001) %MON ad_forcing_adqnet_sd         =   0.0000000000000E+00
(PID.TID 0000.0001) %MON ad_forcing_adqnet_del2       =   0.0000000000000E+00
(PID.TID 0000.0001) %MON ad_forcing_adempmr_max       =   6.8998210853416E-03
(PID.TID 0000.0001) %MON ad_forcing_adempmr_min       =  -6.1349104851443E-03
(PID.TID 0000.0001) %MON ad_forcing_adempmr_mean      =  -1.5245450342471E-06
(PID.TID 0000.0001) %MON ad_forcing_adempmr_sd        =   7.2203361428378E-04
(PID.TID 0000.0001) %MON ad_forcing_adempmr_del2      =   3.2723595357657E-05
(PID.TID 0000.0001) %MON ad_forcing_adfu_max          =   0.0000000000000E+00
(PID.TID 0000.0001) %MON ad_forcing_adfu_min          =   0.0000000000000E+00
(PID.TID 0000.0001) %MON ad_forcing_adfu_mean         =   0.0000000000000E+00
(PID.TID 0000.0001) %MON ad_forcing_adfu_sd           =   0.0000000000000E+00
(PID.TID 0000.0001) %MON ad_forcing_adfu_del2         =   0.0000000000000E+00
(PID.TID 0000.0001) %MON ad_forcing_adfv_max          =   0.0000000000000E+00
(PID.TID 0000.0001) %MON ad_forcing_adfv_min          =   0.0000000000000E+00
(PID.TID 0000.0001) %MON ad_forcing_adfv_mean         =   0.0000000000000E+00
(PID.TID 0000.0001) %MON ad_forcing_adfv_sd           =   0.0000000000000E+00
(PID.TID 0000.0001) %MON ad_forcing_adfv_del2         =   0.0000000000000E+00
(PID.TID 0000.0001) %MON ad_advcfl_aduvel_max         =   1.4058927447548E-03
(PID.TID 0000.0001) %MON ad_advcfl_advvel_max         =   3.8273053429436E-03
(PID.TID 0000.0001) %MON ad_advcfl_adwvel_max         =   2.6362756331588E-01
(PID.TID 0000.0001) %MON ad_advcfl_adW_hf_max         =   3.1647994442488E-01
(PID.TID 0000.0001) // =======================================================
(PID.TID 0000.0001) // End MONITOR dynamic field statistics
(PID.TID 0000.0001) // =======================================================
 cg2d: Sum(rhs),rhsMax =  -2.10942374678780E-15  9.28285945086164E-09
 EXTERNAL_FIELDS_LOAD, it=         0 : Reading new data, i0,i1=   12    1 (prev=   12    0 )
(PID.TID 0000.0001) SOLVE_FOR_PRESSURE: putPmEinXvector =    F
 cg2d: Sum(rhs),rhsMax =   1.15463194561016E-14  2.53674886388737E+00
(PID.TID 0000.0001) // =======================================================
(PID.TID 0000.0001) // Begin MONITOR dynamic field statistics
(PID.TID 0000.0001) // =======================================================
(PID.TID 0000.0001) %MON ad_time_tsnumber             =                     1
(PID.TID 0000.0001) %MON ad_time_secondsf             =   4.3200000000000E+04
(PID.TID 0000.0001) %MON ad_dynstat_adeta_max         =   1.0429426868915E-03
(PID.TID 0000.0001) %MON ad_dynstat_adeta_min         =  -8.9550995118822E-04
(PID.TID 0000.0001) %MON ad_dynstat_adeta_mean        =   1.3698860436672E-07
(PID.TID 0000.0001) %MON ad_dynstat_adeta_sd          =   5.7935458892768E-05
(PID.TID 0000.0001) %MON ad_dynstat_adeta_del2        =   2.4136361770184E-06
(PID.TID 0000.0001) %MON ad_dynstat_aduvel_max        =   1.3823987687034E-02
(PID.TID 0000.0001) %MON ad_dynstat_aduvel_min        =  -3.3067258468892E-03
(PID.TID 0000.0001) %MON ad_dynstat_aduvel_mean       =   2.8241350240010E-05
(PID.TID 0000.0001) %MON ad_dynstat_aduvel_sd         =   3.3274251339510E-04
(PID.TID 0000.0001) %MON ad_dynstat_aduvel_del2       =   2.2399540233648E-06
(PID.TID 0000.0001) %MON ad_dynstat_advvel_max        =   3.3234239300422E-02
(PID.TID 0000.0001) %MON ad_dynstat_advvel_min        =  -4.3669469765018E-02
(PID.TID 0000.0001) %MON ad_dynstat_advvel_mean       =   1.3705357223539E-04
(PID.TID 0000.0001) %MON ad_dynstat_advvel_sd         =   1.9308331978116E-03
(PID.TID 0000.0001) %MON ad_dynstat_advvel_del2       =   2.2872446523158E-05
(PID.TID 0000.0001) %MON ad_dynstat_adwvel_max        =   8.6870137518349E-05
(PID.TID 0000.0001) %MON ad_dynstat_adwvel_min        =  -2.0297877273648E-04
(PID.TID 0000.0001) %MON ad_dynstat_adwvel_mean       =   5.7211146242695E-08
(PID.TID 0000.0001) %MON ad_dynstat_adwvel_sd         =   3.0317608194487E-06
(PID.TID 0000.0001) %MON ad_dynstat_adwvel_del2       =   4.2252591139116E-08
(PID.TID 0000.0001) %MON ad_dynstat_adtheta_max       =   1.1352287624425E-03
(PID.TID 0000.0001) %MON ad_dynstat_adtheta_min       =  -1.3048829539403E-03
(PID.TID 0000.0001) %MON ad_dynstat_adtheta_mean      =  -1.6256166522807E-07
(PID.TID 0000.0001) %MON ad_dynstat_adtheta_sd        =   1.0057724698218E-04
(PID.TID 0000.0001) %MON ad_dynstat_adtheta_del2      =   1.4066899796763E-06
(PID.TID 0000.0001) %MON ad_dynstat_adsalt_max        =   6.4090855725675E-03
(PID.TID 0000.0001) %MON ad_dynstat_adsalt_min        =  -5.4690474123887E-03
(PID.TID 0000.0001) %MON ad_dynstat_adsalt_mean       =   1.1516715940623E-07
(PID.TID 0000.0001) %MON ad_dynstat_adsalt_sd         =   4.6694946822642E-04
(PID.TID 0000.0001) %MON ad_dynstat_adsalt_del2       =   6.5215420767149E-06
(PID.TID 0000.0001) %MON ad_forcing_adqnet_max        =   0.0000000000000E+00
(PID.TID 0000.0001) %MON ad_forcing_adqnet_min        =   0.0000000000000E+00
(PID.TID 0000.0001) %MON ad_forcing_adqnet_mean       =   0.0000000000000E+00
(PID.TID 0000.0001) %MON ad_forcing_adqnet_sd         =   0.0000000000000E+00
(PID.TID 0000.0001) %MON ad_forcing_adqnet_del2       =   0.0000000000000E+00
(PID.TID 0000.0001) %MON ad_forcing_adempmr_max       =   8.7278653012096E-03
(PID.TID 0000.0001) %MON ad_forcing_adempmr_min       =  -7.8182040910689E-03
(PID.TID 0000.0001) %MON ad_forcing_adempmr_mean      =  -2.9208473579550E-07
(PID.TID 0000.0001) %MON ad_forcing_adempmr_sd        =   8.7659584774157E-04
(PID.TID 0000.0001) %MON ad_forcing_adempmr_del2      =   4.2613404820041E-05
(PID.TID 0000.0001) %MON ad_forcing_adfu_max          =   0.0000000000000E+00
(PID.TID 0000.0001) %MON ad_forcing_adfu_min          =   0.0000000000000E+00
(PID.TID 0000.0001) %MON ad_forcing_adfu_mean         =   0.0000000000000E+00
(PID.TID 0000.0001) %MON ad_forcing_adfu_sd           =   0.0000000000000E+00
(PID.TID 0000.0001) %MON ad_forcing_adfu_del2         =   0.0000000000000E+00
(PID.TID 0000.0001) %MON ad_forcing_adfv_max          =   0.0000000000000E+00
(PID.TID 0000.0001) %MON ad_forcing_adfv_min          =   0.0000000000000E+00
(PID.TID 0000.0001) %MON ad_forcing_adfv_mean         =   0.0000000000000E+00
(PID.TID 0000.0001) %MON ad_forcing_adfv_sd           =   0.0000000000000E+00
(PID.TID 0000.0001) %MON ad_forcing_adfv_del2         =   0.0000000000000E+00
(PID.TID 0000.0001) %MON ad_advcfl_aduvel_max         =   1.5506352849160E-03
(PID.TID 0000.0001) %MON ad_advcfl_advvel_max         =   4.2421388006256E-03
(PID.TID 0000.0001) %MON ad_advcfl_adwvel_max         =   1.4614471637027E-01
(PID.TID 0000.0001) %MON ad_advcfl_adW_hf_max         =   1.7537365964432E-01
(PID.TID 0000.0001) // =======================================================
(PID.TID 0000.0001) // End MONITOR dynamic field statistics
(PID.TID 0000.0001) // =======================================================
 cg2d: Sum(rhs),rhsMax =  -5.55111512312578E-16  1.12114876952111E-08
(PID.TID 0000.0001) Start initial hydrostatic pressure computation
(PID.TID 0000.0001) Pressure is predetermined for buoyancyRelation OCEANIC
(PID.TID 0000.0001) 
(PID.TID 0000.0001) // =======================================================
(PID.TID 0000.0001) // Begin MONITOR dynamic field statistics
(PID.TID 0000.0001) // =======================================================
(PID.TID 0000.0001) %MON ad_time_tsnumber             =                     0
(PID.TID 0000.0001) %MON ad_time_secondsf             =   0.0000000000000E+00
(PID.TID 0000.0001) %MON ad_dynstat_adeta_max         =   1.1733442737219E-03
(PID.TID 0000.0001) %MON ad_dynstat_adeta_min         =  -1.0449521464531E-03
(PID.TID 0000.0001) %MON ad_dynstat_adeta_mean        =   1.7928042874038E-07
(PID.TID 0000.0001) %MON ad_dynstat_adeta_sd          =   6.8063974464659E-05
(PID.TID 0000.0001) %MON ad_dynstat_adeta_del2        =   2.8900501273248E-06
(PID.TID 0000.0001) %MON ad_dynstat_aduvel_max        =   1.4953775554233E-02
(PID.TID 0000.0001) %MON ad_dynstat_aduvel_min        =  -3.4188682562131E-03
(PID.TID 0000.0001) %MON ad_dynstat_aduvel_mean       =   3.3975054110947E-05
(PID.TID 0000.0001) %MON ad_dynstat_aduvel_sd         =   3.5989693519303E-04
(PID.TID 0000.0001) %MON ad_dynstat_aduvel_del2       =   2.3870207548159E-06
(PID.TID 0000.0001) %MON ad_dynstat_advvel_max        =   2.9578000330177E-02
(PID.TID 0000.0001) %MON ad_dynstat_advvel_min        =  -4.7472339743414E-02
(PID.TID 0000.0001) %MON ad_dynstat_advvel_mean       =   1.0095020079793E-04
(PID.TID 0000.0001) %MON ad_dynstat_advvel_sd         =   2.0729445340053E-03
(PID.TID 0000.0001) %MON ad_dynstat_advvel_del2       =   2.2466633726591E-05
(PID.TID 0000.0001) %MON ad_dynstat_adwvel_max        =   0.0000000000000E+00
(PID.TID 0000.0001) %MON ad_dynstat_adwvel_min        =   0.0000000000000E+00
(PID.TID 0000.0001) %MON ad_dynstat_adwvel_mean       =   0.0000000000000E+00
(PID.TID 0000.0001) %MON ad_dynstat_adwvel_sd         =   0.0000000000000E+00
(PID.TID 0000.0001) %MON ad_dynstat_adwvel_del2       =   0.0000000000000E+00
(PID.TID 0000.0001) %MON ad_dynstat_adtheta_max       =   1.3887456385351E-03
(PID.TID 0000.0001) %MON ad_dynstat_adtheta_min       =  -1.6053365142207E-03
(PID.TID 0000.0001) %MON ad_dynstat_adtheta_mean      =  -1.7844466613142E-07
(PID.TID 0000.0001) %MON ad_dynstat_adtheta_sd        =   1.2160219426052E-04
(PID.TID 0000.0001) %MON ad_dynstat_adtheta_del2      =   1.6917572845462E-06
(PID.TID 0000.0001) %MON ad_dynstat_adsalt_max        =   7.8885193902242E-03
(PID.TID 0000.0001) %MON ad_dynstat_adsalt_min        =  -6.6677540536932E-03
(PID.TID 0000.0001) %MON ad_dynstat_adsalt_mean       =   1.7329370431390E-07
(PID.TID 0000.0001) %MON ad_dynstat_adsalt_sd         =   5.6446713745221E-04
(PID.TID 0000.0001) %MON ad_dynstat_adsalt_del2       =   7.8408211993339E-06
(PID.TID 0000.0001) %MON ad_forcing_adqnet_max        =   0.0000000000000E+00
(PID.TID 0000.0001) %MON ad_forcing_adqnet_min        =   0.0000000000000E+00
(PID.TID 0000.0001) %MON ad_forcing_adqnet_mean       =   0.0000000000000E+00
(PID.TID 0000.0001) %MON ad_forcing_adqnet_sd         =   0.0000000000000E+00
(PID.TID 0000.0001) %MON ad_forcing_adqnet_del2       =   0.0000000000000E+00
(PID.TID 0000.0001) %MON ad_forcing_adempmr_max       =   1.0955350612353E-02
(PID.TID 0000.0001) %MON ad_forcing_adempmr_min       =  -9.8979911930004E-03
(PID.TID 0000.0001) %MON ad_forcing_adempmr_mean      =   1.5645039710323E-06
(PID.TID 0000.0001) %MON ad_forcing_adempmr_sd        =   1.0669019333462E-03
(PID.TID 0000.0001) %MON ad_forcing_adempmr_del2      =   5.4469224534989E-05
(PID.TID 0000.0001) %MON ad_forcing_adfu_max          =   0.0000000000000E+00
(PID.TID 0000.0001) %MON ad_forcing_adfu_min          =   0.0000000000000E+00
(PID.TID 0000.0001) %MON ad_forcing_adfu_mean         =   0.0000000000000E+00
(PID.TID 0000.0001) %MON ad_forcing_adfu_sd           =   0.0000000000000E+00
(PID.TID 0000.0001) %MON ad_forcing_adfu_del2         =   0.0000000000000E+00
(PID.TID 0000.0001) %MON ad_forcing_adfv_max          =   0.0000000000000E+00
(PID.TID 0000.0001) %MON ad_forcing_adfv_min          =   0.0000000000000E+00
(PID.TID 0000.0001) %MON ad_forcing_adfv_mean         =   0.0000000000000E+00
(PID.TID 0000.0001) %MON ad_forcing_adfv_sd           =   0.0000000000000E+00
(PID.TID 0000.0001) %MON ad_forcing_adfv_del2         =   0.0000000000000E+00
(PID.TID 0000.0001) %MON ad_advcfl_aduvel_max         =   1.6773634744232E-03
(PID.TID 0000.0001) %MON ad_advcfl_advvel_max         =   4.6115571236758E-03
(PID.TID 0000.0001) %MON ad_advcfl_adwvel_max         =   0.0000000000000E+00
(PID.TID 0000.0001) %MON ad_advcfl_adW_hf_max         =   0.0000000000000E+00
(PID.TID 0000.0001) // =======================================================
(PID.TID 0000.0001) // End MONITOR dynamic field statistics
(PID.TID 0000.0001) // =======================================================
 ph-pack: packing ecco_cost
 ph-pack: packing ecco_ctrl
 ph-check entering grdchk_main 
 ph-check fcref =  -4.56780848880510987E-002
grad-res -------------------------------
 grad-res  proc    #    i    j    k   bi   bj iobc               fc ref           fc + eps           fc - eps
 grad-res  proc    #    i    j    k   bi   bj iobc             adj grad            fd grad         1 - fd/adj
 grad-res exact position met: 
 grad-res     0  258   31    7    1    2    2
 ph-test icomp, ncvarcomp, ichknum          258       29309           1
 ph-grd _loc: bi, bj, icomptest, ichknum            2           2           0           1
 ph-grd -->hit<--           31           7           1           1
(PID.TID 0000.0001) INI_CG2D: CG2D normalisation factor =  6.5682677425711703E-05
(PID.TID 0000.0001) 
(PID.TID 0000.0001) Start initial hydrostatic pressure computation
(PID.TID 0000.0001) Pressure is predetermined for buoyancyRelation OCEANIC
(PID.TID 0000.0001) 
(PID.TID 0000.0001) // =======================================================
(PID.TID 0000.0001) // Model current state
(PID.TID 0000.0001) // =======================================================
(PID.TID 0000.0001) 
 EXTERNAL_FIELDS_LOAD, it=         0 : Reading new data, i0,i1=   12    1 (prev=   12    0 )
(PID.TID 0000.0001) SOLVE_FOR_PRESSURE: putPmEinXvector =    F
 cg2d: Sum(rhs),rhsMax =   1.15463194561016E-14  2.53674886388737E+00
 cg2d: Sum(rhs),rhsMax =  -1.02140518265514E-14  4.94121768585574E+00
 cg2d: Sum(rhs),rhsMax =   5.99520433297585E-15  6.30228849480757E+00
 EXTERNAL_FIELDS_LOAD, it=         3 : Reading new data, i0,i1=   12    1 (prev=   12    0 )
 cg2d: Sum(rhs),rhsMax =  -1.82076576038526E-14  6.81726659975567E+00
 cg2d: Sum(rhs),rhsMax =   2.13162820728030E-14  6.91967777569565E+00
 cg2d: Sum(rhs),rhsMax =  -2.66453525910038E-14  6.87877910610654E+00
 EXTERNAL_FIELDS_LOAD, it=         6 : Reading new data, i0,i1=   12    1 (prev=   12    0 )
 cg2d: Sum(rhs),rhsMax =   5.32907051820075E-15  7.25010384079271E+00
 cg2d: Sum(rhs),rhsMax =  -2.13162820728030E-14  7.86920876352690E+00
 cg2d: Sum(rhs),rhsMax =   4.26325641456060E-14  8.21195865179568E+00
 EXTERNAL_FIELDS_LOAD, it=         9 : Reading new data, i0,i1=   12    1 (prev=   12    0 )
 cg2d: Sum(rhs),rhsMax =   6.39488462184090E-14  8.30815242442404E+00
(PID.TID 0000.0001) Did not write pickup because writePickupAtEnd = FALSE
 --> objf_test(bi,bj)   =  0.000000000000000D+00
 --> objf_tracer(bi,bj) =  0.000000000000000D+00
 --> objf_atl(bi,bj)    =  0.000000000000000D+00
 --> objf_test(bi,bj)   =  0.000000000000000D+00
 --> objf_tracer(bi,bj) =  0.000000000000000D+00
 --> objf_atl(bi,bj)    =  0.000000000000000D+00
 --> objf_test(bi,bj)   =  0.000000000000000D+00
 --> objf_tracer(bi,bj) =  0.000000000000000D+00
 --> objf_atl(bi,bj)    =  0.000000000000000D+00
 --> objf_test(bi,bj)   =  0.000000000000000D+00
 --> objf_tracer(bi,bj) =  0.000000000000000D+00
 --> objf_atl(bi,bj)    = -0.456782300305082D-01
  local fc = -0.456782300305082D-01
 global fc = -0.456782300305082D-01
 ph-check fcpertplus =  -4.56782300305081795E-002
 ph-check fcpertminus =  -4.56780848880510987E-002
(PID.TID 0000.0001) INI_CG2D: CG2D normalisation factor =  6.5682677425711703E-05
(PID.TID 0000.0001) 
(PID.TID 0000.0001) Start initial hydrostatic pressure computation
(PID.TID 0000.0001) Pressure is predetermined for buoyancyRelation OCEANIC
(PID.TID 0000.0001) 
(PID.TID 0000.0001) // =======================================================
(PID.TID 0000.0001) // Model current state
(PID.TID 0000.0001) // =======================================================
(PID.TID 0000.0001) 
 EXTERNAL_FIELDS_LOAD, it=         0 : Reading new data, i0,i1=   12    1 (prev=   12    0 )
(PID.TID 0000.0001) SOLVE_FOR_PRESSURE: putPmEinXvector =    F
 cg2d: Sum(rhs),rhsMax =   1.15463194561016E-14  2.53674886388737E+00
 cg2d: Sum(rhs),rhsMax =  -1.49880108324396E-14  4.94121768585574E+00
 cg2d: Sum(rhs),rhsMax =   7.77156117237610E-15  6.30228849480756E+00
 EXTERNAL_FIELDS_LOAD, it=         3 : Reading new data, i0,i1=   12    1 (prev=   12    0 )
 cg2d: Sum(rhs),rhsMax =  -3.46389583683049E-14  6.81726659975567E+00
 cg2d: Sum(rhs),rhsMax =   1.15463194561016E-14  6.91967777569564E+00
 cg2d: Sum(rhs),rhsMax =  -3.37507799486048E-14  6.87877910610654E+00
 EXTERNAL_FIELDS_LOAD, it=         6 : Reading new data, i0,i1=   12    1 (prev=   12    0 )
 cg2d: Sum(rhs),rhsMax =  -3.19744231092045E-14  7.25010384079271E+00
 cg2d: Sum(rhs),rhsMax =  -8.88178419700125E-15  7.86920876352690E+00
 cg2d: Sum(rhs),rhsMax =   5.32907051820075E-15  8.21195865179568E+00
 EXTERNAL_FIELDS_LOAD, it=         9 : Reading new data, i0,i1=   12    1 (prev=   12    0 )
 cg2d: Sum(rhs),rhsMax =   1.59872115546023E-14  8.30815242442405E+00
(PID.TID 0000.0001) Did not write pickup because writePickupAtEnd = FALSE
 --> objf_test(bi,bj)   =  0.000000000000000D+00
 --> objf_tracer(bi,bj) =  0.000000000000000D+00
 --> objf_atl(bi,bj)    =  0.000000000000000D+00
 --> objf_test(bi,bj)   =  0.000000000000000D+00
 --> objf_tracer(bi,bj) =  0.000000000000000D+00
 --> objf_atl(bi,bj)    =  0.000000000000000D+00
 --> objf_test(bi,bj)   =  0.000000000000000D+00
 --> objf_tracer(bi,bj) =  0.000000000000000D+00
 --> objf_atl(bi,bj)    =  0.000000000000000D+00
 --> objf_test(bi,bj)   =  0.000000000000000D+00
 --> objf_tracer(bi,bj) =  0.000000000000000D+00
 --> objf_atl(bi,bj)    = -0.456779397373189D-01
  local fc = -0.456779397373189D-01
 global fc = -0.456779397373189D-01
grad-res -------------------------------
 grad-res     0    1   31    7    1    2    2    1  -4.56780848881E-02 -4.56782300305E-02 -4.56779397373E-02
 grad-res     0    1    1  258    0    2    2    1  -1.45146927773E-05 -1.45146594622E-05  2.29527086526E-06
(PID.TID 0000.0001)  ADM  ref_cost_function      = -4.56780848880511E-02
(PID.TID 0000.0001)  ADM  adjoint_gradient       = -1.45146927773379E-05
(PID.TID 0000.0001)  ADM  finite-diff_grad       = -1.45146594621864E-05
 ph-grd  ierr ---------------------------
 ph-grd  ierr =            0 , icomp =          258 , ichknum =            1
 ph-test icomp, ncvarcomp, ichknum          259       29309           2
 ph-grd _loc: bi, bj, icomptest, ichknum            2           2         258           2
 ph-grd -->hit<--           32           7           1           1
(PID.TID 0000.0001) INI_CG2D: CG2D normalisation factor =  6.5682677425711703E-05
(PID.TID 0000.0001) 
(PID.TID 0000.0001) Start initial hydrostatic pressure computation
(PID.TID 0000.0001) Pressure is predetermined for buoyancyRelation OCEANIC
(PID.TID 0000.0001) 
(PID.TID 0000.0001) // =======================================================
(PID.TID 0000.0001) // Model current state
(PID.TID 0000.0001) // =======================================================
(PID.TID 0000.0001) 
 EXTERNAL_FIELDS_LOAD, it=         0 : Reading new data, i0,i1=   12    1 (prev=   12    0 )
(PID.TID 0000.0001) SOLVE_FOR_PRESSURE: putPmEinXvector =    F
 cg2d: Sum(rhs),rhsMax =   1.15463194561016E-14  2.53674886388737E+00
 cg2d: Sum(rhs),rhsMax =  -1.26565424807268E-14  4.94121768585574E+00
 cg2d: Sum(rhs),rhsMax =   9.99200722162641E-15  6.30228849480757E+00
 EXTERNAL_FIELDS_LOAD, it=         3 : Reading new data, i0,i1=   12    1 (prev=   12    0 )
 cg2d: Sum(rhs),rhsMax =  -4.57411886145564E-14  6.81726659975567E+00
 cg2d: Sum(rhs),rhsMax =   1.24344978758018E-14  6.91967777569565E+00
 cg2d: Sum(rhs),rhsMax =  -1.68753899743024E-14  6.87877910610654E+00
 EXTERNAL_FIELDS_LOAD, it=         6 : Reading new data, i0,i1=   12    1 (prev=   12    0 )
 cg2d: Sum(rhs),rhsMax =  -8.88178419700125E-15  7.25010384079271E+00
 cg2d: Sum(rhs),rhsMax =  -7.99360577730113E-14  7.86920876352690E+00
 cg2d: Sum(rhs),rhsMax =  -1.77635683940025E-15  8.21195865179567E+00
 EXTERNAL_FIELDS_LOAD, it=         9 : Reading new data, i0,i1=   12    1 (prev=   12    0 )
 cg2d: Sum(rhs),rhsMax =  -1.06581410364015E-13  8.30815242442404E+00
(PID.TID 0000.0001) Did not write pickup because writePickupAtEnd = FALSE
 --> objf_test(bi,bj)   =  0.000000000000000D+00
 --> objf_tracer(bi,bj) =  0.000000000000000D+00
 --> objf_atl(bi,bj)    =  0.000000000000000D+00
 --> objf_test(bi,bj)   =  0.000000000000000D+00
 --> objf_tracer(bi,bj) =  0.000000000000000D+00
 --> objf_atl(bi,bj)    =  0.000000000000000D+00
 --> objf_test(bi,bj)   =  0.000000000000000D+00
 --> objf_tracer(bi,bj) =  0.000000000000000D+00
 --> objf_atl(bi,bj)    =  0.000000000000000D+00
 --> objf_test(bi,bj)   =  0.000000000000000D+00
 --> objf_tracer(bi,bj) =  0.000000000000000D+00
 --> objf_atl(bi,bj)    = -0.456782200673620D-01
  local fc = -0.456782200673620D-01
 global fc = -0.456782200673620D-01
 ph-check fcpertplus =  -4.56782200673620450E-002
 ph-check fcpertminus =  -4.56780848880510987E-002
(PID.TID 0000.0001) INI_CG2D: CG2D normalisation factor =  6.5682677425711703E-05
(PID.TID 0000.0001) 
(PID.TID 0000.0001) Start initial hydrostatic pressure computation
(PID.TID 0000.0001) Pressure is predetermined for buoyancyRelation OCEANIC
(PID.TID 0000.0001) 
(PID.TID 0000.0001) // =======================================================
(PID.TID 0000.0001) // Model current state
(PID.TID 0000.0001) // =======================================================
(PID.TID 0000.0001) 
 EXTERNAL_FIELDS_LOAD, it=         0 : Reading new data, i0,i1=   12    1 (prev=   12    0 )
(PID.TID 0000.0001) SOLVE_FOR_PRESSURE: putPmEinXvector =    F
 cg2d: Sum(rhs),rhsMax =   1.15463194561016E-14  2.53674886388737E+00
 cg2d: Sum(rhs),rhsMax =  -1.00475183728577E-14  4.94121768585574E+00
 cg2d: Sum(rhs),rhsMax =   1.80966353013901E-14  6.30228849480757E+00
 EXTERNAL_FIELDS_LOAD, it=         3 : Reading new data, i0,i1=   12    1 (prev=   12    0 )
 cg2d: Sum(rhs),rhsMax =  -5.10702591327572E-14  6.81726659975567E+00
 cg2d: Sum(rhs),rhsMax =   1.33226762955019E-14  6.91967777569565E+00
 cg2d: Sum(rhs),rhsMax =  -3.90798504668055E-14  6.87877910610654E+00
 EXTERNAL_FIELDS_LOAD, it=         6 : Reading new data, i0,i1=   12    1 (prev=   12    0 )
 cg2d: Sum(rhs),rhsMax =   3.90798504668055E-14  7.25010384079289E+00
 cg2d: Sum(rhs),rhsMax =  -8.88178419700125E-15  7.86920876352699E+00
 cg2d: Sum(rhs),rhsMax =   4.97379915032070E-14  8.21195865179568E+00
 EXTERNAL_FIELDS_LOAD, it=         9 : Reading new data, i0,i1=   12    1 (prev=   12    0 )
 cg2d: Sum(rhs),rhsMax =   9.59232693276135E-14  8.30815242442391E+00
(PID.TID 0000.0001) Did not write pickup because writePickupAtEnd = FALSE
 --> objf_test(bi,bj)   =  0.000000000000000D+00
 --> objf_tracer(bi,bj) =  0.000000000000000D+00
 --> objf_atl(bi,bj)    =  0.000000000000000D+00
 --> objf_test(bi,bj)   =  0.000000000000000D+00
 --> objf_tracer(bi,bj) =  0.000000000000000D+00
 --> objf_atl(bi,bj)    =  0.000000000000000D+00
 --> objf_test(bi,bj)   =  0.000000000000000D+00
 --> objf_tracer(bi,bj) =  0.000000000000000D+00
 --> objf_atl(bi,bj)    =  0.000000000000000D+00
 --> objf_test(bi,bj)   =  0.000000000000000D+00
 --> objf_tracer(bi,bj) =  0.000000000000000D+00
 --> objf_atl(bi,bj)    = -0.456779496600604D-01
  local fc = -0.456779496600604D-01
 global fc = -0.456779496600604D-01
grad-res -------------------------------
 grad-res     0    2   32    7    1    2    2    1  -4.56780848881E-02 -4.56782200674E-02 -4.56779496601E-02
 grad-res     0    2    2  259    0    2    2    1  -1.35203650782E-05 -1.35203650834E-05 -3.86938259211E-10
(PID.TID 0000.0001)  ADM  ref_cost_function      = -4.56780848880511E-02
(PID.TID 0000.0001)  ADM  adjoint_gradient       = -1.35203650781794E-05
(PID.TID 0000.0001)  ADM  finite-diff_grad       = -1.35203650834109E-05
 ph-grd  ierr ---------------------------
 ph-grd  ierr =            0 , icomp =          259 , ichknum =            2
 ph-test icomp, ncvarcomp, ichknum          260       29309           3
 ph-grd _loc: bi, bj, icomptest, ichknum            2           2         259           3
 ph-grd -->hit<--           33           7           1           1
(PID.TID 0000.0001) INI_CG2D: CG2D normalisation factor =  6.5682677425711703E-05
(PID.TID 0000.0001) 
(PID.TID 0000.0001) Start initial hydrostatic pressure computation
(PID.TID 0000.0001) Pressure is predetermined for buoyancyRelation OCEANIC
(PID.TID 0000.0001) 
(PID.TID 0000.0001) // =======================================================
(PID.TID 0000.0001) // Model current state
(PID.TID 0000.0001) // =======================================================
(PID.TID 0000.0001) 
 EXTERNAL_FIELDS_LOAD, it=         0 : Reading new data, i0,i1=   12    1 (prev=   12    0 )
(PID.TID 0000.0001) SOLVE_FOR_PRESSURE: putPmEinXvector =    F
 cg2d: Sum(rhs),rhsMax =   1.15463194561016E-14  2.53674886388737E+00
 cg2d: Sum(rhs),rhsMax =  -8.27116153345742E-15  4.94121768585574E+00
 cg2d: Sum(rhs),rhsMax =  -1.13242748511766E-14  6.30228849480757E+00
 EXTERNAL_FIELDS_LOAD, it=         3 : Reading new data, i0,i1=   12    1 (prev=   12    0 )
 cg2d: Sum(rhs),rhsMax =  -4.21884749357559E-14  6.81726659975567E+00
 cg2d: Sum(rhs),rhsMax =   1.68753899743024E-14  6.91967777569565E+00
 cg2d: Sum(rhs),rhsMax =  -1.77635683940025E-15  6.87877910610654E+00
 EXTERNAL_FIELDS_LOAD, it=         6 : Reading new data, i0,i1=   12    1 (prev=   12    0 )
 cg2d: Sum(rhs),rhsMax =  -2.66453525910038E-14  7.25010384079271E+00
 cg2d: Sum(rhs),rhsMax =   3.90798504668055E-14  7.86920876352691E+00
 cg2d: Sum(rhs),rhsMax =   3.01980662698043E-14  8.21195865179568E+00
 EXTERNAL_FIELDS_LOAD, it=         9 : Reading new data, i0,i1=   12    1 (prev=   12    0 )
 cg2d: Sum(rhs),rhsMax =  -4.61852778244065E-14  8.30815242442402E+00
(PID.TID 0000.0001) Did not write pickup because writePickupAtEnd = FALSE
 --> objf_test(bi,bj)   =  0.000000000000000D+00
 --> objf_tracer(bi,bj) =  0.000000000000000D+00
 --> objf_atl(bi,bj)    =  0.000000000000000D+00
 --> objf_test(bi,bj)   =  0.000000000000000D+00
 --> objf_tracer(bi,bj) =  0.000000000000000D+00
 --> objf_atl(bi,bj)    =  0.000000000000000D+00
 --> objf_test(bi,bj)   =  0.000000000000000D+00
 --> objf_tracer(bi,bj) =  0.000000000000000D+00
 --> objf_atl(bi,bj)    =  0.000000000000000D+00
 --> objf_test(bi,bj)   =  0.000000000000000D+00
 --> objf_tracer(bi,bj) =  0.000000000000000D+00
 --> objf_atl(bi,bj)    = -0.456781774369329D-01
  local fc = -0.456781774369329D-01
 global fc = -0.456781774369329D-01
 ph-check fcpertplus =  -4.56781774369328583E-002
 ph-check fcpertminus =  -4.56780848880510987E-002
(PID.TID 0000.0001) INI_CG2D: CG2D normalisation factor =  6.5682677425711703E-05
(PID.TID 0000.0001) 
(PID.TID 0000.0001) Start initial hydrostatic pressure computation
(PID.TID 0000.0001) Pressure is predetermined for buoyancyRelation OCEANIC
(PID.TID 0000.0001) 
(PID.TID 0000.0001) // =======================================================
(PID.TID 0000.0001) // Model current state
(PID.TID 0000.0001) // =======================================================
(PID.TID 0000.0001) 
 EXTERNAL_FIELDS_LOAD, it=         0 : Reading new data, i0,i1=   12    1 (prev=   12    0 )
(PID.TID 0000.0001) SOLVE_FOR_PRESSURE: putPmEinXvector =    F
 cg2d: Sum(rhs),rhsMax =   9.76996261670138E-15  2.53674886388737E+00
 cg2d: Sum(rhs),rhsMax =  -5.55111512312578E-15  4.94121768585574E+00
 cg2d: Sum(rhs),rhsMax =   2.10942374678780E-15  6.30228849480757E+00
 EXTERNAL_FIELDS_LOAD, it=         3 : Reading new data, i0,i1=   12    1 (prev=   12    0 )
 cg2d: Sum(rhs),rhsMax =  -2.93098878501041E-14  6.81726659975567E+00
 cg2d: Sum(rhs),rhsMax =   3.99680288865056E-14  6.91967777569565E+00
 cg2d: Sum(rhs),rhsMax =   2.66453525910038E-15  6.87877910610654E+00
 EXTERNAL_FIELDS_LOAD, it=         6 : Reading new data, i0,i1=   12    1 (prev=   12    0 )
 cg2d: Sum(rhs),rhsMax =  -7.10542735760100E-15  7.25010384079271E+00
 cg2d: Sum(rhs),rhsMax =   2.48689957516035E-14  7.86920876352691E+00
 cg2d: Sum(rhs),rhsMax =   5.15143483426073E-14  8.21195865179568E+00
 EXTERNAL_FIELDS_LOAD, it=         9 : Reading new data, i0,i1=   12    1 (prev=   12    0 )
 cg2d: Sum(rhs),rhsMax =  -4.79616346638068E-14  8.30815242442400E+00
(PID.TID 0000.0001) Did not write pickup because writePickupAtEnd = FALSE
 --> objf_test(bi,bj)   =  0.000000000000000D+00
 --> objf_tracer(bi,bj) =  0.000000000000000D+00
 --> objf_atl(bi,bj)    =  0.000000000000000D+00
 --> objf_test(bi,bj)   =  0.000000000000000D+00
 --> objf_tracer(bi,bj) =  0.000000000000000D+00
 --> objf_atl(bi,bj)    =  0.000000000000000D+00
 --> objf_test(bi,bj)   =  0.000000000000000D+00
 --> objf_tracer(bi,bj) =  0.000000000000000D+00
 --> objf_atl(bi,bj)    =  0.000000000000000D+00
 --> objf_test(bi,bj)   =  0.000000000000000D+00
 --> objf_tracer(bi,bj) =  0.000000000000000D+00
 --> objf_atl(bi,bj)    = -0.456779927219239D-01
  local fc = -0.456779927219239D-01
 global fc = -0.456779927219239D-01
grad-res -------------------------------
 grad-res     0    3   33    7    1    2    2    1  -4.56780848881E-02 -4.56781774369E-02 -4.56779927219E-02
 grad-res     0    3    3  260    0    2    2    1  -9.23619781626E-06 -9.23575044880E-06  4.84363234250E-05
(PID.TID 0000.0001)  ADM  ref_cost_function      = -4.56780848880511E-02
(PID.TID 0000.0001)  ADM  adjoint_gradient       = -9.23619781626130E-06
(PID.TID 0000.0001)  ADM  finite-diff_grad       = -9.23575044879665E-06
 ph-grd  ierr ---------------------------
 ph-grd  ierr =            0 , icomp =          260 , ichknum =            3
 ph-test icomp, ncvarcomp, ichknum          261       29309           4
 ph-grd _loc: bi, bj, icomptest, ichknum            2           2         260           4
 ph-grd -->hit<--           34           7           1           1
(PID.TID 0000.0001) INI_CG2D: CG2D normalisation factor =  6.5682677425711703E-05
(PID.TID 0000.0001) 
(PID.TID 0000.0001) Start initial hydrostatic pressure computation
(PID.TID 0000.0001) Pressure is predetermined for buoyancyRelation OCEANIC
(PID.TID 0000.0001) 
(PID.TID 0000.0001) // =======================================================
(PID.TID 0000.0001) // Model current state
(PID.TID 0000.0001) // =======================================================
(PID.TID 0000.0001) 
 EXTERNAL_FIELDS_LOAD, it=         0 : Reading new data, i0,i1=   12    1 (prev=   12    0 )
(PID.TID 0000.0001) SOLVE_FOR_PRESSURE: putPmEinXvector =    F
 cg2d: Sum(rhs),rhsMax =   9.76996261670138E-15  2.53674886388737E+00
 cg2d: Sum(rhs),rhsMax =  -5.32907051820075E-15  4.94121768585574E+00
 cg2d: Sum(rhs),rhsMax =   2.22044604925031E-15  6.30228849480757E+00
 EXTERNAL_FIELDS_LOAD, it=         3 : Reading new data, i0,i1=   12    1 (prev=   12    0 )
 cg2d: Sum(rhs),rhsMax =  -3.90798504668055E-14  6.81726659975568E+00
 cg2d: Sum(rhs),rhsMax =   3.64153152077051E-14  6.91967777569565E+00
 cg2d: Sum(rhs),rhsMax =   5.32907051820075E-15  6.87877910610654E+00
 EXTERNAL_FIELDS_LOAD, it=         6 : Reading new data, i0,i1=   12    1 (prev=   12    0 )
 cg2d: Sum(rhs),rhsMax =   1.24344978758018E-14  7.25010384079290E+00
 cg2d: Sum(rhs),rhsMax =  -3.19744231092045E-14  7.86920876352698E+00
 cg2d: Sum(rhs),rhsMax =   1.06581410364015E-14  8.21195865179568E+00
 EXTERNAL_FIELDS_LOAD, it=         9 : Reading new data, i0,i1=   12    1 (prev=   12    0 )
 cg2d: Sum(rhs),rhsMax =   1.42108547152020E-14  8.30815242442394E+00
(PID.TID 0000.0001) Did not write pickup because writePickupAtEnd = FALSE
 --> objf_test(bi,bj)   =  0.000000000000000D+00
 --> objf_tracer(bi,bj) =  0.000000000000000D+00
 --> objf_atl(bi,bj)    =  0.000000000000000D+00
 --> objf_test(bi,bj)   =  0.000000000000000D+00
 --> objf_tracer(bi,bj) =  0.000000000000000D+00
 --> objf_atl(bi,bj)    =  0.000000000000000D+00
 --> objf_test(bi,bj)   =  0.000000000000000D+00
 --> objf_tracer(bi,bj) =  0.000000000000000D+00
 --> objf_atl(bi,bj)    =  0.000000000000000D+00
 --> objf_test(bi,bj)   =  0.000000000000000D+00
 --> objf_tracer(bi,bj) =  0.000000000000000D+00
 --> objf_atl(bi,bj)    = -0.456784024174429D-01
  local fc = -0.456784024174429D-01
 global fc = -0.456784024174429D-01
 ph-check fcpertplus =  -4.56784024174429135E-002
 ph-check fcpertminus =  -4.56780848880510987E-002
(PID.TID 0000.0001) INI_CG2D: CG2D normalisation factor =  6.5682677425711703E-05
(PID.TID 0000.0001) 
(PID.TID 0000.0001) Start initial hydrostatic pressure computation
(PID.TID 0000.0001) Pressure is predetermined for buoyancyRelation OCEANIC
(PID.TID 0000.0001) 
(PID.TID 0000.0001) // =======================================================
(PID.TID 0000.0001) // Model current state
(PID.TID 0000.0001) // =======================================================
(PID.TID 0000.0001) 
 EXTERNAL_FIELDS_LOAD, it=         0 : Reading new data, i0,i1=   12    1 (prev=   12    0 )
(PID.TID 0000.0001) SOLVE_FOR_PRESSURE: putPmEinXvector =    F
 cg2d: Sum(rhs),rhsMax =   9.76996261670138E-15  2.53674886388737E+00
 cg2d: Sum(rhs),rhsMax =  -9.82547376793264E-15  4.94121768585574E+00
 cg2d: Sum(rhs),rhsMax =   3.44169137633799E-15  6.30228849480757E+00
 EXTERNAL_FIELDS_LOAD, it=         3 : Reading new data, i0,i1=   12    1 (prev=   12    0 )
 cg2d: Sum(rhs),rhsMax =  -4.61852778244065E-14  6.81726659975567E+00
 cg2d: Sum(rhs),rhsMax =   0.00000000000000E+00  6.91967777569565E+00
 cg2d: Sum(rhs),rhsMax =  -8.88178419700125E-15  6.87877910610654E+00
 EXTERNAL_FIELDS_LOAD, it=         6 : Reading new data, i0,i1=   12    1 (prev=   12    0 )
 cg2d: Sum(rhs),rhsMax =  -4.26325641456060E-14  7.25010384079271E+00
 cg2d: Sum(rhs),rhsMax =   8.34887714518118E-14  7.86920876352691E+00
 cg2d: Sum(rhs),rhsMax =   4.61852778244065E-14  8.21195865179567E+00
 EXTERNAL_FIELDS_LOAD, it=         9 : Reading new data, i0,i1=   12    1 (prev=   12    0 )
 cg2d: Sum(rhs),rhsMax =   1.06581410364015E-14  8.30815242442404E+00
(PID.TID 0000.0001) Did not write pickup because writePickupAtEnd = FALSE
 --> objf_test(bi,bj)   =  0.000000000000000D+00
 --> objf_tracer(bi,bj) =  0.000000000000000D+00
 --> objf_atl(bi,bj)    =  0.000000000000000D+00
 --> objf_test(bi,bj)   =  0.000000000000000D+00
 --> objf_tracer(bi,bj) =  0.000000000000000D+00
 --> objf_atl(bi,bj)    =  0.000000000000000D+00
 --> objf_test(bi,bj)   =  0.000000000000000D+00
 --> objf_tracer(bi,bj) =  0.000000000000000D+00
 --> objf_atl(bi,bj)    =  0.000000000000000D+00
 --> objf_test(bi,bj)   =  0.000000000000000D+00
 --> objf_tracer(bi,bj) =  0.000000000000000D+00
 --> objf_atl(bi,bj)    = -0.456779661217173D-01
  local fc = -0.456779661217173D-01
 global fc = -0.456779661217173D-01
grad-res -------------------------------
 grad-res     0    4   34    7    1    2    2    1  -4.56780848881E-02 -4.56784024174E-02 -4.56779661217E-02
 grad-res     0    4    4  261    0    2    2    1  -2.85675982852E-05 -2.18147862819E-05  2.36380109237E-01
(PID.TID 0000.0001)  ADM  ref_cost_function      = -4.56780848880511E-02
(PID.TID 0000.0001)  ADM  adjoint_gradient       = -2.85675982851882E-05
(PID.TID 0000.0001)  ADM  finite-diff_grad       = -2.18147862818957E-05
 ph-grd  ierr ---------------------------
 ph-grd  ierr =            0 , icomp =          261 , ichknum =            4
(PID.TID 0000.0001) 
(PID.TID 0000.0001) // =======================================================
(PID.TID 0000.0001) // Gradient check results  >>> START <<<
(PID.TID 0000.0001) // =======================================================
(PID.TID 0000.0001) 
(PID.TID 0000.0001)  EPS =   1.000000E-02
(PID.TID 0000.0001) 
(PID.TID 0000.0001) grdchk output h.p:  Id Itile Jtile LAYER   bi   bj   X(Id)           X(Id)+/-EPS
(PID.TID 0000.0001) grdchk output h.c:  Id  FC                   FC1                  FC2
(PID.TID 0000.0001) grdchk output h.g:  Id     FC1-FC2/(2*EPS)      ADJ GRAD(FC)         1-FDGRD/ADGRD
(PID.TID 0000.0001) 
(PID.TID 0000.0001) grdchk output (p):   1    31     7     1    2    2   0.000000000E+00 -1.000000000E-02
(PID.TID 0000.0001) grdchk output (c):   1 -4.5678084888051E-02 -4.5678230030508E-02 -4.5677939737319E-02
(PID.TID 0000.0001) grdchk output (g):   1    -1.4514659462186E-05 -1.4514692777338E-05  2.2952708652602E-06
(PID.TID 0000.0001) 
(PID.TID 0000.0001) grdchk output (p):   2    32     7     1    2    2   0.000000000E+00 -1.000000000E-02
(PID.TID 0000.0001) grdchk output (c):   2 -4.5678084888051E-02 -4.5678220067362E-02 -4.5677949660060E-02
(PID.TID 0000.0001) grdchk output (g):   2    -1.3520365083411E-05 -1.3520365078179E-05 -3.8693825921143E-10
(PID.TID 0000.0001) 
(PID.TID 0000.0001) grdchk output (p):   3    33     7     1    2    2   0.000000000E+00 -1.000000000E-02
(PID.TID 0000.0001) grdchk output (c):   3 -4.5678084888051E-02 -4.5678177436933E-02 -4.5677992721924E-02
(PID.TID 0000.0001) grdchk output (g):   3    -9.2357504487967E-06 -9.2361978162613E-06  4.8436323424994E-05
(PID.TID 0000.0001) 
(PID.TID 0000.0001) grdchk output (p):   4    34     7     1    2    2   0.000000000E+00 -1.000000000E-02
(PID.TID 0000.0001) grdchk output (c):   4 -4.5678084888051E-02 -4.5678402417443E-02 -4.5677966121717E-02
(PID.TID 0000.0001) grdchk output (g):   4    -2.1814786281896E-05 -2.8567598285188E-05  2.3638010923703E-01
(PID.TID 0000.0001) 
(PID.TID 0000.0001) // =======================================================
(PID.TID 0000.0001) // Gradient check results  >>> END <<<
(PID.TID 0000.0001) // =======================================================
(PID.TID 0000.0001) 
(PID.TID 0000.0001)   Seconds in section "ALL                    [THE_MODEL_MAIN]":
(PID.TID 0000.0001)           User time:   194.83000000000001
(PID.TID 0000.0001)         System time:  0.94000000000000006
(PID.TID 0000.0001)     Wall clock time:   210.90858197212219
(PID.TID 0000.0001)          No. starts:           1
(PID.TID 0000.0001)           No. stops:           1
(PID.TID 0000.0001)   Seconds in section "INITIALISE_FIXED       [THE_MODEL_MAIN]":
(PID.TID 0000.0001)           User time:  0.56000000000000005
(PID.TID 0000.0001)         System time:  8.00000000000000017E-002
(PID.TID 0000.0001)     Wall clock time:   6.4847009181976318
(PID.TID 0000.0001)          No. starts:           1
(PID.TID 0000.0001)           No. stops:           1
(PID.TID 0000.0001)   Seconds in section "ADTHE_MAIN_LOOP          [ADJOINT RUN]":
(PID.TID 0000.0001)           User time:   98.280000000000001
(PID.TID 0000.0001)         System time:  0.82000000000000006
(PID.TID 0000.0001)     Wall clock time:   108.12741398811340
(PID.TID 0000.0001)          No. starts:           1
(PID.TID 0000.0001)           No. stops:           1
(PID.TID 0000.0001)   Seconds in section "UPDATE_SURF_DR      [FORWARD_STEP]":
(PID.TID 0000.0001)           User time:  0.12000000000000455
(PID.TID 0000.0001)         System time:   0.0000000000000000
(PID.TID 0000.0001)     Wall clock time:  0.11355638504028320
(PID.TID 0000.0001)          No. starts:         200
(PID.TID 0000.0001)           No. stops:         200
(PID.TID 0000.0001)   Seconds in section "LOAD_FIELDS_DRIVER  [FORWARD_STEP]":
(PID.TID 0000.0001)           User time:  0.22000000000005571
(PID.TID 0000.0001)         System time:  3.00000000000000266E-002
(PID.TID 0000.0001)     Wall clock time:  0.23443961143493652
(PID.TID 0000.0001)          No. starts:         100
(PID.TID 0000.0001)           No. stops:         100
(PID.TID 0000.0001)   Seconds in section "EXTERNAL_FLDS_LOAD [LOAD_FLDS_DRIVER]":
(PID.TID 0000.0001)           User time:  0.24000000000006594
(PID.TID 0000.0001)         System time:  3.99999999999999245E-002
(PID.TID 0000.0001)     Wall clock time:  0.27885246276855469
(PID.TID 0000.0001)          No. starts:         120
(PID.TID 0000.0001)           No. stops:         120
(PID.TID 0000.0001)   Seconds in section "I/O (WRITE)        [ADJOINT LOOP]":
(PID.TID 0000.0001)           User time:  0.17999999999997840
(PID.TID 0000.0001)         System time:  5.99999999999999423E-002
(PID.TID 0000.0001)     Wall clock time:   3.9124388694763184
(PID.TID 0000.0001)          No. starts:         160
(PID.TID 0000.0001)           No. stops:         160
(PID.TID 0000.0001)   Seconds in section "DO_ATMOSPHERIC_PHYS [FORWARD_STEP]":
(PID.TID 0000.0001)           User time:   0.0000000000000000
(PID.TID 0000.0001)         System time:   0.0000000000000000
(PID.TID 0000.0001)     Wall clock time:  9.12666320800781250E-004
(PID.TID 0000.0001)          No. starts:         100
(PID.TID 0000.0001)           No. stops:         100
(PID.TID 0000.0001)   Seconds in section "DO_OCEANIC_PHYS     [FORWARD_STEP]":
(PID.TID 0000.0001)           User time:   18.149999999999864
(PID.TID 0000.0001)         System time:   0.0000000000000000
(PID.TID 0000.0001)     Wall clock time:   18.232481241226196
(PID.TID 0000.0001)          No. starts:         100
(PID.TID 0000.0001)           No. stops:         100
(PID.TID 0000.0001)   Seconds in section "DYNAMICS            [FORWARD_STEP]":
(PID.TID 0000.0001)           User time:   39.160000000000139
(PID.TID 0000.0001)         System time:  2.99999999999999156E-002
(PID.TID 0000.0001)     Wall clock time:   39.312703847885132
(PID.TID 0000.0001)          No. starts:         100
(PID.TID 0000.0001)           No. stops:         100
(PID.TID 0000.0001)   Seconds in section "SOLVE_FOR_PRESSURE  [FORWARD_STEP]":
(PID.TID 0000.0001)           User time:   4.8899999999999011
(PID.TID 0000.0001)         System time:  1.00000000000000089E-002
(PID.TID 0000.0001)     Wall clock time:   4.8817708492279053
(PID.TID 0000.0001)          No. starts:         100
(PID.TID 0000.0001)           No. stops:         100
(PID.TID 0000.0001)   Seconds in section "MOM_CORRECTION_STEP [FORWARD_STEP]":
(PID.TID 0000.0001)           User time:   2.5800000000000409
(PID.TID 0000.0001)         System time:   0.0000000000000000
(PID.TID 0000.0001)     Wall clock time:   2.5533363819122314
(PID.TID 0000.0001)          No. starts:         100
(PID.TID 0000.0001)           No. stops:         100
(PID.TID 0000.0001)   Seconds in section "UPDATE_ETAH         [FORWARD_STEP]":
(PID.TID 0000.0001)           User time:  2.99999999999727152E-002
(PID.TID 0000.0001)         System time:   0.0000000000000000
(PID.TID 0000.0001)     Wall clock time:  2.05941200256347656E-002
(PID.TID 0000.0001)          No. starts:         100
(PID.TID 0000.0001)           No. stops:         100
(PID.TID 0000.0001)   Seconds in section "CALC_SURF_DR      [FORWARD_STEP]":
(PID.TID 0000.0001)           User time:  0.12000000000000455
(PID.TID 0000.0001)         System time:   0.0000000000000000
(PID.TID 0000.0001)     Wall clock time:  0.13114047050476074
(PID.TID 0000.0001)          No. starts:         100
(PID.TID 0000.0001)           No. stops:         100
(PID.TID 0000.0001)   Seconds in section "BLOCKING_EXCHANGES  [FORWARD_STEP]":
(PID.TID 0000.0001)           User time:  0.73999999999995225
(PID.TID 0000.0001)         System time:   0.0000000000000000
(PID.TID 0000.0001)     Wall clock time:  0.77703881263732910
(PID.TID 0000.0001)          No. starts:         200
(PID.TID 0000.0001)           No. stops:         200
(PID.TID 0000.0001)   Seconds in section "THERMODYNAMICS      [FORWARD_STEP]":
(PID.TID 0000.0001)           User time:   47.350000000000023
(PID.TID 0000.0001)         System time:   0.0000000000000000
(PID.TID 0000.0001)     Wall clock time:   47.514933109283447
(PID.TID 0000.0001)          No. starts:         100
(PID.TID 0000.0001)           No. stops:         100
(PID.TID 0000.0001)   Seconds in section "TRC_CORRECTION_STEP [FORWARD_STEP]":
(PID.TID 0000.0001)           User time:  0.43000000000000682
(PID.TID 0000.0001)         System time:   0.0000000000000000
(PID.TID 0000.0001)     Wall clock time:  0.35832309722900391
(PID.TID 0000.0001)          No. starts:         100
(PID.TID 0000.0001)           No. stops:         100
(PID.TID 0000.0001)   Seconds in section "MONITOR             [FORWARD_STEP]":
(PID.TID 0000.0001)           User time:  0.84000000000000341
(PID.TID 0000.0001)         System time:   0.0000000000000000
(PID.TID 0000.0001)     Wall clock time:  0.85579562187194824
(PID.TID 0000.0001)          No. starts:         100
(PID.TID 0000.0001)           No. stops:         100
(PID.TID 0000.0001)   Seconds in section "COST_TILE           [FORWARD_STEP]":
(PID.TID 0000.0001)           User time:   1.6399999999999011
(PID.TID 0000.0001)         System time:   0.0000000000000000
(PID.TID 0000.0001)     Wall clock time:   1.5918104648590088
(PID.TID 0000.0001)          No. starts:         100
(PID.TID 0000.0001)           No. stops:         100
(PID.TID 0000.0001)   Seconds in section "DO_THE_MODEL_IO     [FORWARD_STEP]":
(PID.TID 0000.0001)           User time:  9.99999999999943157E-002
(PID.TID 0000.0001)         System time:  1.00000000000000089E-002
(PID.TID 0000.0001)     Wall clock time:   2.4285275936126709
(PID.TID 0000.0001)          No. starts:         100
(PID.TID 0000.0001)           No. stops:         100
(PID.TID 0000.0001)   Seconds in section "DO_WRITE_PICKUP     [FORWARD_STEP]":
(PID.TID 0000.0001)           User time:  5.00000000000113687E-002
(PID.TID 0000.0001)         System time:  5.00000000000000444E-002
(PID.TID 0000.0001)     Wall clock time:  0.21547651290893555
(PID.TID 0000.0001)          No. starts:         100
(PID.TID 0000.0001)           No. stops:         100
(PID.TID 0000.0001)   Seconds in section "CTRL_PACK           [THE_MODEL_MAIN]":
(PID.TID 0000.0001)           User time:  9.00000000000034106E-002
(PID.TID 0000.0001)         System time:   0.0000000000000000
(PID.TID 0000.0001)     Wall clock time:  0.10014700889587402
(PID.TID 0000.0001)          No. starts:           1
(PID.TID 0000.0001)           No. stops:           1
(PID.TID 0000.0001)   Seconds in section "CTRL_PACK     [THE_MODEL_MAIN]":
(PID.TID 0000.0001)           User time:  8.99999999999891998E-002
(PID.TID 0000.0001)         System time:  1.00000000000000089E-002
(PID.TID 0000.0001)     Wall clock time:  8.92310142517089844E-002
(PID.TID 0000.0001)          No. starts:           1
(PID.TID 0000.0001)           No. stops:           1
(PID.TID 0000.0001)   Seconds in section "GRDCHK_MAIN         [THE_MODEL_MAIN]":
(PID.TID 0000.0001)           User time:   95.810000000000016
(PID.TID 0000.0001)         System time:  3.00000000000000266E-002
(PID.TID 0000.0001)     Wall clock time:   96.103607892990112
(PID.TID 0000.0001)          No. starts:           1
(PID.TID 0000.0001)           No. stops:           1
(PID.TID 0000.0001)   Seconds in section "INITIALISE_VARIA    [THE_MAIN_LOOP]":
(PID.TID 0000.0001)           User time:   1.0099999999999909
(PID.TID 0000.0001)         System time:   0.0000000000000000
(PID.TID 0000.0001)     Wall clock time:   1.0146896839141846
(PID.TID 0000.0001)          No. starts:           8
(PID.TID 0000.0001)           No. stops:           8
(PID.TID 0000.0001)   Seconds in section "MAIN LOOP           [THE_MAIN_LOOP]":
(PID.TID 0000.0001)           User time:   94.669999999999987
(PID.TID 0000.0001)         System time:  3.00000000000000266E-002
(PID.TID 0000.0001)     Wall clock time:   94.908525228500366
(PID.TID 0000.0001)          No. starts:           8
(PID.TID 0000.0001)           No. stops:           8
(PID.TID 0000.0001)   Seconds in section "FORWARD_STEP        [THE_MAIN_LOOP]":
(PID.TID 0000.0001)           User time:   92.379999999999967
(PID.TID 0000.0001)         System time:  3.00000000000000266E-002
(PID.TID 0000.0001)     Wall clock time:   92.592202425003052
(PID.TID 0000.0001)          No. starts:          80
(PID.TID 0000.0001)           No. stops:          80
(PID.TID 0000.0001)   Seconds in section "COST_FINAL         [ADJOINT SPIN-DOWN]":
(PID.TID 0000.0001)           User time:   0.0000000000000000
(PID.TID 0000.0001)         System time:   0.0000000000000000
(PID.TID 0000.0001)     Wall clock time:  8.31127166748046875E-004
(PID.TID 0000.0001)          No. starts:           8
(PID.TID 0000.0001)           No. stops:           8
(PID.TID 0000.0001) // ======================================================
(PID.TID 0000.0001) // Tile <-> Tile communication statistics
(PID.TID 0000.0001) // ======================================================
(PID.TID 0000.0001) // o Tile number: 000001
(PID.TID 0000.0001) //         No. X exchanges =              0
(PID.TID 0000.0001) //            Max. X spins =              0
(PID.TID 0000.0001) //            Min. X spins =     1000000000
(PID.TID 0000.0001) //          Total. X spins =              0
(PID.TID 0000.0001) //            Avg. X spins =       0.00E+00
(PID.TID 0000.0001) //         No. Y exchanges =              0
(PID.TID 0000.0001) //            Max. Y spins =              0
(PID.TID 0000.0001) //            Min. Y spins =     1000000000
(PID.TID 0000.0001) //          Total. Y spins =              0
(PID.TID 0000.0001) //            Avg. Y spins =       0.00E+00
(PID.TID 0000.0001) // o Tile number: 000002
(PID.TID 0000.0001) //         No. X exchanges =              0
(PID.TID 0000.0001) //            Max. X spins =              0
(PID.TID 0000.0001) //            Min. X spins =     1000000000
(PID.TID 0000.0001) //          Total. X spins =              0
(PID.TID 0000.0001) //            Avg. X spins =       0.00E+00
(PID.TID 0000.0001) //         No. Y exchanges =              0
(PID.TID 0000.0001) //            Max. Y spins =              0
(PID.TID 0000.0001) //            Min. Y spins =     1000000000
(PID.TID 0000.0001) //          Total. Y spins =              0
(PID.TID 0000.0001) //            Avg. Y spins =       0.00E+00
(PID.TID 0000.0001) // o Tile number: 000003
(PID.TID 0000.0001) //         No. X exchanges =              0
(PID.TID 0000.0001) //            Max. X spins =              0
(PID.TID 0000.0001) //            Min. X spins =     1000000000
(PID.TID 0000.0001) //          Total. X spins =              0
(PID.TID 0000.0001) //            Avg. X spins =       0.00E+00
(PID.TID 0000.0001) //         No. Y exchanges =              0
(PID.TID 0000.0001) //            Max. Y spins =              0
(PID.TID 0000.0001) //            Min. Y spins =     1000000000
(PID.TID 0000.0001) //          Total. Y spins =              0
(PID.TID 0000.0001) //            Avg. Y spins =       0.00E+00
(PID.TID 0000.0001) // o Tile number: 000004
(PID.TID 0000.0001) //         No. X exchanges =              0
(PID.TID 0000.0001) //            Max. X spins =              0
(PID.TID 0000.0001) //            Min. X spins =     1000000000
(PID.TID 0000.0001) //          Total. X spins =              0
(PID.TID 0000.0001) //            Avg. X spins =       0.00E+00
(PID.TID 0000.0001) //         No. Y exchanges =              0
(PID.TID 0000.0001) //            Max. Y spins =              0
(PID.TID 0000.0001) //            Min. Y spins =     1000000000
(PID.TID 0000.0001) //          Total. Y spins =              0
(PID.TID 0000.0001) //            Avg. Y spins =       0.00E+00
(PID.TID 0000.0001) // o Thread number: 000001
(PID.TID 0000.0001) //            No. barriers =          26242
(PID.TID 0000.0001) //      Max. barrier spins =              1
(PID.TID 0000.0001) //      Min. barrier spins =              1
(PID.TID 0000.0001) //     Total barrier spins =          26242
(PID.TID 0000.0001) //      Avg. barrier spins =       1.00E+00
PROGRAM MAIN: Execution ended Normally
