(PID.TID 0000.0001) 
(PID.TID 0000.0001) // ======================================================
(PID.TID 0000.0001) //                      MITgcm UV
(PID.TID 0000.0001) //                      =========
(PID.TID 0000.0001) // ======================================================
(PID.TID 0000.0001) // execution environment starting up...
(PID.TID 0000.0001) 
(PID.TID 0000.0001) // MITgcmUV version:  checkpoint61n
(PID.TID 0000.0001) // Build user:        jmc
(PID.TID 0000.0001) // Build host:        faulks
(PID.TID 0000.0001) // Build date:        Sun May 17 19:02:00 EDT 2009
(PID.TID 0000.0001) 
(PID.TID 0000.0001) // =======================================================
(PID.TID 0000.0001) // Execution Environment parameter file "eedata"
(PID.TID 0000.0001) // =======================================================
(PID.TID 0000.0001) ># Example "eedata" file
(PID.TID 0000.0001) ># Lines beginning "#" are comments
(PID.TID 0000.0001) ># nTx - No. threads per process in X
(PID.TID 0000.0001) ># nTy - No. threads per process in Y
(PID.TID 0000.0001) > &EEPARMS
(PID.TID 0000.0001) > nTx=1,
(PID.TID 0000.0001) > nTy=1,
(PID.TID 0000.0001) > useSETRLSTK=.TRUE.,
(PID.TID 0000.0001) > &
(PID.TID 0000.0001) ># Note: Some systems use & as the
(PID.TID 0000.0001) ># namelist terminator. Other systems
(PID.TID 0000.0001) ># use a / character (as shown here).
(PID.TID 0000.0001) 
(PID.TID 0000.0001) // =======================================================
(PID.TID 0000.0001) // Computational Grid Specification ( see files "SIZE.h" )
(PID.TID 0000.0001) //                                  ( and "eedata"       )
(PID.TID 0000.0001) // =======================================================
(PID.TID 0000.0001)      nPx =    1 ; /* No. processes in X */
(PID.TID 0000.0001)      nPy =    1 ; /* No. processes in Y */
(PID.TID 0000.0001)      nSx =    2 ; /* No. tiles in X per process */
(PID.TID 0000.0001)      nSy =    2 ; /* No. tiles in Y per process */
(PID.TID 0000.0001)      sNx =   45 ; /* Tile size in X */
(PID.TID 0000.0001)      sNy =   20 ; /* Tile size in Y */
(PID.TID 0000.0001)      OLx =    2 ; /* Tile overlap distance in X */
(PID.TID 0000.0001)      OLy =    2 ; /* Tile overlap distance in Y */
(PID.TID 0000.0001)      nTx =    1 ; /* No. threads in X per process */
(PID.TID 0000.0001)      nTy =    1 ; /* No. threads in Y per process */
(PID.TID 0000.0001)       Nr =   15 ; /* No. levels in the vertical   */
(PID.TID 0000.0001)       Nx =   90 ; /* Total domain size in X ( = nPx*nSx*sNx ) */
(PID.TID 0000.0001)       Ny =   40 ; /* Total domain size in Y ( = nPy*nSy*sNy ) */
(PID.TID 0000.0001)   nTiles =    4 ; /* Total no. tiles per process ( = nSx*nSy ) */
(PID.TID 0000.0001)   nProcs =    1 ; /* Total no. processes ( = nPx*nPy ) */
(PID.TID 0000.0001) nThreads =    1 ; /* Total no. threads per process ( = nTx*nTy ) */
(PID.TID 0000.0001) usingMPI =    F ; /* Flag used to control whether MPI is in use */
(PID.TID 0000.0001)                   /*  note: To execute a program with MPI calls */
(PID.TID 0000.0001)                   /*  it must be launched appropriately e.g     */
(PID.TID 0000.0001)                   /*  "mpirun -np 64 ......"                    */
(PID.TID 0000.0001) useCoupler=    F ;/* Flag used to control communications with   */
(PID.TID 0000.0001)                   /*  other model components, through a coupler */
(PID.TID 0000.0001) printMapIncludesZeros=    F ; /* print zeros in Std.Output maps */
(PID.TID 0000.0001) maxLengthPrt1D=   65 /* maxLength of 1D array printed to StdOut */
(PID.TID 0000.0001) 
(PID.TID 0000.0001) // ======================================================
(PID.TID 0000.0001) // Mapping of tiles to threads
(PID.TID 0000.0001) // ======================================================
(PID.TID 0000.0001) // -o- Thread   1, tiles (   1:   2,   1:   2)
(PID.TID 0000.0001) 
(PID.TID 0000.0001) // ======================================================
(PID.TID 0000.0001) // Tile <-> Tile connectvity table
(PID.TID 0000.0001) // ======================================================
(PID.TID 0000.0001) // Tile number: 000001 (process no. = 000001)
(PID.TID 0000.0001) //        WEST: Tile = 000002, Process = 000001, Comm = put
(PID.TID 0000.0001) //                bi = 000002, bj = 000001
(PID.TID 0000.0001) //        EAST: Tile = 000002, Process = 000001, Comm = put
(PID.TID 0000.0001) //                bi = 000002, bj = 000001
(PID.TID 0000.0001) //       SOUTH: Tile = 000003, Process = 000001, Comm = put
(PID.TID 0000.0001) //                bi = 000001, bj = 000002
(PID.TID 0000.0001) //       NORTH: Tile = 000003, Process = 000001, Comm = put
(PID.TID 0000.0001) //                bi = 000001, bj = 000002
(PID.TID 0000.0001) // Tile number: 000002 (process no. = 000001)
(PID.TID 0000.0001) //        WEST: Tile = 000001, Process = 000001, Comm = put
(PID.TID 0000.0001) //                bi = 000001, bj = 000001
(PID.TID 0000.0001) //        EAST: Tile = 000001, Process = 000001, Comm = put
(PID.TID 0000.0001) //                bi = 000001, bj = 000001
(PID.TID 0000.0001) //       SOUTH: Tile = 000004, Process = 000001, Comm = put
(PID.TID 0000.0001) //                bi = 000002, bj = 000002
(PID.TID 0000.0001) //       NORTH: Tile = 000004, Process = 000001, Comm = put
(PID.TID 0000.0001) //                bi = 000002, bj = 000002
(PID.TID 0000.0001) // Tile number: 000003 (process no. = 000001)
(PID.TID 0000.0001) //        WEST: Tile = 000004, Process = 000001, Comm = put
(PID.TID 0000.0001) //                bi = 000002, bj = 000002
(PID.TID 0000.0001) //        EAST: Tile = 000004, Process = 000001, Comm = put
(PID.TID 0000.0001) //                bi = 000002, bj = 000002
(PID.TID 0000.0001) //       SOUTH: Tile = 000001, Process = 000001, Comm = put
(PID.TID 0000.0001) //                bi = 000001, bj = 000001
(PID.TID 0000.0001) //       NORTH: Tile = 000001, Process = 000001, Comm = put
(PID.TID 0000.0001) //                bi = 000001, bj = 000001
(PID.TID 0000.0001) // Tile number: 000004 (process no. = 000001)
(PID.TID 0000.0001) //        WEST: Tile = 000003, Process = 000001, Comm = put
(PID.TID 0000.0001) //                bi = 000001, bj = 000002
(PID.TID 0000.0001) //        EAST: Tile = 000003, Process = 000001, Comm = put
(PID.TID 0000.0001) //                bi = 000001, bj = 000002
(PID.TID 0000.0001) //       SOUTH: Tile = 000002, Process = 000001, Comm = put
(PID.TID 0000.0001) //                bi = 000002, bj = 000001
(PID.TID 0000.0001) //       NORTH: Tile = 000002, Process = 000001, Comm = put
(PID.TID 0000.0001) //                bi = 000002, bj = 000001
(PID.TID 0000.0001) 
(PID.TID 0000.0001) // =======================================================
(PID.TID 0000.0001) // Model parameter file "data"
(PID.TID 0000.0001) // =======================================================
(PID.TID 0000.0001) ># ====================
(PID.TID 0000.0001) ># | Model parameters |
(PID.TID 0000.0001) ># ====================
(PID.TID 0000.0001) >#
(PID.TID 0000.0001) ># Continuous equation parameters
(PID.TID 0000.0001) > &PARM01
(PID.TID 0000.0001) > tRef = 15*20.,
(PID.TID 0000.0001) > sRef = 15*35.,
(PID.TID 0000.0001) > viscAr=1.E-3,
(PID.TID 0000.0001) > viscAh=5.E5,
(PID.TID 0000.0001) > diffKhT=0.,
(PID.TID 0000.0001) > diffKrT=3.E-5,
(PID.TID 0000.0001) > diffKhS=0.,
(PID.TID 0000.0001) > diffKrS=3.E-5,
(PID.TID 0000.0001) > rhoConst=1035.,
(PID.TID 0000.0001) > rhoConstFresh=1000.,
(PID.TID 0000.0001) > gravity=9.81,
(PID.TID 0000.0001) > eosType='JMD95P',
(PID.TID 0000.0001) > ivdc_kappa=100.,
(PID.TID 0000.0001) > implicitDiffusion=.TRUE.,
(PID.TID 0000.0001) > allowFreezing=.TRUE.,
(PID.TID 0000.0001) > exactConserv=.TRUE.,
(PID.TID 0000.0001) > useRealFreshWaterFlux=.TRUE.,
(PID.TID 0000.0001) > useCDscheme=.TRUE.,
(PID.TID 0000.0001) > quasiHydrostatic=.TRUE.,
(PID.TID 0000.0001) > useNHMTerms=.TRUE.,
(PID.TID 0000.0001) ># turn on looped cells
(PID.TID 0000.0001) > hFacMin=.05,
(PID.TID 0000.0001) > hFacMindr=50.,
(PID.TID 0000.0001) ># set precision of data files
(PID.TID 0000.0001) > readBinaryPrec=32,
(PID.TID 0000.0001) >#debugMode=.TRUE.,
(PID.TID 0000.0001) > &
(PID.TID 0000.0001) >
(PID.TID 0000.0001) ># Elliptic solver parameters
(PID.TID 0000.0001) > &PARM02
(PID.TID 0000.0001) > cg2dMaxIters=500,
(PID.TID 0000.0001) > cg2dTargetResidual=1.E-13,
(PID.TID 0000.0001) > &
(PID.TID 0000.0001) >
(PID.TID 0000.0001) ># Time stepping parameters
(PID.TID 0000.0001) > &PARM03
(PID.TID 0000.0001) > nIter0=36000,
(PID.TID 0000.0001) > nTimeSteps=10,
(PID.TID 0000.0001) ># 100 years of integration will yield a reasonable flow field
(PID.TID 0000.0001) ># startTime =          0.,
(PID.TID 0000.0001) ># endTime   = 3110400000.,
(PID.TID 0000.0001) > deltaTmom = 1800.,
(PID.TID 0000.0001) > tauCD =     321428.,
(PID.TID 0000.0001) > deltaTtracer= 86400.,
(PID.TID 0000.0001) > deltaTClock = 86400.,
(PID.TID 0000.0001) > deltaTfreesurf= 86400.,
(PID.TID 0000.0001) > abEps = 0.1,
(PID.TID 0000.0001) > pickupStrictlyMatch=.FALSE.,
(PID.TID 0000.0001) > pChkptFreq=1555200000.,
(PID.TID 0000.0001) > ChkptFreq=  311040000.,
(PID.TID 0000.0001) > dumpFreq=   311040000.,
(PID.TID 0000.0001) >#monitorFreq=31104000.,
(PID.TID 0000.0001) > monitorFreq=1.,
(PID.TID 0000.0001) ># 2 months restoring timescale for temperature
(PID.TID 0000.0001) > tauThetaClimRelax=  5184000.,
(PID.TID 0000.0001) ># 6 months restoring timescale for salinity
(PID.TID 0000.0001) > tauSaltClimRelax = 15552000.,
(PID.TID 0000.0001) > periodicExternalForcing=.TRUE.,
(PID.TID 0000.0001) > externForcingPeriod=2592000.,
(PID.TID 0000.0001) > externForcingCycle=31104000.,
(PID.TID 0000.0001) > &
(PID.TID 0000.0001) >
(PID.TID 0000.0001) ># Gridding parameters
(PID.TID 0000.0001) > &PARM04
(PID.TID 0000.0001) > usingSphericalPolarGrid=.TRUE.,
(PID.TID 0000.0001) > delR= 50.,  70., 100., 140., 190.,
(PID.TID 0000.0001) >      240., 290., 340., 390., 440.,
(PID.TID 0000.0001) >      490., 540., 590., 640., 690.,
(PID.TID 0000.0001) > ygOrigin=-80.,
(PID.TID 0000.0001) > dySpacing=4.,
(PID.TID 0000.0001) > dxSpacing=4.,
(PID.TID 0000.0001) > &
(PID.TID 0000.0001) >
(PID.TID 0000.0001) ># Input datasets
(PID.TID 0000.0001) > &PARM05
(PID.TID 0000.0001) > bathyFile=      'bathymetry.bin',
(PID.TID 0000.0001) > hydrogThetaFile='lev_t.bin',
(PID.TID 0000.0001) > hydrogSaltFile= 'lev_s.bin',
(PID.TID 0000.0001) > zonalWindFile=  'trenberth_taux.bin',
(PID.TID 0000.0001) > meridWindFile=  'trenberth_tauy.bin',
(PID.TID 0000.0001) > thetaClimFile=  'lev_sst.bin',
(PID.TID 0000.0001) > saltClimFile=   'lev_sss.bin',
(PID.TID 0000.0001) > surfQFile=      'ncep_qnet.bin',
(PID.TID 0000.0001) > the_run_name=   'global_ocean.90x40x15',
(PID.TID 0000.0001) > EmPmRFile=      'ncep_emp.bin',
(PID.TID 0000.0001) > &
(PID.TID 0000.0001) 
(PID.TID 0000.0001) S/R INI_PARMS ; starts to read PARM01
(PID.TID 0000.0001) S/R INI_PARMS ; read PARM01 : OK
(PID.TID 0000.0001) S/R INI_PARMS: No request for barotropic solver
(PID.TID 0000.0001) S/R INI_PARMS: => Use implicitFreeSurface as default
(PID.TID 0000.0001) S/R INI_PARMS ; starts to read PARM02
(PID.TID 0000.0001) S/R INI_PARMS ; read PARM02 : OK
(PID.TID 0000.0001) S/R INI_PARMS ; starts to read PARM03
(PID.TID 0000.0001) S/R INI_PARMS ; read PARM03 : OK
(PID.TID 0000.0001) S/R INI_PARMS ; starts to read PARM04
(PID.TID 0000.0001) S/R INI_PARMS ; read PARM04 : OK
(PID.TID 0000.0001) S/R INI_PARMS ; starts to read PARM05
(PID.TID 0000.0001) S/R INI_PARMS ; read PARM05 : OK
(PID.TID 0000.0001)  PACKAGES_BOOT: opening data.pkg
(PID.TID 0000.0001)  OPEN_COPY_DATA_FILE: opening file data.pkg
(PID.TID 0000.0001) // =======================================================
(PID.TID 0000.0001) // Parameter file "data.pkg"
(PID.TID 0000.0001) // =======================================================
(PID.TID 0000.0001) ># Packages (lines beginning "#" are comments)
(PID.TID 0000.0001) > &PACKAGES
(PID.TID 0000.0001) > useGMRedi=.TRUE.,
(PID.TID 0000.0001) > useDOWN_SLOPE=.TRUE.,
(PID.TID 0000.0001) > usePTRACERS=.TRUE.,
(PID.TID 0000.0001) > useDiagnostics=.TRUE.,
(PID.TID 0000.0001) >#useSBO=.TRUE.,
(PID.TID 0000.0001) >#useMNC=.TRUE.,
(PID.TID 0000.0001) > &
(PID.TID 0000.0001) 
(PID.TID 0000.0001)  PACKAGES_BOOT: finished reading data.pkg
(PID.TID 0000.0001)  GM_READPARMS: opening data.gmredi
(PID.TID 0000.0001)  OPEN_COPY_DATA_FILE: opening file data.gmredi
(PID.TID 0000.0001) // =======================================================
(PID.TID 0000.0001) // Parameter file "data.gmredi"
(PID.TID 0000.0001) // =======================================================
(PID.TID 0000.0001) ># GM+Redi package parameters:
(PID.TID 0000.0001) >
(PID.TID 0000.0001) >#-from MOM :
(PID.TID 0000.0001) ># GM_background_K: 	G & Mc.W  diffusion coefficient
(PID.TID 0000.0001) ># GM_maxSlope    :	max slope of isopycnals
(PID.TID 0000.0001) ># GM_Scrit       :	transition for scaling diffusion coefficient
(PID.TID 0000.0001) ># GM_Sd          :	half width scaling for diffusion coefficient
(PID.TID 0000.0001) ># GM_taper_scheme:	slope clipping or one of the tapering schemes
(PID.TID 0000.0001) ># GM_Kmin_horiz  :	horizontal diffusion minimum value
(PID.TID 0000.0001) >
(PID.TID 0000.0001) >#-Option parameters (needs to "define" options in GMREDI_OPTIONS.h")
(PID.TID 0000.0001) ># GM_isopycK     :	isopycnal diffusion coefficient (default=GM_background_K)
(PID.TID 0000.0001) ># GM_AdvForm     :	turn on GM Advective form       (default=Skew flux form)
(PID.TID 0000.0001) >
(PID.TID 0000.0001) > &GM_PARM01
(PID.TID 0000.0001) >  GM_AdvForm         = .TRUE.,
(PID.TID 0000.0001) >  GM_background_K    = 600.,
(PID.TID 0000.0001) >  GM_isopycK         = 1.e+3,
(PID.TID 0000.0001) >  GM_taper_scheme    = 'gkw91',
(PID.TID 0000.0001) >  GM_maxSlope        = 1.e-2,
(PID.TID 0000.0001) >  GM_Kmin_horiz      = 50.,
(PID.TID 0000.0001) >  GM_Scrit           = 4.e-3,
(PID.TID 0000.0001) >  GM_Sd              = 1.e-3,
(PID.TID 0000.0001) ># GM_Visbeck_alpha   = 0.,
(PID.TID 0000.0001) ># GM_Visbeck_length  = 2.e+5,
(PID.TID 0000.0001) ># GM_Visbeck_depth   = 1.e+3,
(PID.TID 0000.0001) ># GM_Visbeck_maxval_K= 2.5e+3,
(PID.TID 0000.0001) > &
(PID.TID 0000.0001) >
(PID.TID 0000.0001) >
(PID.TID 0000.0001) 
(PID.TID 0000.0001)  GM_READPARMS: finished reading data.gmredi
(PID.TID 0000.0001)  DWNSLP_READPARMS: opening data.down_slope
(PID.TID 0000.0001)  OPEN_COPY_DATA_FILE: opening file data.down_slope
(PID.TID 0000.0001) // =======================================================
(PID.TID 0000.0001) // Parameter file "data.down_slope"
(PID.TID 0000.0001) // =======================================================
(PID.TID 0000.0001) ># DOWN_SLOPE package parameters (lines beginning "#" are comments):
(PID.TID 0000.0001) >#   DWNSLP_slope  :: fixed slope (=0 => use the local slope)
(PID.TID 0000.0001) >#   DWNSLP_rec_mu :: reciprol friction parameter (unit = time scale [s])
(PID.TID 0000.0001) >#         used to compute the flow: U=dy*dz*(slope * g/mu * dRho / rho0)
(PID.TID 0000.0001) >#   dwnslp_drFlow :: max. thickness [m] of the effective downsloping flow layer
(PID.TID 0000.0001) > &DWNSLP_PARM01
(PID.TID 0000.0001) >  DWNSLP_slope = 5.E-3,
(PID.TID 0000.0001) >  DWNSLP_rec_mu= 1.E+4,
(PID.TID 0000.0001) >  DWNSLP_drFlow= 30.,
(PID.TID 0000.0001) ># temp_useDWNSLP=.FALSE.,
(PID.TID 0000.0001) ># salt_useDWNSLP=.FALSE.,
(PID.TID 0000.0001) > &
(PID.TID 0000.0001) 
(PID.TID 0000.0001)  DWNSLP_READPARMS: finished reading data.downslp
(PID.TID 0000.0001) DWNSLP_slope =   /* DOWNSLP fixed slope (=0 => use local slope) */
(PID.TID 0000.0001)                 5.000000000000000E-03
(PID.TID 0000.0001)     ;
(PID.TID 0000.0001) DWNSLP_rec_mu =   /* DOWNSLP recip. friction parameter (time, s ) */
(PID.TID 0000.0001)                 1.000000000000000E+04
(PID.TID 0000.0001)     ;
(PID.TID 0000.0001) DWNSLP_drFlow =   /* DOWNSLP effective layer thickness ( m ) */
(PID.TID 0000.0001)                 3.000000000000000E+01
(PID.TID 0000.0001)     ;
(PID.TID 0000.0001)  PTRACERS_READPARMS: opening data.ptracers
(PID.TID 0000.0001)  OPEN_COPY_DATA_FILE: opening file data.ptracers
(PID.TID 0000.0001) // =======================================================
(PID.TID 0000.0001) // Parameter file "data.ptracers"
(PID.TID 0000.0001) // =======================================================
(PID.TID 0000.0001) ># This set-up makes is supposed to immitate salt. That is, PTRACER(:,:,:,1)
(PID.TID 0000.0001) ># should look exactly like S(:,:,:).
(PID.TID 0000.0001) > &PTRACERS_PARM01
(PID.TID 0000.0001) > PTRACERS_numInUse=1,
(PID.TID 0000.0001) > PTRACERS_Iter0 = 36000,
(PID.TID 0000.0001) >#-- for each tracer
(PID.TID 0000.0001) > PTRACERS_advScheme(1)=2,
(PID.TID 0000.0001) > PTRACERS_diffKh(1)=0.E3,
(PID.TID 0000.0001) > PTRACERS_diffKr(1)=3.E-5,
(PID.TID 0000.0001) >#PTRACERS_useDWNSLP(1)=.FALSE.,
(PID.TID 0000.0001) > PTRACERS_initialFile(1)='lev_s.bin',
(PID.TID 0000.0001) >#EH3 added for MNC
(PID.TID 0000.0001) > PTRACERS_names(1)='salt_mimic',
(PID.TID 0000.0001) > &
(PID.TID 0000.0001) 
(PID.TID 0000.0001)  PTRACERS_READPARMS: finished reading data.ptracers
(PID.TID 0000.0001) // ===================================
(PID.TID 0000.0001) // PTRACERS parameters
(PID.TID 0000.0001) // ===================================
(PID.TID 0000.0001) PTRACERS_numInUse = /* number of tracers */
(PID.TID 0000.0001)                       1
(PID.TID 0000.0001)     ;
(PID.TID 0000.0001) PTRACERS_Iter0 = /* timestep number when tracers are initialized */
(PID.TID 0000.0001)                   36000
(PID.TID 0000.0001)     ;
(PID.TID 0000.0001) PTRACERS_dumpFreq = /* Frequency^-1 for snapshot output (s) */
(PID.TID 0000.0001)                 3.110400000000000E+08
(PID.TID 0000.0001)     ;
(PID.TID 0000.0001) PTRACERS_taveFreq = /* Frequency^-1 for time-Aver. output (s) */
(PID.TID 0000.0001)                 0.000000000000000E+00
(PID.TID 0000.0001)     ;
(PID.TID 0000.0001) PTRACERS_useRecords = /* all tracers in 1 file */
(PID.TID 0000.0001)                   F
(PID.TID 0000.0001)     ;
(PID.TID 0000.0001) PTRACERS_timeave_mnc = /* use MNC for Tave output */
(PID.TID 0000.0001)                   F
(PID.TID 0000.0001)     ;
(PID.TID 0000.0001) PTRACERS_snapshot_mnc = /* use MNC for snapshot output */
(PID.TID 0000.0001)                   F
(PID.TID 0000.0001)     ;
(PID.TID 0000.0001) PTRACERS_pickup_write_mnc = /* use MNC for writing pickups */
(PID.TID 0000.0001)                   F
(PID.TID 0000.0001)     ;
(PID.TID 0000.0001) PTRACERS_pickup_read_mnc = /* use MNC for reading pickups */
(PID.TID 0000.0001)                   F
(PID.TID 0000.0001)     ;
(PID.TID 0000.0001)  -----------------------------------
(PID.TID 0000.0001)  tracer number :    1
(PID.TID 0000.0001) PTRACERS_ioLabel = /* tracer IO Label */
(PID.TID 0000.0001)               '01'
(PID.TID 0000.0001)     ;
(PID.TID 0000.0001) PTRACERS_advScheme = /* Advection Scheme */
(PID.TID 0000.0001)                       2
(PID.TID 0000.0001)     ;
(PID.TID 0000.0001) PTRACERS_ImplVertAdv = /* implicit vert. advection flag */
(PID.TID 0000.0001)                   F
(PID.TID 0000.0001)     ;
(PID.TID 0000.0001) PTRACERS_diffKh = /* Laplacian Diffusivity */
(PID.TID 0000.0001)                 0.000000000000000E+00
(PID.TID 0000.0001)     ;
(PID.TID 0000.0001) PTRACERS_diffK4 = /* Biharmonic Diffusivity */
(PID.TID 0000.0001)                 0.000000000000000E+00
(PID.TID 0000.0001)     ;
(PID.TID 0000.0001) PTRACERS_diffKrNr = /* Vertical Diffusivity */
(PID.TID 0000.0001)    15 @  3.000000000000000E-05              /* K =  1: 15 */
(PID.TID 0000.0001)     ;
(PID.TID 0000.0001) PTRACERS_useGMRedi = /* apply GM-Redi */
(PID.TID 0000.0001)                   T
(PID.TID 0000.0001)     ;
(PID.TID 0000.0001) PTRACERS_useDWNSLP = /* apply DOWN-SLOPE Flow */
(PID.TID 0000.0001)                   T
(PID.TID 0000.0001)     ;
(PID.TID 0000.0001) PTRACERS_useKPP = /* apply KPP scheme */
(PID.TID 0000.0001)                   F
(PID.TID 0000.0001)     ;
(PID.TID 0000.0001) PTRACERS_ref = /* Reference vertical profile */
(PID.TID 0000.0001)    15 @  0.000000000000000E+00              /* K =  1: 15 */
(PID.TID 0000.0001)     ;
(PID.TID 0000.0001) PTRACERS_EvPrRn =/* tracer conc. in Evap. & Rain */
(PID.TID 0000.0001)                 1.234567000000000E+05
(PID.TID 0000.0001)     ;
(PID.TID 0000.0001)  -----------------------------------
(PID.TID 0000.0001)  DIAGNOSTICS_READPARMS: opening data.diagnostics
(PID.TID 0000.0001)  OPEN_COPY_DATA_FILE: opening file data.diagnostics
(PID.TID 0000.0001) // =======================================================
(PID.TID 0000.0001) // Parameter file "data.diagnostics"
(PID.TID 0000.0001) // =======================================================
(PID.TID 0000.0001) ># Diagnostic Package Choices
(PID.TID 0000.0001) >#-----------------
(PID.TID 0000.0001) ># for each output-stream:
(PID.TID 0000.0001) >#  filename(n) : prefix of the output file name (only 8.c long) for outp.stream n
(PID.TID 0000.0001) >#  frequency(n):< 0 : write snap-shot output every |frequency| seconds
(PID.TID 0000.0001) >#               > 0 : write time-average output every frequency seconds
(PID.TID 0000.0001) >#  timePhase(n)     : write at time = timePhase + multiple of |frequency|
(PID.TID 0000.0001) >#  levels(:,n) : list of levels to write to file (Notes: declared as REAL)
(PID.TID 0000.0001) >#                 when this entry is missing, select all common levels of this list
(PID.TID 0000.0001) >#  fields(:,n) : list of diagnostics fields (8.c) (see "available_diagnostics.log"
(PID.TID 0000.0001) >#                 file for the list of all available diag. in this particular config)
(PID.TID 0000.0001) >#-----------------
(PID.TID 0000.0001) > &diagnostics_list
(PID.TID 0000.0001) ># diag_mnc     = .FALSE.,
(PID.TID 0000.0001) ># frequency(1) = 311040000.,
(PID.TID 0000.0001) >  frequency(1) = 864000.,
(PID.TID 0000.0001) >   filename(1) = 'surfDiag',
(PID.TID 0000.0001) >   fields(1,1) = 'ETAN    ','ETANSQ  ','DETADT2 ',
(PID.TID 0000.0001) >                 'PHIBOT  ','PHIBOTSQ',
(PID.TID 0000.0001) >                 'DSLPuFlw','DSLPvFlw',
(PID.TID 0000.0001) ># frequency(2) = 311040000.,
(PID.TID 0000.0001) >  frequency(2) = 864000.,
(PID.TID 0000.0001) >   filename(2) = 'dynDiag',
(PID.TID 0000.0001) ># do not specify levels => all levels are selected
(PID.TID 0000.0001) >   fields(1,2) = 'UVELMASS','VVELMASS','WVEL    ',
(PID.TID 0000.0001) >#                'UVEL    ','VVEL    ','PHIHYD  ',
(PID.TID 0000.0001) >                 'THETA   ','SALT    ','WVELSQ  ',
(PID.TID 0000.0001) ># frequency(3) = 311040000.,
(PID.TID 0000.0001) >  frequency(3) = 864000.,
(PID.TID 0000.0001) >   filename(3) = 'oceDiag',
(PID.TID 0000.0001) >   fields(1,3) = 'RHOAnoma','DRHODR  ','CONVADJ ',
(PID.TID 0000.0001) >                 'GM_PsiX ','GM_PsiY ',
(PID.TID 0000.0001) >#                'GM_Kwx  ','GM_Kwy  ','GM_Kwz  ',
(PID.TID 0000.0001) >#                'GM_Kux  ','GM_Kvy  ',
(PID.TID 0000.0001) >#                'GM_Kuz  ','GM_Kvz  ',
(PID.TID 0000.0001) >                 'DSLP_TH ','DSLP_SLT',
(PID.TID 0000.0001) > &
(PID.TID 0000.0001) >
(PID.TID 0000.0001) ># Parameter for Diagnostics of per level statistics:
(PID.TID 0000.0001) >#-----------------
(PID.TID 0000.0001) ># for each output-stream:
(PID.TID 0000.0001) >#  stat_fname(n) : prefix of the output file name (only 8.c long) for outp.stream n
(PID.TID 0000.0001) >#  stat_freq(n):< 0 : write snap-shot output every |stat_freq| seconds
(PID.TID 0000.0001) >#               > 0 : write time-average output every stat_freq seconds
(PID.TID 0000.0001) >#  stat_phase(n)    : write at time = stat_phase + multiple of |stat_freq|
(PID.TID 0000.0001) >#  stat_region(:,n) : list of "regions" (default: 1 region only=global)
(PID.TID 0000.0001) >#  stat_fields(:,n) : list of diagnostics fields (8.c) (see "available_diagnostics.log"
(PID.TID 0000.0001) >#                 file for the list of all available diag. in this particular config)
(PID.TID 0000.0001) >#-----------------
(PID.TID 0000.0001) > &DIAG_STATIS_PARMS
(PID.TID 0000.0001) >#diagSt_mnc = .FALSE.,
(PID.TID 0000.0001) > stat_fields(1,1)= 'ETAN    ','ETANSQ  ','DETADT2 ',
(PID.TID 0000.0001) >                   'UVEL    ','VVEL    ','WVEL    ',
(PID.TID 0000.0001) >                   'THETA   ','SALT    ','WVELSQ  ',
(PID.TID 0000.0001) >    stat_fname(1)= 'dynStDiag',
(PID.TID 0000.0001) >#   stat_phase(1)= 60.,
(PID.TID 0000.0001) >#    stat_freq(1)= 2592000.,
(PID.TID 0000.0001) >     stat_freq(2)= 432000.,
(PID.TID 0000.0001) > stat_fields(1,2)= 'RHOAnoma','DRHODR  ','CONVADJ ',
(PID.TID 0000.0001) >                   'DSLPuFlw','DSLPvFlw',
(PID.TID 0000.0001) >                   'DSLP_TH ','DSLP_SLT',
(PID.TID 0000.0001) >                   'DSLPTr01',
(PID.TID 0000.0001) >    stat_fname(2)= 'oceStDiag',
(PID.TID 0000.0001) >     stat_freq(2)= 2592000.,
(PID.TID 0000.0001) > &
(PID.TID 0000.0001) >
(PID.TID 0000.0001) 
(PID.TID 0000.0001) S/R DIAGNOSTICS_READPARMS, read namelist "diagnostics_list": start
(PID.TID 0000.0001) S/R DIAGNOSTICS_READPARMS, read namelist "diagnostics_list": OK
(PID.TID 0000.0001) S/R DIAGNOSTICS_READPARMS, read namelist "DIAG_STATIS_PARMS": start
(PID.TID 0000.0001) S/R DIAGNOSTICS_READPARMS, read namelist "DIAG_STATIS_PARMS": OK
(PID.TID 0000.0001) -----------------------------------------------------
(PID.TID 0000.0001)  DIAGNOSTICS_READPARMS: active diagnostics summary:
(PID.TID 0000.0001) -----------------------------------------------------
(PID.TID 0000.0001) Creating Output Stream: surfDiag
(PID.TID 0000.0001) Output Frequency:     864000.000000 ; Phase:           0.000000
(PID.TID 0000.0001)  Averaging Freq.:     864000.000000 , Phase:           0.000000 , Cycle:   1
(PID.TID 0000.0001)  missing value:  1.234567000000E+05 ; for integers:   123456789
(PID.TID 0000.0001)  Levels:    will be set later
(PID.TID 0000.0001)  Fields:    ETAN     ETANSQ   DETADT2  PHIBOT   PHIBOTSQ DSLPuFlw DSLPvFlw
(PID.TID 0000.0001) Creating Output Stream: dynDiag
(PID.TID 0000.0001) Output Frequency:     864000.000000 ; Phase:           0.000000
(PID.TID 0000.0001)  Averaging Freq.:     864000.000000 , Phase:           0.000000 , Cycle:   1
(PID.TID 0000.0001)  missing value:  1.234567000000E+05 ; for integers:   123456789
(PID.TID 0000.0001)  Levels:    will be set later
(PID.TID 0000.0001)  Fields:    UVELMASS VVELMASS WVEL     THETA    SALT     WVELSQ
(PID.TID 0000.0001) Creating Output Stream: oceDiag
(PID.TID 0000.0001) Output Frequency:     864000.000000 ; Phase:           0.000000
(PID.TID 0000.0001)  Averaging Freq.:     864000.000000 , Phase:           0.000000 , Cycle:   1
(PID.TID 0000.0001)  missing value:  1.234567000000E+05 ; for integers:   123456789
(PID.TID 0000.0001)  Levels:    will be set later
(PID.TID 0000.0001)  Fields:    RHOAnoma DRHODR   CONVADJ  GM_PsiX  GM_PsiY  DSLP_TH  DSLP_SLT
(PID.TID 0000.0001) -----------------------------------------------------
(PID.TID 0000.0001)  DIAGNOSTICS_READPARMS: statistics diags. summary:
(PID.TID 0000.0001) Creating Stats. Output Stream: dynStDiag
(PID.TID 0000.0001) Output Frequency:          0.000000 ; Phase:           0.000000
(PID.TID 0000.0001)  Regions:   0
(PID.TID 0000.0001)  Fields:    ETAN     ETANSQ   DETADT2  UVEL     VVEL     WVEL     THETA    SALT     WVELSQ
(PID.TID 0000.0001) Creating Stats. Output Stream: oceStDiag
(PID.TID 0000.0001) Output Frequency:    2592000.000000 ; Phase:           0.000000
(PID.TID 0000.0001)  Regions:   0
(PID.TID 0000.0001)  Fields:    RHOAnoma DRHODR   CONVADJ  DSLPuFlw DSLPvFlw DSLP_TH  DSLP_SLT DSLPTr01
(PID.TID 0000.0001) -----------------------------------------------------
(PID.TID 0000.0001) 
(PID.TID 0000.0001) SET_PARMS: done
(PID.TID 0000.0001) Enter INI_VERTICAL_GRID: setInterFDr=    T ; setCenterDr=    F
(PID.TID 0000.0001) %MON XC_max                       =   3.5800000000000E+02
(PID.TID 0000.0001) %MON XC_min                       =   2.0000000000000E+00
(PID.TID 0000.0001) %MON XC_mean                      =   1.8000000000000E+02
(PID.TID 0000.0001) %MON XC_sd                        =   1.0391663325314E+02
(PID.TID 0000.0001) %MON XG_max                       =   3.5600000000000E+02
(PID.TID 0000.0001) %MON XG_min                       =   0.0000000000000E+00
(PID.TID 0000.0001) %MON XG_mean                      =   1.7800000000000E+02
(PID.TID 0000.0001) %MON XG_sd                        =   1.0391663325314E+02
(PID.TID 0000.0001) %MON DXC_max                      =   4.4443898815675E+05
(PID.TID 0000.0001) %MON DXC_min                      =   9.2460385861875E+04
(PID.TID 0000.0001) %MON DXC_mean                     =   3.1372497618153E+05
(PID.TID 0000.0001) %MON DXC_sd                       =   1.1216447457560E+05
(PID.TID 0000.0001) %MON DXF_max                      =   4.4443898815675E+05
(PID.TID 0000.0001) %MON DXF_min                      =   9.2460385861875E+04
(PID.TID 0000.0001) %MON DXF_mean                     =   3.1372497618153E+05
(PID.TID 0000.0001) %MON DXF_sd                       =   1.1216447457560E+05
(PID.TID 0000.0001) %MON DXG_max                      =   4.4470989340816E+05
(PID.TID 0000.0001) %MON DXG_min                      =   7.7223062580781E+04
(PID.TID 0000.0001) %MON DXG_mean                     =   3.1353386340261E+05
(PID.TID 0000.0001) %MON DXG_sd                       =   1.1256651772502E+05
(PID.TID 0000.0001) %MON DXV_max                      =   4.4470989340816E+05
(PID.TID 0000.0001) %MON DXV_min                      =   7.7223062580781E+04
(PID.TID 0000.0001) %MON DXV_mean                     =   3.1353386340261E+05
(PID.TID 0000.0001) %MON DXV_sd                       =   1.1256651772502E+05
(PID.TID 0000.0001) %MON YC_max                       =   7.8000000000000E+01
(PID.TID 0000.0001) %MON YC_min                       =  -7.8000000000000E+01
(PID.TID 0000.0001) %MON YC_mean                      =   0.0000000000000E+00
(PID.TID 0000.0001) %MON YC_sd                        =   4.6173585522461E+01
(PID.TID 0000.0001) %MON YG_max                       =   7.6000000000000E+01
(PID.TID 0000.0001) %MON YG_min                       =  -8.0000000000000E+01
(PID.TID 0000.0001) %MON YG_mean                      =  -2.0000000000000E+00
(PID.TID 0000.0001) %MON YG_sd                        =   4.6173585522461E+01
(PID.TID 0000.0001) %MON DYC_max                      =   4.4470989340816E+05
(PID.TID 0000.0001) %MON DYC_min                      =   4.4470989340816E+05
(PID.TID 0000.0001) %MON DYC_mean                     =   4.4470989340816E+05
(PID.TID 0000.0001) %MON DYC_sd                       =   5.2968971431255E-09
(PID.TID 0000.0001) %MON DYF_max                      =   4.4470989340816E+05
(PID.TID 0000.0001) %MON DYF_min                      =   4.4470989340816E+05
(PID.TID 0000.0001) %MON DYF_mean                     =   4.4470989340816E+05
(PID.TID 0000.0001) %MON DYF_sd                       =   5.2968971431255E-09
(PID.TID 0000.0001) %MON DYG_max                      =   4.4470989340816E+05
(PID.TID 0000.0001) %MON DYG_min                      =   4.4470989340816E+05
(PID.TID 0000.0001) %MON DYG_mean                     =   4.4470989340816E+05
(PID.TID 0000.0001) %MON DYG_sd                       =   5.2968971431255E-09
(PID.TID 0000.0001) %MON DYU_max                      =   4.4470989340816E+05
(PID.TID 0000.0001) %MON DYU_min                      =   4.4470989340816E+05
(PID.TID 0000.0001) %MON DYU_mean                     =   4.4470989340816E+05
(PID.TID 0000.0001) %MON DYU_sd                       =   5.2968971431255E-09
(PID.TID 0000.0001) %MON RA_max                       =   1.9760627980089E+11
(PID.TID 0000.0001) %MON RA_min                       =   4.1109698667290E+10
(PID.TID 0000.0001) %MON RA_mean                      =   1.3948826965196E+11
(PID.TID 0000.0001) %MON RA_sd                        =   4.9870522472902E+10
(PID.TID 0000.0001) %MON RAW_max                      =   1.9760627980089E+11
(PID.TID 0000.0001) %MON RAW_min                      =   4.1109698667290E+10
(PID.TID 0000.0001) %MON RAW_mean                     =   1.3948826965196E+11
(PID.TID 0000.0001) %MON RAW_sd                       =   4.9870522472902E+10
(PID.TID 0000.0001) %MON RAS_max                      =   1.9772672958215E+11
(PID.TID 0000.0001) %MON RAS_min                      =   3.4334886267983E+10
(PID.TID 0000.0001) %MON RAS_mean                     =   1.3940329716694E+11
(PID.TID 0000.0001) %MON RAS_sd                       =   5.0049278732353E+10
(PID.TID 0000.0001) %MON RAZ_max                      =   1.9772672958215E+11
(PID.TID 0000.0001) %MON RAZ_min                      =   3.4334886267983E+10
(PID.TID 0000.0001) %MON RAZ_mean                     =   1.3940329716694E+11
(PID.TID 0000.0001) %MON RAZ_sd                       =   5.0049278732353E+10
(PID.TID 0000.0001) %MON AngleCS_max                  =   1.0000000000000E+00
(PID.TID 0000.0001) %MON AngleCS_min                  =   1.0000000000000E+00
(PID.TID 0000.0001) %MON AngleCS_mean                 =   1.0000000000000E+00
(PID.TID 0000.0001) %MON AngleCS_sd                   =   0.0000000000000E+00
(PID.TID 0000.0001) %MON AngleSN_max                  =   0.0000000000000E+00
(PID.TID 0000.0001) %MON AngleSN_min                  =   0.0000000000000E+00
(PID.TID 0000.0001) %MON AngleSN_mean                 =   0.0000000000000E+00
(PID.TID 0000.0001) %MON AngleSN_sd                   =   0.0000000000000E+00
(PID.TID 0000.0001)  MDS_READ_FIELD: opening global file: bathymetry.bin
(PID.TID 0000.0001) // =======================================================
(PID.TID 0000.0001) // Field Model R_low (ini_masks_etc) at iteration          1
(PID.TID 0000.0001) // CMIN =         -5.200000000000000E+03
(PID.TID 0000.0001) // CMAX =         -1.200000000000000E+02
(PID.TID 0000.0001) // CINT =          1.881481481481482E+02
(PID.TID 0000.0001) // SYMBOLS (CMIN->CMAX): -abcdefghijklmnopqrstuvwxyz+
(PID.TID 0000.0001) //                  0.0: .
(PID.TID 0000.0001) // RANGE I (Lo:Hi:Step):(  -1:  92:   1)
(PID.TID 0000.0001) // RANGE J (Lo:Hi:Step):(  42:  -1:  -1)
(PID.TID 0000.0001) // RANGE K (Lo:Hi:Step):(   1:   1:   1)
(PID.TID 0000.0001) // =======================================================
(PID.TID 0000.0001) K =   1
(PID.TID 0000.0001) //                I=8       I=18      I=28      I=38      I=44      I=54      I=64      I=74      I=84
(PID.TID 0000.0001) // |--J--|101234567|901234567|901234567|901234567|901234567|567890123|567890123|567890123|567890123|56789012
(PID.TID 0000.0001) //     42 ............................................zyxxmyxxmgfeeefefgimnpwwwy..+zyy.....yyyyoiiihhz+.....
(PID.TID 0000.0001) //     41 ..................................................................................................
(PID.TID 0000.0001) //     40 qlloqz+.++++zzz++++++......................................................................+++qllo
(PID.TID 0000.0001) //     39 slloorzzzzzzzzz+...++.........................................................yxxz........+zvusllo
(PID.TID 0000.0001) //     38 mqpporzzzzzz+++...............................................................zxxy+......zyyvsmqpp
(PID.TID 0000.0001) //     37 mmmuz......................................................................++...zy+...yttyy.+smmmu
(PID.TID 0000.0001) //     36 utt+.........................................mm++mm++....................+++++++znmm.yoowssvuyutt+
(PID.TID 0000.0001) //     35 ++++.................................+zzz..rrmmkkmmkk+...+gghn...........+++....+nmiijlsoopuww++++
(PID.TID 0000.0001) //     34 .....................................+vvy.ggqyxv+yxv+y.ccdffhim..................+nihhikkihhm+....
(PID.TID 0000.0001) //     33 +.....................................uuz---h----------aaabdefin+.................zqvddflifffw+...
(PID.TID 0000.0001) //     32 +.....................................+t----h-------------acdfgnn................+++gdffkofffm+...
(PID.TID 0000.0001) //     31 ......................................-----ad------------abddegil..............qbaafccdhqqgddm....
(PID.TID 0000.0001) //     30 .....................................f----b--b---b------------abd............zfbb--fbcdosjfddi....
(PID.TID 0000.0001) //     29 ...................................tu----e---fjg-fjg----------abdf...........eaac--abfmijaadgi....
(PID.TID 0000.0001) //     28 .................................+xfl-----------------------bdedefi.........qbaa---aemfbbaaejz....
(PID.TID 0000.0001) //     27 ................xx..............+wfgfpf--------ea--eallc---bbbccefgi...+++x.qb-----akfa---ah......
(PID.TID 0000.0001) //     26 ................xnn...........+vd---dna------a--aa--aicfna---aabdfghku.++xssuy-----bgca---ci......
(PID.TID 0000.0001) //     25 ................iiik...oo+...+ivd---doaa-bc--ilglilglf--aa---aabcghhkll...ssum+xaaacjbaabdjk......
(PID.TID 0000.0001) //     24 ..............xnheeft.kkk+...uii.aagdm----aa---------a-------bbbcdefjljjju.zummwwbbchba--abi......
(PID.TID 0000.0001) //     23 ..............xgheefp.iikw...uuw..fihi----fed---------eaaa--bbbbcdfflkjiiiq....zykccefa--abd......
(PID.TID 0000.0001) //     22 uss...........bbelffslffkk...zz.wqkeeqoheccdfa---a-----egabaabcdddegghliiiqq......xeeehheehccquss.
(PID.TID 0000.0001) //     21 bbeir........nbbcdjhqdddiiz.....wqfeelgghmedea---a-----bibbcddddddefghklnqoo........ieeflhgcccbbei
(PID.TID 0000.0001) //     20 bbder.......ldcccdgkccccidd......z.vkkktqqhegg---g----aaacddddddddefghkiiijl.........nhfa--gfcbbde
(PID.TID 0000.0001) //     19 cdaaf.......kddosggpaaaibbccx...+z+.....r+nlec---c---agaaabcddccddefikfgffff...........d---cjhcdaa
(PID.TID 0000.0001) //     22 uss...........bbelffslffkk...zz.wqkeeqoheccdfa---a-----egabaabcdddegghliiiqq......xeeehheehccquss.
(PID.TID 0000.0001) //     21 bbeir........nbbcdjhqdddiiz.....wqfeelgghmedea---a-----bibbcddddddefghklnqoo........ieeflhgcccbbei
(PID.TID 0000.0001) //     20 bbder.......ldcccdgkccccidd......z.vkkktqqhegg---g----aaacddddddddefghkiiijl.........nhfa--gfcbbde
(PID.TID 0000.0001) //     19 cdaaf.......kddosggpaaaibbccx...+z+.....r+nlec---c---agaaabcddccddefikfgffff...........d---cjhcdaa
(PID.TID 0000.0001) //     18 d---d.......kglggvliaaaibbcaaeaiv++...qqzolhecccfcccfdgkaabcdfccdeeikgfgffdd+..........d---djhd---
(PID.TID 0000.0001) //     17 c---c.......l.feewlfaaaoaa----aiv.....qqnllslmlofmlofcdbaacceffffhhligfigeddj.........hd---ckhc---
(PID.TID 0000.0001) //     16 ba--c......tn.ddgnlfdaaqa-----lv.......vnllvllnwvlnwv--accivomfffhilhgfffeddjf........re--aeigba--
(PID.TID 0000.0001) //     15 b--dpz....+ll.ccdfhmdddlc----av.........otsxoomv-omv---abccddfihgijkhgfffeejfff......+fd---ckfb--d
(PID.TID 0000.0001) //     14 c--mcl....weeqbaafilkfend--eagy.........hhstofft-fft----aacdheefijkmjhhjijiffff.....zlfdaaadlfc--m
(PID.TID 0000.0001) //     13 cclbbg....nccobaaiddgkffqrqeaal.........eeutqfft-fft------aaceeffhijlkjhhigfffq....+jgfodccflhcclb
(PID.TID 0000.0001) //     12 hgaaacw+iiicclemhdddfliigfdcaabfaaaz....ccsurqpc-qpc--------abcifffikiiihhggff.....kbbbdfffglhhgaa
(PID.TID 0000.0001) //     11 gcaaacbbifccennhbbdefnihgfdccaaaa----..dcccnt.nca.ncab-------aabcdfilhggjiggff....l---abcefjlkgcaa
(PID.TID 0000.0001) //     10 fcaaccbdaacfrllfbbdegkmmljhfdddba----d.dcccfx.nyr.nyrebaba----abcdgilhfeegijgi..+w--aa-abcfilkfcaa
(PID.TID 0000.0001) //      9 ffcdcccaaaoqsolfdeehikihhlllgfedcccccdmdcccf.vyfavyfaaaaaaaa--abdehmjhfeeefglv.++w-----abcdfklffcd
(PID.TID 0000.0001) //      8 iffjklcaafddffeeccvznkfffhhhlkjifgjkkfeeddfsyvcaavcaaaaaaccdcccdfgjligedbbceg+.++xffn--cfddefliffj
(PID.TID 0000.0001) //      7 mqnnbbkkf--bmbaabbgtykfddeffeeddccdfhlffeelfbaaaaaaaaaacddeghgjgjlligeddaaabedfiiiiiisvkfkecchmqnn
(PID.TID 0000.0001) //      6 ca-------------aabcelttdddedddddccccdfkkiiffbaaaaaaaabcdgimmkmefecaaabbbaaabbdfiiiiispmmregifcca--
(PID.TID 0000.0001) //      5 -------a-------aaccehhhiddeddddddcccdfiikomodddefddefffmlmigedccaaaaaaaababbbdfiijsqgeccccbaa-----
(PID.TID 0000.0001) //      4 -ahebaabbbbbeihffgijiiiijpywnnpokkomkiiijmmmolkomlkommmgffeeedccaaaaaabbcccefhmz..yjgeccccbaa--ahe
(PID.TID 0000.0001) //      3 ffhhrpjiiwyy............................yxotmjjjjjjjjgfeeeeeeddeffffheddeghjkyy..yqjgeddccdbbgffhh
(PID.TID 0000.0001) //      2 ............................................zyxxmyxxmgfeeefefgimnpwwwy..+zyy.....yyyyoiiihhz+.....
(PID.TID 0000.0001) //      1 ..................................................................................................
(PID.TID 0000.0001) //      0 qlloqz+.++++zzz++++++......................................................................+++qllo
(PID.TID 0000.0001) //     -1 slloorzzzzzzzzz+...++.........................................................yxxz........+zvusllo
(PID.TID 0000.0001) // =======================================================
(PID.TID 0000.0001) // END OF FIELD                                          =
(PID.TID 0000.0001) // =======================================================
(PID.TID 0000.0001) 
(PID.TID 0000.0001) // =======================================================
(PID.TID 0000.0001) // Field Model Ro_surf (ini_masks_etc) at iteration          1
(PID.TID 0000.0001) // CMIN =          1.000000000000000E+32
(PID.TID 0000.0001) // CMAX =         -1.000000000000000E+32
(PID.TID 0000.0001) // CINT =          0.000000000000000E+00
(PID.TID 0000.0001) // SYMBOLS (CMIN->CMAX): -abcdefghijklmnopqrstuvwxyz+
(PID.TID 0000.0001) //                  0.0: .
(PID.TID 0000.0001) // RANGE I (Lo:Hi:Step):(  -1:  92:   1)
(PID.TID 0000.0001) // RANGE J (Lo:Hi:Step):(  42:  -1:  -1)
(PID.TID 0000.0001) // RANGE K (Lo:Hi:Step):(   1:   1:   1)
(PID.TID 0000.0001) // =======================================================
(PID.TID 0000.0001) // =======================================================
(PID.TID 0000.0001) // END OF FIELD                                          =
(PID.TID 0000.0001) // =======================================================
(PID.TID 0000.0001) 
(PID.TID 0000.0001) // =======================================================
(PID.TID 0000.0001) // Field hFacC at iteration          1
(PID.TID 0000.0001) // CMIN =          1.000000000000000E+00
(PID.TID 0000.0001) // CMAX =          1.000000000000000E+00
(PID.TID 0000.0001) // CINT =          0.000000000000000E+00
(PID.TID 0000.0001) // SYMBOLS (CMIN->CMAX): -abcdefghijklmnopqrstuvwxyz+
(PID.TID 0000.0001) //                  0.0: .
(PID.TID 0000.0001) // RANGE I (Lo:Hi:Step):(  -1:  92:   1)
(PID.TID 0000.0001) // RANGE J (Lo:Hi:Step):(  42:  -1:  -1)
(PID.TID 0000.0001) // RANGE K (Lo:Hi:Step):(   1:   1:   1)
(PID.TID 0000.0001) // =======================================================
(PID.TID 0000.0001) // =======================================================
(PID.TID 0000.0001) // END OF FIELD                                          =
(PID.TID 0000.0001) // =======================================================
(PID.TID 0000.0001) 
(PID.TID 0000.0001) // =======================================================
(PID.TID 0000.0001) // Field hFacW at iteration          1
(PID.TID 0000.0001) // CMIN =          1.000000000000000E+00
(PID.TID 0000.0001) // CMAX =          1.000000000000000E+00
(PID.TID 0000.0001) // CINT =          0.000000000000000E+00
(PID.TID 0000.0001) // SYMBOLS (CMIN->CMAX): -abcdefghijklmnopqrstuvwxyz+
(PID.TID 0000.0001) //                  0.0: .
(PID.TID 0000.0001) // RANGE I (Lo:Hi:Step):(  -1:  92:   1)
(PID.TID 0000.0001) // RANGE J (Lo:Hi:Step):(  42:  -1:  -1)
(PID.TID 0000.0001) // RANGE K (Lo:Hi:Step):(   1:   1:   1)
(PID.TID 0000.0001) // =======================================================
(PID.TID 0000.0001) // =======================================================
(PID.TID 0000.0001) // END OF FIELD                                          =
(PID.TID 0000.0001) // =======================================================
(PID.TID 0000.0001) 
(PID.TID 0000.0001) // =======================================================
(PID.TID 0000.0001) // Field hFacS at iteration          1
(PID.TID 0000.0001) // CMIN =          1.000000000000000E+00
(PID.TID 0000.0001) // CMAX =          1.000000000000000E+00
(PID.TID 0000.0001) // CINT =          0.000000000000000E+00
(PID.TID 0000.0001) // SYMBOLS (CMIN->CMAX): -abcdefghijklmnopqrstuvwxyz+
(PID.TID 0000.0001) //                  0.0: .
(PID.TID 0000.0001) // RANGE I (Lo:Hi:Step):(  -1:  92:   1)
(PID.TID 0000.0001) // RANGE J (Lo:Hi:Step):(  42:  -1:  -1)
(PID.TID 0000.0001) // RANGE K (Lo:Hi:Step):(   1:   1:   1)
(PID.TID 0000.0001) // =======================================================
(PID.TID 0000.0001) // =======================================================
(PID.TID 0000.0001) // END OF FIELD                                          =
(PID.TID 0000.0001) // =======================================================
(PID.TID 0000.0001) 
(PID.TID 0000.0001) 
(PID.TID 0000.0001) // ===================================
(PID.TID 0000.0001) // GAD parameters :
(PID.TID 0000.0001) // ===================================
(PID.TID 0000.0001) tempAdvScheme =   /* Temp. Horiz.Advection scheme selector */
(PID.TID 0000.0001)                       2
(PID.TID 0000.0001)     ;
(PID.TID 0000.0001) tempVertAdvScheme =   /* Temp. Vert. Advection scheme selector */
(PID.TID 0000.0001)                       2
(PID.TID 0000.0001)     ;
(PID.TID 0000.0001) tempMultiDimAdvec =   /* use Muti-Dim Advec method for Temp */
(PID.TID 0000.0001)                   F
(PID.TID 0000.0001)     ;
(PID.TID 0000.0001) tempSOM_Advection = /* use 2nd Order Moment Advection for Temp */
(PID.TID 0000.0001)                   F
(PID.TID 0000.0001)     ;
(PID.TID 0000.0001) AdamsBashforthGt = /* apply Adams-Bashforth extrapolation on Gt */
(PID.TID 0000.0001)                   T
(PID.TID 0000.0001)     ;
(PID.TID 0000.0001) AdamsBashforth_T = /* apply Adams-Bashforth extrapolation on Temp */
(PID.TID 0000.0001)                   F
(PID.TID 0000.0001)     ;
(PID.TID 0000.0001) saltAdvScheme =   /* Salt. Horiz.advection scheme selector */
(PID.TID 0000.0001)                       2
(PID.TID 0000.0001)     ;
(PID.TID 0000.0001) saltVertAdvScheme =   /* Salt. Vert. Advection scheme selector */
(PID.TID 0000.0001)                       2
(PID.TID 0000.0001)     ;
(PID.TID 0000.0001) saltMultiDimAdvec =   /* use Muti-Dim Advec method for Salt */
(PID.TID 0000.0001)                   F
(PID.TID 0000.0001)     ;
(PID.TID 0000.0001) saltSOM_Advection = /* use 2nd Order Moment Advection for Salt */
(PID.TID 0000.0001)                   F
(PID.TID 0000.0001)     ;
(PID.TID 0000.0001) AdamsBashforthGs = /* apply Adams-Bashforth extrapolation on Gs */
(PID.TID 0000.0001)                   T
(PID.TID 0000.0001)     ;
(PID.TID 0000.0001) AdamsBashforth_S = /* apply Adams-Bashforth extrapolation on Salt */
(PID.TID 0000.0001)                   F
(PID.TID 0000.0001)     ;
(PID.TID 0000.0001) // ===================================
(PID.TID 0000.0001) DWNSLP_INIT: DWNSLP_NbSite=   1   1     681
(PID.TID 0000.0001) DWNSLP_INIT: DWNSLP_NbSite=   2   1     634
(PID.TID 0000.0001) DWNSLP_INIT: DWNSLP_NbSite=   1   2     281
(PID.TID 0000.0001) DWNSLP_INIT: DWNSLP_NbSite=   2   2     463
(PID.TID 0000.0001) PTRACERS_INIT_FIXED: PTRACERS_SOM_Advection(   1) =     F
(PID.TID 0000.0001) ------------------------------------------------------------
(PID.TID 0000.0001) DIAGNOSTICS_SET_LEVELS: done
(PID.TID 0000.0001)  Total Nb of available Diagnostics: ndiagt=   203
(PID.TID 0000.0001)  write list of available Diagnostics to file: available_diagnostics.log
(PID.TID 0000.0001) SETDIAG: Allocate  1 x  1 Levels for Diagnostic #    23 ETAN
(PID.TID 0000.0001) SETDIAG: Allocate  1 x  1 Levels for Diagnostic #    24 ETANSQ
(PID.TID 0000.0001) SETDIAG: Allocate  1 x  1 Levels for Diagnostic #    25 DETADT2
(PID.TID 0000.0001) SETDIAG: Allocate  1 x  1 Levels for Diagnostic #    69 PHIBOT
(PID.TID 0000.0001) SETDIAG: Allocate  1 x  1 Levels for Diagnostic #    70 PHIBOTSQ
(PID.TID 0000.0001) SETDIAG: Allocate  1 x  1 Levels for Diagnostic #   188 DSLPuFlw
(PID.TID 0000.0001) SETDIAG: Allocate  1 x  1 Levels for Diagnostic #   189 DSLPvFlw
(PID.TID 0000.0001) SETDIAG: Allocate 15 x  1 Levels for Diagnostic #    45 UVELMASS
(PID.TID 0000.0001) SETDIAG: Allocate 15 x  1 Levels for Diagnostic #    46 VVELMASS
(PID.TID 0000.0001) SETDIAG: Allocate 15 x  1 Levels for Diagnostic #    32 WVEL
(PID.TID 0000.0001) SETDIAG: Allocate 15 x  1 Levels for Diagnostic #    26 THETA
(PID.TID 0000.0001) SETDIAG: Allocate 15 x  1 Levels for Diagnostic #    27 SALT
(PID.TID 0000.0001) SETDIAG: Allocate 15 x  1 Levels for Diagnostic #    38 WVELSQ
(PID.TID 0000.0001) SETDIAG: Allocate 15 x  1 Levels for Diagnostic #    62 RHOAnoma
(PID.TID 0000.0001) SETDIAG: Allocate 15 x  1 Levels for Diagnostic #    72 DRHODR
(PID.TID 0000.0001) SETDIAG: Allocate 15 x  1 Levels for Diagnostic #    73 CONVADJ
(PID.TID 0000.0001) SETDIAG: Allocate 15 x  1 Levels for Diagnostic #   182 GM_PsiX
(PID.TID 0000.0001) SETDIAG: Allocate 15 x  1 Levels for Diagnostic #   183 GM_PsiY
(PID.TID 0000.0001) SETDIAG: Allocate 15 x  1 Levels for Diagnostic #   190 DSLP_TH
(PID.TID 0000.0001) SETDIAG: Allocate 15 x  1 Levels for Diagnostic #   191 DSLP_SLT
(PID.TID 0000.0001)   space allocated for all diagnostics:     202 levels
(PID.TID 0000.0001)   set mate pointer for diag #   188  DSLPuFlw , Parms: UU      M1 , mate:   189
(PID.TID 0000.0001)   set mate pointer for diag #   189  DSLPvFlw , Parms: VV      M1 , mate:   188
(PID.TID 0000.0001)   set mate pointer for diag #    45  UVELMASS , Parms: UU      MR , mate:    46
(PID.TID 0000.0001)   set mate pointer for diag #    46  VVELMASS , Parms: VV      MR , mate:    45
(PID.TID 0000.0001)   set mate pointer for diag #   182  GM_PsiX  , Parms: UU   183LR , mate:   183
(PID.TID 0000.0001)   set mate pointer for diag #   183  GM_PsiY  , Parms: VV   182LR , mate:   182
(PID.TID 0000.0001) DIAGNOSTICS_SET_POINTERS: Set levels for Outp.Stream: surfDiag
(PID.TID 0000.0001)  Levels:       1.
(PID.TID 0000.0001) DIAGNOSTICS_SET_POINTERS: Set levels for Outp.Stream: dynDiag
(PID.TID 0000.0001)  Levels:       1.   2.   3.   4.   5.   6.   7.   8.   9.  10.  11.  12.  13.  14.  15.
(PID.TID 0000.0001) DIAGNOSTICS_SET_POINTERS: Set levels for Outp.Stream: oceDiag
(PID.TID 0000.0001)  Levels:       1.   2.   3.   4.   5.   6.   7.   8.   9.  10.  11.  12.  13.  14.  15.
(PID.TID 0000.0001) DIAGNOSTICS_SET_POINTERS: done
(PID.TID 0000.0001) ------------------------------------------------------------
(PID.TID 0000.0001) DIAGSTATS_SET_REGIONS: define no region
(PID.TID 0000.0001) ------------------------------------------------------------
(PID.TID 0000.0001) SETDIAG: Allocate  1 Levels for Stats-Diag #    23 ETAN
(PID.TID 0000.0001) SETDIAG: Allocate  1 Levels for Stats-Diag #    24 ETANSQ
(PID.TID 0000.0001) SETDIAG: Allocate  1 Levels for Stats-Diag #    25 DETADT2
(PID.TID 0000.0001) SETDIAG: Allocate 15 Levels for Stats-Diag #    30 UVEL
(PID.TID 0000.0001) SETDIAG: Allocate 15 Levels for Stats-Diag #    31 VVEL
(PID.TID 0000.0001) SETDIAG: Allocate 15 Levels for Stats-Diag #    32 WVEL
(PID.TID 0000.0001) SETDIAG: Allocate 15 Levels for Stats-Diag #    26 THETA
(PID.TID 0000.0001) SETDIAG: Allocate 15 Levels for Stats-Diag #    27 SALT
(PID.TID 0000.0001) SETDIAG: Allocate 15 Levels for Stats-Diag #    38 WVELSQ
(PID.TID 0000.0001) SETDIAG: Allocate 15 Levels for Stats-Diag #    62 RHOAnoma
(PID.TID 0000.0001) SETDIAG: Allocate 15 Levels for Stats-Diag #    72 DRHODR
(PID.TID 0000.0001) SETDIAG: Allocate 15 Levels for Stats-Diag #    73 CONVADJ
(PID.TID 0000.0001) SETDIAG: Allocate  1 Levels for Stats-Diag #   188 DSLPuFlw
(PID.TID 0000.0001) SETDIAG: Allocate  1 Levels for Stats-Diag #   189 DSLPvFlw
(PID.TID 0000.0001) SETDIAG: Allocate 15 Levels for Stats-Diag #   190 DSLP_TH
(PID.TID 0000.0001) SETDIAG: Allocate 15 Levels for Stats-Diag #   191 DSLP_SLT
(PID.TID 0000.0001) SETDIAG: Allocate 15 Levels for Stats-Diag #   203 DSLPTr01
(PID.TID 0000.0001)   space allocated for all stats-diags:     185 levels
(PID.TID 0000.0001) DIAGSTATS_SET_POINTERS: done
(PID.TID 0000.0001) ------------------------------------------------------------
(PID.TID 0000.0001) DIAGSTATS_INI_IO: open file: dynStDiag.0000036000.txt , unit=     9
(PID.TID 0000.0001) DIAGSTATS_INI_IO: open file: oceStDiag.0000036000.txt , unit=    10
(PID.TID 0000.0001) %MON fCori_max                    =   1.4265546244797E-04
(PID.TID 0000.0001) %MON fCori_min                    =  -1.4265546244797E-04
(PID.TID 0000.0001) %MON fCori_mean                   =   4.7801269115805E-19
(PID.TID 0000.0001) %MON fCori_sd                     =   9.6599226301546E-05
(PID.TID 0000.0001) %MON fCoriG_max                   =   1.4151032568025E-04
(PID.TID 0000.0001) %MON fCoriG_min                   =  -1.4362679550910E-04
(PID.TID 0000.0001) %MON fCoriG_mean                  =  -3.5906698877273E-06
(PID.TID 0000.0001) %MON fCoriG_sd                    =   9.6548915696246E-05
(PID.TID 0000.0001) %MON fCoriCos_max                 =   1.4575362704741E-04
(PID.TID 0000.0001) %MON fCoriCos_min                 =   3.0322354601388E-05
(PID.TID 0000.0001) %MON fCoriCos_mean                =   1.0288600773633E-04
(PID.TID 0000.0001) %MON fCoriCos_sd                  =   3.6784304327266E-05
(PID.TID 0000.0001) INI_CG2D: CG2D normalisation factor =  6.5682677425711703E-05
(PID.TID 0000.0001) 
(PID.TID 0000.0001) // =======================================================
(PID.TID 0000.0001) // Model configuration
(PID.TID 0000.0001) // =======================================================
(PID.TID 0000.0001) //
(PID.TID 0000.0001) // "Physical" paramters ( PARM01 in namelist )
(PID.TID 0000.0001) //
(PID.TID 0000.0001) buoyancyRelation = /* Type of relation to get Buoyancy */
(PID.TID 0000.0001)               'OCEANIC'
(PID.TID 0000.0001)     ;
(PID.TID 0000.0001) fluidIsAir  =  /* fluid major constituent is Air */
(PID.TID 0000.0001)                   F
(PID.TID 0000.0001)     ;
(PID.TID 0000.0001) fluidIsWater=  /* fluid major constituent is Water */
(PID.TID 0000.0001)                   T
(PID.TID 0000.0001)     ;
(PID.TID 0000.0001) usingPCoords =  /* use p (or p*) vertical coordinate */
(PID.TID 0000.0001)                   F
(PID.TID 0000.0001)     ;
(PID.TID 0000.0001) usingZCoords =  /* use z (or z*) vertical coordinate */
(PID.TID 0000.0001)                   T
(PID.TID 0000.0001)     ;
(PID.TID 0000.0001) tRef =   /* Reference temperature profile ( oC or K ) */
(PID.TID 0000.0001)    15 @  2.000000000000000E+01              /* K =  1: 15 */
(PID.TID 0000.0001)     ;
(PID.TID 0000.0001) sRef =   /* Reference salinity profile ( psu ) */
(PID.TID 0000.0001)    15 @  3.500000000000000E+01              /* K =  1: 15 */
(PID.TID 0000.0001)     ;
(PID.TID 0000.0001) viscAh =   /* Lateral eddy viscosity ( m^2/s ) */
(PID.TID 0000.0001)                 5.000000000000000E+05
(PID.TID 0000.0001)     ;
(PID.TID 0000.0001) viscAhMax =   /* Maximum lateral eddy viscosity ( m^2/s ) */
(PID.TID 0000.0001)                 1.000000000000000E+21
(PID.TID 0000.0001)     ;
(PID.TID 0000.0001) viscAhGrid =   /* Grid dependent lateral eddy viscosity ( non-dim. ) */
(PID.TID 0000.0001)                 0.000000000000000E+00
(PID.TID 0000.0001)     ;
(PID.TID 0000.0001) useFullLeith =   /* Use Full Form of Leith Viscosity on/off flag*/
(PID.TID 0000.0001)                   F
(PID.TID 0000.0001)     ;
(PID.TID 0000.0001) useStrainTensionVisc =   /* Use StrainTension Form of Viscous Operator on/off flag*/
(PID.TID 0000.0001)                   F
(PID.TID 0000.0001)     ;
(PID.TID 0000.0001) useAreaViscLength =   /* Use area for visc length instead of geom. mean*/
(PID.TID 0000.0001)                   F
(PID.TID 0000.0001)     ;
(PID.TID 0000.0001) viscC2leith = /* Leith harmonic visc. factor (on grad(vort),non-dim.) */
(PID.TID 0000.0001)                 0.000000000000000E+00
(PID.TID 0000.0001)     ;
(PID.TID 0000.0001) viscC2leithD = /* Leith harmonic viscosity factor (on grad(div),non-dim.) */
(PID.TID 0000.0001)                 0.000000000000000E+00
(PID.TID 0000.0001)     ;
(PID.TID 0000.0001) viscC2smag =   /* Smagorinsky harmonic viscosity factor (non-dim.) */
(PID.TID 0000.0001)                 0.000000000000000E+00
(PID.TID 0000.0001)     ;
(PID.TID 0000.0001) viscA4 =   /* Lateral biharmonic viscosity ( m^4/s ) */
(PID.TID 0000.0001)                 0.000000000000000E+00
(PID.TID 0000.0001)     ;
(PID.TID 0000.0001) viscA4Max =   /* Maximum biharmonic viscosity ( m^2/s ) */
(PID.TID 0000.0001)                 1.000000000000000E+21
(PID.TID 0000.0001)     ;
(PID.TID 0000.0001) viscA4Grid =   /* Grid dependent biharmonic viscosity ( non-dim. ) */
(PID.TID 0000.0001)                 0.000000000000000E+00
(PID.TID 0000.0001)     ;
(PID.TID 0000.0001) viscC4leith = /* Leith biharm viscosity factor (on grad(vort), non-dim.) */
(PID.TID 0000.0001)                 0.000000000000000E+00
(PID.TID 0000.0001)     ;
(PID.TID 0000.0001) viscC4leithD = /* Leith biharm viscosity factor (on grad(div), non-dim.) */
(PID.TID 0000.0001)                 0.000000000000000E+00
(PID.TID 0000.0001)     ;
(PID.TID 0000.0001) viscC4Smag = /* Smagorinsky biharm viscosity factor (non-dim) */
(PID.TID 0000.0001)                 0.000000000000000E+00
(PID.TID 0000.0001)     ;
(PID.TID 0000.0001) no_slip_sides =  /* Viscous BCs: No-slip sides */
(PID.TID 0000.0001)                   T
(PID.TID 0000.0001)     ;
(PID.TID 0000.0001) sideDragFactor = /* side-drag scaling factor (non-dim) */
(PID.TID 0000.0001)                 2.000000000000000E+00
(PID.TID 0000.0001)     ;
(PID.TID 0000.0001) viscAr =   /* Vertical eddy viscosity ( m^2/s ) */
(PID.TID 0000.0001)                 1.000000000000000E-03
(PID.TID 0000.0001)     ;
(PID.TID 0000.0001) no_slip_bottom =  /* Viscous BCs: No-slip bottom */
(PID.TID 0000.0001)                   T
(PID.TID 0000.0001)     ;
(PID.TID 0000.0001) bottomDragLinear = /* linear bottom-drag coefficient ( m/s ) */
(PID.TID 0000.0001)                 0.000000000000000E+00
(PID.TID 0000.0001)     ;
(PID.TID 0000.0001) bottomDragQuadratic = /* quadratic bottom-drag coefficient (-) */
(PID.TID 0000.0001)                 0.000000000000000E+00
(PID.TID 0000.0001)     ;
(PID.TID 0000.0001) diffKhT =   /* Laplacian diffusion of heat laterally ( m^2/s ) */
(PID.TID 0000.0001)                 0.000000000000000E+00
(PID.TID 0000.0001)     ;
(PID.TID 0000.0001) diffK4T =   /* Biharmonic diffusion of heat laterally ( m^4/s ) */
(PID.TID 0000.0001)                 0.000000000000000E+00
(PID.TID 0000.0001)     ;
(PID.TID 0000.0001) diffKhS =   /* Laplacian diffusion of salt laterally ( m^2/s ) */
(PID.TID 0000.0001)                 0.000000000000000E+00
(PID.TID 0000.0001)     ;
(PID.TID 0000.0001) diffK4S =   /* Biharmonic diffusion of salt laterally ( m^4/s ) */
(PID.TID 0000.0001)                 0.000000000000000E+00
(PID.TID 0000.0001)     ;
(PID.TID 0000.0001) diffKrNrT = /* vertical profile of vertical diffusion of Temp ( m^2/s )*/
(PID.TID 0000.0001)    15 @  3.000000000000000E-05              /* K =  1: 15 */
(PID.TID 0000.0001)     ;
(PID.TID 0000.0001) diffKrNrS = /* vertical profile of vertical diffusion of Salt ( m^2/s )*/
(PID.TID 0000.0001)    15 @  3.000000000000000E-05              /* K =  1: 15 */
(PID.TID 0000.0001)     ;
(PID.TID 0000.0001) diffKrBL79surf = /* Surface diffusion for Bryan and Lewis 79 ( m^2/s ) */
(PID.TID 0000.0001)                 0.000000000000000E+00
(PID.TID 0000.0001)     ;
(PID.TID 0000.0001) diffKrBL79deep = /* Deep diffusion for Bryan and Lewis 1979 ( m^2/s ) */
(PID.TID 0000.0001)                 0.000000000000000E+00
(PID.TID 0000.0001)     ;
(PID.TID 0000.0001) diffKrBL79scl = /* Depth scale for Bryan and Lewis 1979 ( m ) */
(PID.TID 0000.0001)                 2.000000000000000E+02
(PID.TID 0000.0001)     ;
(PID.TID 0000.0001) diffKrBL79Ho = /* Turning depth for Bryan and Lewis 1979 ( m ) */
(PID.TID 0000.0001)                -2.000000000000000E+03
(PID.TID 0000.0001)     ;
(PID.TID 0000.0001) ivdc_kappa = /* Implicit Vertical Diffusivity for Convection ( m^2/s ) */
(PID.TID 0000.0001)                 1.000000000000000E+02
(PID.TID 0000.0001)     ;
(PID.TID 0000.0001) hMixCriteria=  /* Criteria for mixed-layer diagnostic */
(PID.TID 0000.0001)                -8.000000000000000E-01
(PID.TID 0000.0001)     ;
(PID.TID 0000.0001) dRhoSmall=  /* Parameter for mixed-layer diagnostic */
(PID.TID 0000.0001)                 1.000000000000000E-06
(PID.TID 0000.0001)     ;
(PID.TID 0000.0001) hMixSmooth=  /* Smoothing parameter for mixed-layer diagnostic */
(PID.TID 0000.0001)                 0.000000000000000E+00
(PID.TID 0000.0001)     ;
(PID.TID 0000.0001) eosType =  /* Type of Equation of State */
(PID.TID 0000.0001)               'JMD95P'
(PID.TID 0000.0001)     ;
(PID.TID 0000.0001) tAlpha =   /* Linear EOS thermal expansion coefficient ( 1/oC ) */
(PID.TID 0000.0001)                 1.234567000000000E+05
(PID.TID 0000.0001)     ;
(PID.TID 0000.0001) sBeta =   /* Linear EOS haline contraction coefficient ( 1/psu ) */
(PID.TID 0000.0001)                 1.234567000000000E+05
(PID.TID 0000.0001)     ;
(PID.TID 0000.0001) rhonil =   /* Reference density ( kg/m^3 ) */
(PID.TID 0000.0001)                 9.998000000000000E+02
(PID.TID 0000.0001)     ;
(PID.TID 0000.0001) rhoConst =   /* Reference density ( kg/m^3 ) */
(PID.TID 0000.0001)                 1.035000000000000E+03
(PID.TID 0000.0001)     ;
(PID.TID 0000.0001) rhoFacC = /* normalized Reference density @ cell-Center (-) */
(PID.TID 0000.0001)    15 @  1.000000000000000E+00              /* K =  1: 15 */
(PID.TID 0000.0001)     ;
(PID.TID 0000.0001) rhoFacF = /* normalized Reference density @ W-Interface (-) */
(PID.TID 0000.0001)    16 @  1.000000000000000E+00              /* K =  1: 16 */
(PID.TID 0000.0001)     ;
(PID.TID 0000.0001) rhoConstFresh =   /* Reference density ( kg/m^3 ) */
(PID.TID 0000.0001)                 1.000000000000000E+03
(PID.TID 0000.0001)     ;
(PID.TID 0000.0001) gravity =   /* Gravitational acceleration ( m/s^2 ) */
(PID.TID 0000.0001)                 9.810000000000000E+00
(PID.TID 0000.0001)     ;
(PID.TID 0000.0001) gBaro =   /* Barotropic gravity ( m/s^2 ) */
(PID.TID 0000.0001)                 9.810000000000000E+00
(PID.TID 0000.0001)     ;
(PID.TID 0000.0001) rotationPeriod =   /* Rotation Period ( s ) */
(PID.TID 0000.0001)                 8.616400000000000E+04
(PID.TID 0000.0001)     ;
(PID.TID 0000.0001) omega =   /* Angular velocity ( rad/s ) */
(PID.TID 0000.0001)                 7.292123516990375E-05
(PID.TID 0000.0001)     ;
(PID.TID 0000.0001) f0 =   /* Reference coriolis parameter ( 1/s ) */
(PID.TID 0000.0001)                 1.000000000000000E-04
(PID.TID 0000.0001)     ;
(PID.TID 0000.0001) beta =   /* Beta ( 1/(m.s) ) */
(PID.TID 0000.0001)                 9.999999999999999E-12
(PID.TID 0000.0001)     ;
(PID.TID 0000.0001) freeSurfFac =   /* Implicit free surface factor */
(PID.TID 0000.0001)                 1.000000000000000E+00
(PID.TID 0000.0001)     ;
(PID.TID 0000.0001) implicitFreeSurface =   /* Implicit free surface on/off flag */
(PID.TID 0000.0001)                   T
(PID.TID 0000.0001)     ;
(PID.TID 0000.0001) rigidLid =   /* Rigid lid on/off flag */
(PID.TID 0000.0001)                   F
(PID.TID 0000.0001)     ;
(PID.TID 0000.0001) implicSurfPress =   /* Surface Pressure implicit factor (0-1)*/
(PID.TID 0000.0001)                 1.000000000000000E+00
(PID.TID 0000.0001)     ;
(PID.TID 0000.0001) implicDiv2Dflow =   /* Barot. Flow Div. implicit factor (0-1)*/
(PID.TID 0000.0001)                 1.000000000000000E+00
(PID.TID 0000.0001)     ;
(PID.TID 0000.0001) exactConserv =   /* Exact Volume Conservation on/off flag*/
(PID.TID 0000.0001)                   T
(PID.TID 0000.0001)     ;
(PID.TID 0000.0001) linFSConserveTr =   /* Tracer correction for Lin Free Surface on/off flag*/
(PID.TID 0000.0001)                   F
(PID.TID 0000.0001)     ;
(PID.TID 0000.0001) uniformLin_PhiSurf =   /* use uniform Bo_surf on/off flag*/
(PID.TID 0000.0001)                   T
(PID.TID 0000.0001)     ;
(PID.TID 0000.0001) nonlinFreeSurf =   /* Non-linear Free Surf. options (-1,0,1,2,3)*/
(PID.TID 0000.0001)                       0
(PID.TID 0000.0001)     ;
(PID.TID 0000.0001)      -1,0= Off ; 1,2,3= On, 2=+rescale gU,gV, 3=+update cg2d solv.
(PID.TID 0000.0001) hFacInf =   /* lower threshold for hFac (nonlinFreeSurf only)*/
(PID.TID 0000.0001)                 2.000000000000000E-01
(PID.TID 0000.0001)     ;
(PID.TID 0000.0001) hFacSup =   /* upper threshold for hFac (nonlinFreeSurf only)*/
(PID.TID 0000.0001)                 2.000000000000000E+00
(PID.TID 0000.0001)     ;
(PID.TID 0000.0001) select_rStar = /* r* Vertical coord. options (=0 r coord.; > 0 uses r*) */
(PID.TID 0000.0001)                       0
(PID.TID 0000.0001)     ;
(PID.TID 0000.0001) selectAddFluid = /* option for mass source/sink of fluid (=0: off) */
(PID.TID 0000.0001)                       0
(PID.TID 0000.0001)     ;
(PID.TID 0000.0001) useRealFreshWaterFlux = /* Real Fresh Water Flux on/off flag*/
(PID.TID 0000.0001)                   T
(PID.TID 0000.0001)     ;
(PID.TID 0000.0001) temp_EvPrRn = /* Temp. of Evap/Prec/R (UNSET=use local T)(oC)*/
(PID.TID 0000.0001)                 1.234567000000000E+05
(PID.TID 0000.0001)     ;
(PID.TID 0000.0001) salt_EvPrRn = /* Salin. of Evap/Prec/R (UNSET=use local S)(ppt)*/
(PID.TID 0000.0001)                 0.000000000000000E+00
(PID.TID 0000.0001)     ;
(PID.TID 0000.0001) convertFW2Salt = /* convert F.W. Flux to Salt Flux (-1=use local S)(ppt)*/
(PID.TID 0000.0001)                -1.000000000000000E+00
(PID.TID 0000.0001)     ;
(PID.TID 0000.0001) use3Dsolver = /* use 3-D pressure solver on/off flag */
(PID.TID 0000.0001)                   F
(PID.TID 0000.0001)     ;
(PID.TID 0000.0001) nonHydrostatic =  /* Non-Hydrostatic on/off flag */
(PID.TID 0000.0001)                   F
(PID.TID 0000.0001)     ;
(PID.TID 0000.0001) nh_Am2 = /* Non-Hydrostatic terms scaling factor */
(PID.TID 0000.0001)                 1.000000000000000E+00
(PID.TID 0000.0001)     ;
(PID.TID 0000.0001) quasiHydrostatic = /* Quasi-Hydrostatic on/off flag */
(PID.TID 0000.0001)                   T
(PID.TID 0000.0001)     ;
(PID.TID 0000.0001) momStepping =  /* Momentum equation on/off flag */
(PID.TID 0000.0001)                   T
(PID.TID 0000.0001)     ;
(PID.TID 0000.0001) vectorInvariantMomentum= /* Vector-Invariant Momentum on/off */
(PID.TID 0000.0001)                   F
(PID.TID 0000.0001)     ;
(PID.TID 0000.0001) momAdvection =  /* Momentum advection on/off flag */
(PID.TID 0000.0001)                   T
(PID.TID 0000.0001)     ;
(PID.TID 0000.0001) momViscosity =  /* Momentum viscosity on/off flag */
(PID.TID 0000.0001)                   T
(PID.TID 0000.0001)     ;
(PID.TID 0000.0001) momImplVertAdv =/* Momentum implicit vert. advection on/off*/
(PID.TID 0000.0001)                   F
(PID.TID 0000.0001)     ;
(PID.TID 0000.0001) implicitViscosity = /* Implicit viscosity on/off flag */
(PID.TID 0000.0001)                   F
(PID.TID 0000.0001)     ;
(PID.TID 0000.0001) metricTerms =  /* metric-Terms on/off flag */
(PID.TID 0000.0001)                   T
(PID.TID 0000.0001)     ;
(PID.TID 0000.0001) useNHMTerms = /* Non-Hydrostatic Metric-Terms on/off */
(PID.TID 0000.0001)                   T
(PID.TID 0000.0001)     ;
(PID.TID 0000.0001) useConstantF =  /* use Constant f0 Coriolis flag */
(PID.TID 0000.0001)                   F
(PID.TID 0000.0001)     ;
(PID.TID 0000.0001) useBetaPlaneF = /* use Beta-Plane Coriolis flag */
(PID.TID 0000.0001)                   F
(PID.TID 0000.0001)     ;
(PID.TID 0000.0001) useSphereF  =   /* use Spherical Coriolis flag */
(PID.TID 0000.0001)                   T
(PID.TID 0000.0001)     ;
(PID.TID 0000.0001) use3dCoriolis = /* 3-D Coriolis on/off flag */
(PID.TID 0000.0001)                   T
(PID.TID 0000.0001)     ;
(PID.TID 0000.0001) useCoriolis =  /* Coriolis on/off flag */
(PID.TID 0000.0001)                   T
(PID.TID 0000.0001)     ;
(PID.TID 0000.0001) useCDscheme =  /* CD scheme on/off flag */
(PID.TID 0000.0001)                   T
(PID.TID 0000.0001)     ;
(PID.TID 0000.0001) useJamartWetPoints= /* Coriolis WetPoints method flag */
(PID.TID 0000.0001)                   F
(PID.TID 0000.0001)     ;
(PID.TID 0000.0001) useJamartMomAdv= /* V.I. Non-linear terms Jamart flag */
(PID.TID 0000.0001)                   F
(PID.TID 0000.0001)     ;
(PID.TID 0000.0001) useAbsVorticity= /* Work with f+zeta in Coriolis */
(PID.TID 0000.0001)                   F
(PID.TID 0000.0001)     ;
(PID.TID 0000.0001) selectVortScheme= /* Scheme selector for Vorticity-Term */
(PID.TID 0000.0001)               123456789
(PID.TID 0000.0001)    = 0 : enstrophy (Shallow-Water Eq.) conserving scheme by Sadourny, JAS 75
(PID.TID 0000.0001)    = 1 : same as 0 with modified hFac
(PID.TID 0000.0001)    = 2 : energy conserving scheme (used by Sadourny in JAS 75 paper)
(PID.TID 0000.0001)    = 3 : energy (general) and enstrophy (2D, nonDiv.) conserving scheme
(PID.TID 0000.0001)          from Sadourny (Burridge & Haseler, ECMWF Rep.4, 1977)
(PID.TID 0000.0001)     ;
(PID.TID 0000.0001) upwindVorticity= /* Upwind bias vorticity flag */
(PID.TID 0000.0001)                   F
(PID.TID 0000.0001)     ;
(PID.TID 0000.0001) highOrderVorticity= /* High order interp. of vort. flag */
(PID.TID 0000.0001)                   F
(PID.TID 0000.0001)     ;
(PID.TID 0000.0001) upwindShear= /* Upwind vertical Shear advection flag */
(PID.TID 0000.0001)                   F
(PID.TID 0000.0001)     ;
(PID.TID 0000.0001) selectKEscheme= /* Kinetic Energy scheme selector */
(PID.TID 0000.0001)                       0
(PID.TID 0000.0001)     ;
(PID.TID 0000.0001) momForcing =  /* Momentum forcing on/off flag */
(PID.TID 0000.0001)                   T
(PID.TID 0000.0001)     ;
(PID.TID 0000.0001) momPressureForcing =  /* Momentum pressure term on/off flag */
(PID.TID 0000.0001)                   T
(PID.TID 0000.0001)     ;
(PID.TID 0000.0001) implicitIntGravWave= /* Implicit Internal Gravity Wave flag */
(PID.TID 0000.0001)                   F
(PID.TID 0000.0001)     ;
(PID.TID 0000.0001) staggerTimeStep =   /* Stagger time stepping on/off flag */
(PID.TID 0000.0001)                   F
(PID.TID 0000.0001)     ;
(PID.TID 0000.0001) multiDimAdvection =   /* enable/disable Multi-Dim Advection */
(PID.TID 0000.0001)                   T
(PID.TID 0000.0001)     ;
(PID.TID 0000.0001) useMultiDimAdvec =   /* Multi-Dim Advection is/is-not used */
(PID.TID 0000.0001)                   F
(PID.TID 0000.0001)     ;
(PID.TID 0000.0001) implicitDiffusion =/* Implicit Diffusion on/off flag */
(PID.TID 0000.0001)                   T
(PID.TID 0000.0001)     ;
(PID.TID 0000.0001) tempStepping =  /* Temperature equation on/off flag */
(PID.TID 0000.0001)                   T
(PID.TID 0000.0001)     ;
(PID.TID 0000.0001) tempAdvection=  /* Temperature advection on/off flag */
(PID.TID 0000.0001)                   T
(PID.TID 0000.0001)     ;
(PID.TID 0000.0001) tempImplVertAdv =/* Temp. implicit vert. advection on/off */
(PID.TID 0000.0001)                   F
(PID.TID 0000.0001)     ;
(PID.TID 0000.0001) tempForcing  =  /* Temperature forcing on/off flag */
(PID.TID 0000.0001)                   T
(PID.TID 0000.0001)     ;
(PID.TID 0000.0001) tempIsActiveTr = /* Temp. is a dynamically Active Tracer */
(PID.TID 0000.0001)                   T
(PID.TID 0000.0001)     ;
(PID.TID 0000.0001) saltStepping =  /* Salinity equation on/off flag */
(PID.TID 0000.0001)                   T
(PID.TID 0000.0001)     ;
(PID.TID 0000.0001) saltAdvection=  /* Salinity advection on/off flag */
(PID.TID 0000.0001)                   T
(PID.TID 0000.0001)     ;
(PID.TID 0000.0001) saltImplVertAdv =/* Sali. implicit vert. advection on/off */
(PID.TID 0000.0001)                   F
(PID.TID 0000.0001)     ;
(PID.TID 0000.0001) saltForcing  =  /* Salinity forcing on/off flag */
(PID.TID 0000.0001)                   T
(PID.TID 0000.0001)     ;
(PID.TID 0000.0001) saltIsActiveTr = /* Salt  is a dynamically Active Tracer */
(PID.TID 0000.0001)                   T
(PID.TID 0000.0001)     ;
(PID.TID 0000.0001)  readBinaryPrec = /* Precision used for reading binary files */
(PID.TID 0000.0001)                      32
(PID.TID 0000.0001)     ;
(PID.TID 0000.0001) writeBinaryPrec = /* Precision used for writing binary files */
(PID.TID 0000.0001)                      32
(PID.TID 0000.0001)     ;
(PID.TID 0000.0001)  globalFiles = /* write "global" (=not per tile) files */
(PID.TID 0000.0001)                   F
(PID.TID 0000.0001)     ;
(PID.TID 0000.0001)  useSingleCpuIO = /* only master MPI process does I/O */
(PID.TID 0000.0001)                   F
(PID.TID 0000.0001)     ;
(PID.TID 0000.0001)  debugMode  =  /* Debug Mode on/off flag */
(PID.TID 0000.0001)                   F
(PID.TID 0000.0001)     ;
(PID.TID 0000.0001)    debLevA  =  /* 1rst level of debugging */
(PID.TID 0000.0001)                       1
(PID.TID 0000.0001)     ;
(PID.TID 0000.0001)    debLevB  =  /* 2nd  level of debugging */
(PID.TID 0000.0001)                       2
(PID.TID 0000.0001)     ;
(PID.TID 0000.0001)  debugLevel =  /* select debugging level */
(PID.TID 0000.0001)                       1
(PID.TID 0000.0001)     ;
(PID.TID 0000.0001) //
(PID.TID 0000.0001) // Elliptic solver(s) paramters ( PARM02 in namelist )
(PID.TID 0000.0001) //
(PID.TID 0000.0001) cg2dMaxIters =   /* Upper limit on 2d con. grad iterations  */
(PID.TID 0000.0001)                     500
(PID.TID 0000.0001)     ;
(PID.TID 0000.0001) cg2dChkResFreq =   /* 2d con. grad convergence test frequency */
(PID.TID 0000.0001)                       1
(PID.TID 0000.0001)     ;
(PID.TID 0000.0001) cg2dTargetResidual =   /* 2d con. grad target residual  */
(PID.TID 0000.0001)                 1.000000000000000E-13
(PID.TID 0000.0001)     ;
(PID.TID 0000.0001) cg2dTargetResWunit =   /* CG2d target residual [W units] */
(PID.TID 0000.0001)                -1.000000000000000E+00
(PID.TID 0000.0001)     ;
(PID.TID 0000.0001) cg2dPreCondFreq =   /* Freq. for updating cg2d preconditioner */
(PID.TID 0000.0001)                       1
(PID.TID 0000.0001)     ;
(PID.TID 0000.0001) //
(PID.TID 0000.0001) // Time stepping paramters ( PARM03 in namelist )
(PID.TID 0000.0001) //
(PID.TID 0000.0001) deltaTmom =   /* Momentum equation timestep ( s ) */
(PID.TID 0000.0001)                 1.800000000000000E+03
(PID.TID 0000.0001)     ;
(PID.TID 0000.0001) deltaTfreesurf = /* FreeSurface equation timestep ( s ) */
(PID.TID 0000.0001)                 8.640000000000000E+04
(PID.TID 0000.0001)     ;
(PID.TID 0000.0001) dTtracerLev =  /* Tracer equation timestep ( s ) */
(PID.TID 0000.0001)    15 @  8.640000000000000E+04              /* K =  1: 15 */
(PID.TID 0000.0001)     ;
(PID.TID 0000.0001) deltaTClock  =   /* Model clock timestep ( s ) */
(PID.TID 0000.0001)                 8.640000000000000E+04
(PID.TID 0000.0001)     ;
(PID.TID 0000.0001) cAdjFreq =   /* Convective adjustment interval ( s ) */
(PID.TID 0000.0001)                 0.000000000000000E+00
(PID.TID 0000.0001)     ;
(PID.TID 0000.0001) momForcingOutAB = /* =1: take Momentum Forcing out of Adams-Bash. stepping */
(PID.TID 0000.0001)                       0
(PID.TID 0000.0001)     ;
(PID.TID 0000.0001) tracForcingOutAB = /* =1: take T,S,pTr Forcing out of Adams-Bash. stepping */
(PID.TID 0000.0001)                       0
(PID.TID 0000.0001)     ;
(PID.TID 0000.0001) momDissip_In_AB = /* put Dissipation Tendency in Adams-Bash. stepping */
(PID.TID 0000.0001)                   T
(PID.TID 0000.0001)     ;
(PID.TID 0000.0001) doAB_onGtGs = /* apply AB on Tendencies (rather than on T,S)*/
(PID.TID 0000.0001)                   T
(PID.TID 0000.0001)     ;
(PID.TID 0000.0001) abEps =   /* Adams-Bashforth-2 stabilizing weight */
(PID.TID 0000.0001)                 1.000000000000000E-01
(PID.TID 0000.0001)     ;
(PID.TID 0000.0001) tauCD =   /* CD coupling time-scale ( s ) */
(PID.TID 0000.0001)                 3.214280000000000E+05
(PID.TID 0000.0001)     ;
(PID.TID 0000.0001) rCD =   /* Normalised CD coupling parameter */
(PID.TID 0000.0001)                 9.943999900444267E-01
(PID.TID 0000.0001)     ;
(PID.TID 0000.0001) pickupStrictlyMatch= /* stop if pickup do not strictly match */
(PID.TID 0000.0001)                   F
(PID.TID 0000.0001)     ;
(PID.TID 0000.0001) nIter0 =   /* Run starting timestep number  */
(PID.TID 0000.0001)                   36000
(PID.TID 0000.0001)     ;
(PID.TID 0000.0001) nTimeSteps =   /* Number of timesteps */
(PID.TID 0000.0001)                      10
(PID.TID 0000.0001)     ;
(PID.TID 0000.0001) baseTime =   /* Model base time ( s ). */
(PID.TID 0000.0001)                 0.000000000000000E+00
(PID.TID 0000.0001)     ;
(PID.TID 0000.0001) startTime =   /* Run start time ( s ). */
(PID.TID 0000.0001)                 3.110400000000000E+09
(PID.TID 0000.0001)     ;
(PID.TID 0000.0001) endTime =   /* Integration ending time ( s ). */
(PID.TID 0000.0001)                 3.111264000000000E+09
(PID.TID 0000.0001)     ;
(PID.TID 0000.0001) pChkPtFreq =   /* Permanent restart/checkpoint file interval ( s ). */
(PID.TID 0000.0001)                 1.555200000000000E+09
(PID.TID 0000.0001)     ;
(PID.TID 0000.0001) chkPtFreq =   /* Rolling restart/checkpoint file interval ( s ). */
(PID.TID 0000.0001)                 3.110400000000000E+08
(PID.TID 0000.0001)     ;
(PID.TID 0000.0001) pickup_write_mdsio =   /* Model IO flag. */
(PID.TID 0000.0001)                   T
(PID.TID 0000.0001)     ;
(PID.TID 0000.0001) pickup_read_mdsio =   /* Model IO flag. */
(PID.TID 0000.0001)                   T
(PID.TID 0000.0001)     ;
(PID.TID 0000.0001) pickup_write_mnc =   /* Model IO flag. */
(PID.TID 0000.0001)                   F
(PID.TID 0000.0001)     ;
(PID.TID 0000.0001) pickup_read_mnc =   /* Model IO flag. */
(PID.TID 0000.0001)                   F
(PID.TID 0000.0001)     ;
(PID.TID 0000.0001) pickup_write_immed =   /* Model IO flag. */
(PID.TID 0000.0001)                   F
(PID.TID 0000.0001)     ;
(PID.TID 0000.0001) writePickupAtEnd =   /* Model IO flag. */
(PID.TID 0000.0001)                   T
(PID.TID 0000.0001)     ;
(PID.TID 0000.0001) dumpFreq =   /* Model state write out interval ( s ). */
(PID.TID 0000.0001)                 3.110400000000000E+08
(PID.TID 0000.0001)     ;
(PID.TID 0000.0001) dumpInitAndLast= /* write out Initial & Last iter. model state */
(PID.TID 0000.0001)                   T
(PID.TID 0000.0001)     ;
(PID.TID 0000.0001) snapshot_mdsio =   /* Model IO flag. */
(PID.TID 0000.0001)                   T
(PID.TID 0000.0001)     ;
(PID.TID 0000.0001) snapshot_mnc =   /* Model IO flag. */
(PID.TID 0000.0001)                   F
(PID.TID 0000.0001)     ;
(PID.TID 0000.0001) monitorFreq =   /* Monitor output interval ( s ). */
(PID.TID 0000.0001)                 1.000000000000000E+00
(PID.TID 0000.0001)     ;
(PID.TID 0000.0001) monitorSelect = /* select group of variables to monitor */
(PID.TID 0000.0001)                       3
(PID.TID 0000.0001)     ;
(PID.TID 0000.0001) monitor_stdio =   /* Model IO flag. */
(PID.TID 0000.0001)                   T
(PID.TID 0000.0001)     ;
(PID.TID 0000.0001) monitor_mnc =   /* Model IO flag. */
(PID.TID 0000.0001)                   F
(PID.TID 0000.0001)     ;
(PID.TID 0000.0001) externForcingPeriod =   /* forcing period (s) */
(PID.TID 0000.0001)                 2.592000000000000E+06
(PID.TID 0000.0001)     ;
(PID.TID 0000.0001) externForcingCycle =   /* period of the cyle (s). */
(PID.TID 0000.0001)                 3.110400000000000E+07
(PID.TID 0000.0001)     ;
(PID.TID 0000.0001) tauThetaClimRelax =   /* relaxation time scale (s) */
(PID.TID 0000.0001)                 5.184000000000000E+06
(PID.TID 0000.0001)     ;
(PID.TID 0000.0001) tauSaltClimRelax =   /* relaxation time scale (s) */
(PID.TID 0000.0001)                 1.555200000000000E+07
(PID.TID 0000.0001)     ;
(PID.TID 0000.0001) latBandClimRelax =   /* max. Lat. where relaxation */
(PID.TID 0000.0001)                 1.800000000000000E+02
(PID.TID 0000.0001)     ;
(PID.TID 0000.0001) //
(PID.TID 0000.0001) // Gridding paramters ( PARM04 in namelist )
(PID.TID 0000.0001) //
(PID.TID 0000.0001) usingCartesianGrid = /* Cartesian coordinates flag ( True/False ) */
(PID.TID 0000.0001)                   F
(PID.TID 0000.0001)     ;
(PID.TID 0000.0001) usingCylindricalGrid = /* Cylindrical coordinates flag ( True/False ) */
(PID.TID 0000.0001)                   F
(PID.TID 0000.0001)     ;
(PID.TID 0000.0001) usingSphericalPolarGrid = /* Spherical coordinates flag ( True/False ) */
(PID.TID 0000.0001)                   T
(PID.TID 0000.0001)     ;
(PID.TID 0000.0001) usingCurvilinearGrid = /* Curvilinear coordinates flag ( True/False ) */
(PID.TID 0000.0001)                   F
(PID.TID 0000.0001)     ;
(PID.TID 0000.0001) Ro_SeaLevel = /* r(1) ( units of r ==  m ) */
(PID.TID 0000.0001)                 0.000000000000000E+00
(PID.TID 0000.0001)     ;
(PID.TID 0000.0001) rkSign =   /* index orientation relative to vertical coordinate */
(PID.TID 0000.0001)                -1.000000000000000E+00
(PID.TID 0000.0001)     ;
(PID.TID 0000.0001) gravitySign = /* gravity orientation relative to vertical coordinate */
(PID.TID 0000.0001)                -1.000000000000000E+00
(PID.TID 0000.0001)     ;
(PID.TID 0000.0001) mass2rUnit = /* convert mass per unit area [kg/m2] to r-units [m] */
(PID.TID 0000.0001)                 9.661835748792270E-04
(PID.TID 0000.0001)     ;
(PID.TID 0000.0001) rUnit2mass = /* convert r-units [m] to mass per unit area [kg/m2] */
(PID.TID 0000.0001)                 1.035000000000000E+03
(PID.TID 0000.0001)     ;
(PID.TID 0000.0001) drC =   /* C spacing ( units of r ) */
(PID.TID 0000.0001)                 2.500000000000000E+01,      /* K =  1 */
(PID.TID 0000.0001)                 6.000000000000000E+01,      /* K =  2 */
(PID.TID 0000.0001)                 8.500000000000000E+01,      /* K =  3 */
(PID.TID 0000.0001)                 1.200000000000000E+02,      /* K =  4 */
(PID.TID 0000.0001)                 1.650000000000000E+02,      /* K =  5 */
(PID.TID 0000.0001)                 2.150000000000000E+02,      /* K =  6 */
(PID.TID 0000.0001)                 2.650000000000000E+02,      /* K =  7 */
(PID.TID 0000.0001)                 3.150000000000000E+02,      /* K =  8 */
(PID.TID 0000.0001)                 3.650000000000000E+02,      /* K =  9 */
(PID.TID 0000.0001)                 4.150000000000000E+02,      /* K = 10 */
(PID.TID 0000.0001)                 4.650000000000000E+02,      /* K = 11 */
(PID.TID 0000.0001)                 5.150000000000000E+02,      /* K = 12 */
(PID.TID 0000.0001)                 5.650000000000000E+02,      /* K = 13 */
(PID.TID 0000.0001)                 6.150000000000000E+02,      /* K = 14 */
(PID.TID 0000.0001)                 6.650000000000000E+02       /* K = 15 */
(PID.TID 0000.0001)     ;
(PID.TID 0000.0001) drF =   /* W spacing ( units of r ) */
(PID.TID 0000.0001)                 5.000000000000000E+01,      /* K =  1 */
(PID.TID 0000.0001)                 7.000000000000000E+01,      /* K =  2 */
(PID.TID 0000.0001)                 1.000000000000000E+02,      /* K =  3 */
(PID.TID 0000.0001)                 1.400000000000000E+02,      /* K =  4 */
(PID.TID 0000.0001)                 1.900000000000000E+02,      /* K =  5 */
(PID.TID 0000.0001)                 2.400000000000000E+02,      /* K =  6 */
(PID.TID 0000.0001)                 2.900000000000000E+02,      /* K =  7 */
(PID.TID 0000.0001)                 3.400000000000000E+02,      /* K =  8 */
(PID.TID 0000.0001)                 3.900000000000000E+02,      /* K =  9 */
(PID.TID 0000.0001)                 4.400000000000000E+02,      /* K = 10 */
(PID.TID 0000.0001)                 4.900000000000000E+02,      /* K = 11 */
(PID.TID 0000.0001)                 5.400000000000000E+02,      /* K = 12 */
(PID.TID 0000.0001)                 5.900000000000000E+02,      /* K = 13 */
(PID.TID 0000.0001)                 6.400000000000000E+02,      /* K = 14 */
(PID.TID 0000.0001)                 6.900000000000000E+02       /* K = 15 */
(PID.TID 0000.0001)     ;
(PID.TID 0000.0001) delX = /* U spacing ( m - cartesian, degrees - spherical ) */
(PID.TID 0000.0001)    90 @  4.000000000000000E+00              /* I =  1: 90 */
(PID.TID 0000.0001)     ;
(PID.TID 0000.0001) delY = /* V spacing ( m - cartesian, degrees - spherical ) */
(PID.TID 0000.0001)    40 @  4.000000000000000E+00              /* J =  1: 40 */
(PID.TID 0000.0001)     ;
(PID.TID 0000.0001) xgOrigin = /* X-axis origin of West  edge (cartesian: m, lat-lon: deg.) */
(PID.TID 0000.0001)                 0.000000000000000E+00
(PID.TID 0000.0001)     ;
(PID.TID 0000.0001) ygOrigin = /* Y-axis origin of South edge (cartesian: m, lat-lon: deg.) */
(PID.TID 0000.0001)                -8.000000000000000E+01
(PID.TID 0000.0001)     ;
(PID.TID 0000.0001) rSphere =  /* Radius ( ignored - cartesian, m - spherical ) */
(PID.TID 0000.0001)                 6.370000000000000E+06
(PID.TID 0000.0001)     ;
(PID.TID 0000.0001) deepAtmosphere = /* Deep/Shallow Atmosphere flag (True/False) */
(PID.TID 0000.0001)                   F
(PID.TID 0000.0001)     ;
(PID.TID 0000.0001) xC =  /* xC(:,1,:,1) : P-point X coord ( deg. or m if cartesian) */
(PID.TID 0000.0001)                 2.000000000000000E+00,      /* I =  1 */
(PID.TID 0000.0001)                 6.000000000000000E+00,      /* I =  2 */
(PID.TID 0000.0001)                 1.000000000000000E+01,      /* I =  3 */
(PID.TID 0000.0001)      . . .
(PID.TID 0000.0001)                 8.200000000000000E+01,      /* I = 21 */
(PID.TID 0000.0001)                 8.600000000000000E+01,      /* I = 22 */
(PID.TID 0000.0001)                 9.000000000000000E+01,      /* I = 23 */
(PID.TID 0000.0001)                 9.400000000000000E+01,      /* I = 24 */
(PID.TID 0000.0001)                 9.800000000000000E+01,      /* I = 25 */
(PID.TID 0000.0001)                 1.020000000000000E+02,      /* I = 26 */
(PID.TID 0000.0001)      . . .
(PID.TID 0000.0001)                 1.700000000000000E+02,      /* I = 43 */
(PID.TID 0000.0001)                 1.740000000000000E+02,      /* I = 44 */
(PID.TID 0000.0001)                 1.780000000000000E+02,      /* I = 45 */
(PID.TID 0000.0001)                 1.820000000000000E+02,      /* I = 46 */
(PID.TID 0000.0001)                 1.860000000000000E+02,      /* I = 47 */
(PID.TID 0000.0001)                 1.900000000000000E+02,      /* I = 48 */
(PID.TID 0000.0001)      . . .
(PID.TID 0000.0001)                 2.580000000000000E+02,      /* I = 65 */
(PID.TID 0000.0001)                 2.620000000000000E+02,      /* I = 66 */
(PID.TID 0000.0001)                 2.660000000000000E+02,      /* I = 67 */
(PID.TID 0000.0001)                 2.700000000000000E+02,      /* I = 68 */
(PID.TID 0000.0001)                 2.740000000000000E+02,      /* I = 69 */
(PID.TID 0000.0001)                 2.780000000000000E+02,      /* I = 70 */
(PID.TID 0000.0001)      . . .
(PID.TID 0000.0001)                 3.500000000000000E+02,      /* I = 88 */
(PID.TID 0000.0001)                 3.540000000000000E+02,      /* I = 89 */
(PID.TID 0000.0001)                 3.580000000000000E+02       /* I = 90 */
(PID.TID 0000.0001)     ;
(PID.TID 0000.0001) yC =  /* yC(1,:,1,:) : P-point Y coord ( deg. or m if cartesian) */
(PID.TID 0000.0001)                -7.800000000000000E+01,      /* J =  1 */
(PID.TID 0000.0001)                -7.400000000000000E+01,      /* J =  2 */
(PID.TID 0000.0001)                -7.000000000000000E+01,      /* J =  3 */
(PID.TID 0000.0001)                -6.600000000000000E+01,      /* J =  4 */
(PID.TID 0000.0001)                -6.200000000000000E+01,      /* J =  5 */
(PID.TID 0000.0001)                -5.800000000000000E+01,      /* J =  6 */
(PID.TID 0000.0001)                -5.400000000000000E+01,      /* J =  7 */
(PID.TID 0000.0001)                -5.000000000000000E+01,      /* J =  8 */
(PID.TID 0000.0001)                -4.600000000000000E+01,      /* J =  9 */
(PID.TID 0000.0001)                -4.200000000000000E+01,      /* J = 10 */
(PID.TID 0000.0001)                -3.800000000000000E+01,      /* J = 11 */
(PID.TID 0000.0001)                -3.400000000000000E+01,      /* J = 12 */
(PID.TID 0000.0001)                -3.000000000000000E+01,      /* J = 13 */
(PID.TID 0000.0001)                -2.600000000000000E+01,      /* J = 14 */
(PID.TID 0000.0001)                -2.200000000000000E+01,      /* J = 15 */
(PID.TID 0000.0001)                -1.800000000000000E+01,      /* J = 16 */
(PID.TID 0000.0001)                -1.400000000000000E+01,      /* J = 17 */
(PID.TID 0000.0001)                -1.000000000000000E+01,      /* J = 18 */
(PID.TID 0000.0001)                -6.000000000000000E+00,      /* J = 19 */
(PID.TID 0000.0001)                -2.000000000000000E+00,      /* J = 20 */
(PID.TID 0000.0001)                 2.000000000000000E+00,      /* J = 21 */
(PID.TID 0000.0001)                 6.000000000000000E+00,      /* J = 22 */
(PID.TID 0000.0001)                 1.000000000000000E+01,      /* J = 23 */
(PID.TID 0000.0001)                 1.400000000000000E+01,      /* J = 24 */
(PID.TID 0000.0001)                 1.800000000000000E+01,      /* J = 25 */
(PID.TID 0000.0001)                 2.200000000000000E+01,      /* J = 26 */
(PID.TID 0000.0001)                 2.600000000000000E+01,      /* J = 27 */
(PID.TID 0000.0001)                 3.000000000000000E+01,      /* J = 28 */
(PID.TID 0000.0001)                 3.400000000000000E+01,      /* J = 29 */
(PID.TID 0000.0001)                 3.800000000000000E+01,      /* J = 30 */
(PID.TID 0000.0001)                 4.200000000000000E+01,      /* J = 31 */
(PID.TID 0000.0001)                 4.600000000000000E+01,      /* J = 32 */
(PID.TID 0000.0001)                 5.000000000000000E+01,      /* J = 33 */
(PID.TID 0000.0001)                 5.400000000000000E+01,      /* J = 34 */
(PID.TID 0000.0001)                 5.800000000000000E+01,      /* J = 35 */
(PID.TID 0000.0001)                 6.200000000000000E+01,      /* J = 36 */
(PID.TID 0000.0001)                 6.600000000000000E+01,      /* J = 37 */
(PID.TID 0000.0001)                 7.000000000000000E+01,      /* J = 38 */
(PID.TID 0000.0001)                 7.400000000000000E+01,      /* J = 39 */
(PID.TID 0000.0001)                 7.800000000000000E+01       /* J = 40 */
(PID.TID 0000.0001)     ;
(PID.TID 0000.0001) rcoord = /* P-point R coordinate (  units of r ) */
(PID.TID 0000.0001)                -2.500000000000000E+01,      /* K =  1 */
(PID.TID 0000.0001)                -8.500000000000000E+01,      /* K =  2 */
(PID.TID 0000.0001)                -1.700000000000000E+02,      /* K =  3 */
(PID.TID 0000.0001)                -2.900000000000000E+02,      /* K =  4 */
(PID.TID 0000.0001)                -4.550000000000000E+02,      /* K =  5 */
(PID.TID 0000.0001)                -6.700000000000000E+02,      /* K =  6 */
(PID.TID 0000.0001)                -9.350000000000000E+02,      /* K =  7 */
(PID.TID 0000.0001)                -1.250000000000000E+03,      /* K =  8 */
(PID.TID 0000.0001)                -1.615000000000000E+03,      /* K =  9 */
(PID.TID 0000.0001)                -2.030000000000000E+03,      /* K = 10 */
(PID.TID 0000.0001)                -2.495000000000000E+03,      /* K = 11 */
(PID.TID 0000.0001)                -3.010000000000000E+03,      /* K = 12 */
(PID.TID 0000.0001)                -3.575000000000000E+03,      /* K = 13 */
(PID.TID 0000.0001)                -4.190000000000000E+03,      /* K = 14 */
(PID.TID 0000.0001)                -4.855000000000000E+03       /* K = 15 */
(PID.TID 0000.0001)     ;
(PID.TID 0000.0001) rF =   /* W-Interf. R coordinate (  units of r ) */
(PID.TID 0000.0001)                 0.000000000000000E+00,      /* K =  1 */
(PID.TID 0000.0001)                -5.000000000000000E+01,      /* K =  2 */
(PID.TID 0000.0001)                -1.200000000000000E+02,      /* K =  3 */
(PID.TID 0000.0001)                -2.200000000000000E+02,      /* K =  4 */
(PID.TID 0000.0001)                -3.600000000000000E+02,      /* K =  5 */
(PID.TID 0000.0001)                -5.500000000000000E+02,      /* K =  6 */
(PID.TID 0000.0001)                -7.900000000000000E+02,      /* K =  7 */
(PID.TID 0000.0001)                -1.080000000000000E+03,      /* K =  8 */
(PID.TID 0000.0001)                -1.420000000000000E+03,      /* K =  9 */
(PID.TID 0000.0001)                -1.810000000000000E+03,      /* K = 10 */
(PID.TID 0000.0001)                -2.250000000000000E+03,      /* K = 11 */
(PID.TID 0000.0001)                -2.740000000000000E+03,      /* K = 12 */
(PID.TID 0000.0001)                -3.280000000000000E+03,      /* K = 13 */
(PID.TID 0000.0001)                -3.870000000000000E+03,      /* K = 14 */
(PID.TID 0000.0001)                -4.510000000000000E+03,      /* K = 15 */
(PID.TID 0000.0001)                -5.200000000000000E+03       /* K = 16 */
(PID.TID 0000.0001)     ;
(PID.TID 0000.0001) deepFacC = /* deep-model grid factor @ cell-Center (-) */
(PID.TID 0000.0001)    15 @  1.000000000000000E+00              /* K =  1: 15 */
(PID.TID 0000.0001)     ;
(PID.TID 0000.0001) deepFacF = /* deep-model grid factor @ W-Interface (-) */
(PID.TID 0000.0001)    16 @  1.000000000000000E+00              /* K =  1: 16 */
(PID.TID 0000.0001)     ;
(PID.TID 0000.0001) rVel2wUnit = /* convert units: rVel -> wSpeed (=1 if z-coord)*/
(PID.TID 0000.0001)    16 @  1.000000000000000E+00              /* K =  1: 16 */
(PID.TID 0000.0001)     ;
(PID.TID 0000.0001) wUnit2rVel = /* convert units: wSpeed -> rVel (=1 if z-coord)*/
(PID.TID 0000.0001)    16 @  1.000000000000000E+00              /* K =  1: 16 */
(PID.TID 0000.0001)     ;
(PID.TID 0000.0001) dBdrRef = /* Vertical gradient of reference boyancy [(m/s/r)^2)] */
(PID.TID 0000.0001)    15 @  0.000000000000000E+00              /* K =  1: 15 */
(PID.TID 0000.0001)     ;
(PID.TID 0000.0001) rotateGrid = /* use rotated grid ( True/False ) */
(PID.TID 0000.0001)                   F
(PID.TID 0000.0001)     ;
(PID.TID 0000.0001) phiEuler = /* Euler angle, rotation about original z-coordinate [rad] */
(PID.TID 0000.0001)                 0.000000000000000E+00
(PID.TID 0000.0001)     ;
(PID.TID 0000.0001) thetaEuler = /* Euler angle, rotation about new x-coordinate [rad] */
(PID.TID 0000.0001)                 0.000000000000000E+00
(PID.TID 0000.0001)     ;
(PID.TID 0000.0001) psiEuler = /* Euler angle, rotation about new z-coordinate [rad] */
(PID.TID 0000.0001)                 0.000000000000000E+00
(PID.TID 0000.0001)     ;
(PID.TID 0000.0001) dxF =  /* dxF(:,1,:,1) ( units: m ) */
(PID.TID 0000.0001)    90 @  9.246038586187513E+04              /* I =  1: 90 */
(PID.TID 0000.0001)     ;
(PID.TID 0000.0001) dxF =  /* dxF(1,:,1,:) ( units: m ) */
(PID.TID 0000.0001)                 9.246038586187513E+04,      /* J =  1 */
(PID.TID 0000.0001)                 1.225786591246834E+05,      /* J =  2 */
(PID.TID 0000.0001)                 1.520997414818001E+05,      /* J =  3 */
(PID.TID 0000.0001)                 1.808798091874300E+05,      /* J =  4 */
(PID.TID 0000.0001)                 2.087786486446736E+05,      /* J =  5 */
(PID.TID 0000.0001)                 2.356603395120765E+05,      /* J =  6 */
(PID.TID 0000.0001)                 2.613939168938713E+05,      /* J =  7 */
(PID.TID 0000.0001)                 2.858540093877838E+05,      /* J =  8 */
(PID.TID 0000.0001)                 3.089214498819034E+05,      /* J =  9 */
(PID.TID 0000.0001)                 3.304838561248741E+05,      /* J = 10 */
(PID.TID 0000.0001)                 3.504361782409254E+05,      /* J = 11 */
(PID.TID 0000.0001)                 3.686812105223082E+05,      /* J = 12 */
(PID.TID 0000.0001)                 3.851300650057323E+05,      /* J = 13 */
(PID.TID 0000.0001)                 3.997026045255871E+05,      /* J = 14 */
(PID.TID 0000.0001)                 4.123278331341585E+05,      /* J = 15 */
(PID.TID 0000.0001)                 4.229442419867491E+05,      /* J = 16 */
(PID.TID 0000.0001)                 4.315001090065870E+05,      /* J = 17 */
(PID.TID 0000.0001)                 4.379537508695838E+05,      /* J = 18 */
(PID.TID 0000.0001)                 4.422737260813012E+05,      /* J = 19 */
(PID.TID 0000.0001)     2 @  4.444389881567502E+05,             /* J = 20: 21 */
(PID.TID 0000.0001)                 4.422737260813012E+05,      /* J = 22 */
(PID.TID 0000.0001)                 4.379537508695838E+05,      /* J = 23 */
(PID.TID 0000.0001)                 4.315001090065870E+05,      /* J = 24 */
(PID.TID 0000.0001)                 4.229442419867491E+05,      /* J = 25 */
(PID.TID 0000.0001)                 4.123278331341585E+05,      /* J = 26 */
(PID.TID 0000.0001)                 3.997026045255871E+05,      /* J = 27 */
(PID.TID 0000.0001)                 3.851300650057323E+05,      /* J = 28 */
(PID.TID 0000.0001)                 3.686812105223082E+05,      /* J = 29 */
(PID.TID 0000.0001)                 3.504361782409254E+05,      /* J = 30 */
(PID.TID 0000.0001)                 3.304838561248741E+05,      /* J = 31 */
(PID.TID 0000.0001)                 3.089214498819034E+05,      /* J = 32 */
(PID.TID 0000.0001)                 2.858540093877838E+05,      /* J = 33 */
(PID.TID 0000.0001)                 2.613939168938713E+05,      /* J = 34 */
(PID.TID 0000.0001)                 2.356603395120765E+05,      /* J = 35 */
(PID.TID 0000.0001)                 2.087786486446736E+05,      /* J = 36 */
(PID.TID 0000.0001)                 1.808798091874300E+05,      /* J = 37 */
(PID.TID 0000.0001)                 1.520997414818001E+05,      /* J = 38 */
(PID.TID 0000.0001)                 1.225786591246834E+05,      /* J = 39 */
(PID.TID 0000.0001)                 9.246038586187513E+04       /* J = 40 */
(PID.TID 0000.0001)     ;
(PID.TID 0000.0001) dyF =  /* dyF(:,1,:,1) ( units: m ) */
(PID.TID 0000.0001)    90 @  4.447098934081552E+05              /* I =  1: 90 */
(PID.TID 0000.0001)     ;
(PID.TID 0000.0001) dyF =  /* dyF(1,:,1,:) ( units: m ) */
(PID.TID 0000.0001)    40 @  4.447098934081552E+05              /* J =  1: 40 */
(PID.TID 0000.0001)     ;
(PID.TID 0000.0001) dxG =  /* dxG(:,1,:,1) ( units: m ) */
(PID.TID 0000.0001)    90 @  7.722306258078101E+04              /* I =  1: 90 */
(PID.TID 0000.0001)     ;
(PID.TID 0000.0001) dxG =  /* dxG(1,:,1,:) ( units: m ) */
(PID.TID 0000.0001)                 7.722306258078101E+04,      /* J =  1 */
(PID.TID 0000.0001)                 1.075850604052271E+05,      /* J =  2 */
(PID.TID 0000.0001)                 1.374229146297914E+05,      /* J =  3 */
(PID.TID 0000.0001)                 1.665912582279823E+05,      /* J =  4 */
(PID.TID 0000.0001)                 1.949479859617814E+05,      /* J =  5 */
(PID.TID 0000.0001)                 2.223549467040777E+05,      /* J =  6 */
(PID.TID 0000.0001)                 2.486786164970726E+05,      /* J =  7 */
(PID.TID 0000.0001)                 2.737907490675810E+05,      /* J =  8 */
(PID.TID 0000.0001)                 2.975690006299821E+05,      /* J =  9 */
(PID.TID 0000.0001)                 3.198975259328452E+05,      /* J = 10 */
(PID.TID 0000.0001)                 3.406675426453503E+05,      /* J = 11 */
(PID.TID 0000.0001)                 3.597778613338690E+05,      /* J = 12 */
(PID.TID 0000.0001)                 3.771353784467131E+05,      /* J = 13 */
(PID.TID 0000.0001)                 3.926555299052806E+05,      /* J = 14 */
(PID.TID 0000.0001)                 4.062627030917454E+05,      /* J = 15 */
(PID.TID 0000.0001)                 4.178906052261313E+05,      /* J = 16 */
(PID.TID 0000.0001)                 4.274825863380723E+05,      /* J = 17 */
(PID.TID 0000.0001)                 4.349919152597734E+05,      /* J = 18 */
(PID.TID 0000.0001)                 4.403820072955634E+05,      /* J = 19 */
(PID.TID 0000.0001)                 4.436266024588540E+05,      /* J = 20 */
(PID.TID 0000.0001)                 4.447098934081552E+05,      /* J = 21 */
(PID.TID 0000.0001)                 4.436266024588540E+05,      /* J = 22 */
(PID.TID 0000.0001)                 4.403820072955634E+05,      /* J = 23 */
(PID.TID 0000.0001)                 4.349919152597734E+05,      /* J = 24 */
(PID.TID 0000.0001)                 4.274825863380723E+05,      /* J = 25 */
(PID.TID 0000.0001)                 4.178906052261313E+05,      /* J = 26 */
(PID.TID 0000.0001)                 4.062627030917454E+05,      /* J = 27 */
(PID.TID 0000.0001)                 3.926555299052806E+05,      /* J = 28 */
(PID.TID 0000.0001)                 3.771353784467131E+05,      /* J = 29 */
(PID.TID 0000.0001)                 3.597778613338690E+05,      /* J = 30 */
(PID.TID 0000.0001)                 3.406675426453503E+05,      /* J = 31 */
(PID.TID 0000.0001)                 3.198975259328452E+05,      /* J = 32 */
(PID.TID 0000.0001)                 2.975690006299821E+05,      /* J = 33 */
(PID.TID 0000.0001)                 2.737907490675810E+05,      /* J = 34 */
(PID.TID 0000.0001)                 2.486786164970726E+05,      /* J = 35 */
(PID.TID 0000.0001)                 2.223549467040777E+05,      /* J = 36 */
(PID.TID 0000.0001)                 1.949479859617814E+05,      /* J = 37 */
(PID.TID 0000.0001)                 1.665912582279823E+05,      /* J = 38 */
(PID.TID 0000.0001)                 1.374229146297914E+05,      /* J = 39 */
(PID.TID 0000.0001)                 1.075850604052271E+05       /* J = 40 */
(PID.TID 0000.0001)     ;
(PID.TID 0000.0001) dyG =  /* dyG(:,1,:,1) ( units: m ) */
(PID.TID 0000.0001)    90 @  4.447098934081552E+05              /* I =  1: 90 */
(PID.TID 0000.0001)     ;
(PID.TID 0000.0001) dyG =  /* dyG(1,:,1,:) ( units: m ) */
(PID.TID 0000.0001)    40 @  4.447098934081552E+05              /* J =  1: 40 */
(PID.TID 0000.0001)     ;
(PID.TID 0000.0001) dxC =  /* dxC(:,1,:,1) ( units: m ) */
(PID.TID 0000.0001)    90 @  9.246038586187513E+04              /* I =  1: 90 */
(PID.TID 0000.0001)     ;
(PID.TID 0000.0001) dxC =  /* dxC(1,:,1,:) ( units: m ) */
(PID.TID 0000.0001)                 9.246038586187513E+04,      /* J =  1 */
(PID.TID 0000.0001)                 1.225786591246834E+05,      /* J =  2 */
(PID.TID 0000.0001)                 1.520997414818001E+05,      /* J =  3 */
(PID.TID 0000.0001)                 1.808798091874300E+05,      /* J =  4 */
(PID.TID 0000.0001)                 2.087786486446736E+05,      /* J =  5 */
(PID.TID 0000.0001)                 2.356603395120765E+05,      /* J =  6 */
(PID.TID 0000.0001)                 2.613939168938713E+05,      /* J =  7 */
(PID.TID 0000.0001)                 2.858540093877838E+05,      /* J =  8 */
(PID.TID 0000.0001)                 3.089214498819034E+05,      /* J =  9 */
(PID.TID 0000.0001)                 3.304838561248741E+05,      /* J = 10 */
(PID.TID 0000.0001)                 3.504361782409254E+05,      /* J = 11 */
(PID.TID 0000.0001)                 3.686812105223082E+05,      /* J = 12 */
(PID.TID 0000.0001)                 3.851300650057323E+05,      /* J = 13 */
(PID.TID 0000.0001)                 3.997026045255871E+05,      /* J = 14 */
(PID.TID 0000.0001)                 4.123278331341585E+05,      /* J = 15 */
(PID.TID 0000.0001)                 4.229442419867491E+05,      /* J = 16 */
(PID.TID 0000.0001)                 4.315001090065870E+05,      /* J = 17 */
(PID.TID 0000.0001)                 4.379537508695838E+05,      /* J = 18 */
(PID.TID 0000.0001)                 4.422737260813012E+05,      /* J = 19 */
(PID.TID 0000.0001)     2 @  4.444389881567502E+05,             /* J = 20: 21 */
(PID.TID 0000.0001)                 4.422737260813012E+05,      /* J = 22 */
(PID.TID 0000.0001)                 4.379537508695838E+05,      /* J = 23 */
(PID.TID 0000.0001)                 4.315001090065870E+05,      /* J = 24 */
(PID.TID 0000.0001)                 4.229442419867491E+05,      /* J = 25 */
(PID.TID 0000.0001)                 4.123278331341585E+05,      /* J = 26 */
(PID.TID 0000.0001)                 3.997026045255871E+05,      /* J = 27 */
(PID.TID 0000.0001)                 3.851300650057323E+05,      /* J = 28 */
(PID.TID 0000.0001)                 3.686812105223082E+05,      /* J = 29 */
(PID.TID 0000.0001)                 3.504361782409254E+05,      /* J = 30 */
(PID.TID 0000.0001)                 3.304838561248741E+05,      /* J = 31 */
(PID.TID 0000.0001)                 3.089214498819034E+05,      /* J = 32 */
(PID.TID 0000.0001)                 2.858540093877838E+05,      /* J = 33 */
(PID.TID 0000.0001)                 2.613939168938713E+05,      /* J = 34 */
(PID.TID 0000.0001)                 2.356603395120765E+05,      /* J = 35 */
(PID.TID 0000.0001)                 2.087786486446736E+05,      /* J = 36 */
(PID.TID 0000.0001)                 1.808798091874300E+05,      /* J = 37 */
(PID.TID 0000.0001)                 1.520997414818001E+05,      /* J = 38 */
(PID.TID 0000.0001)                 1.225786591246834E+05,      /* J = 39 */
(PID.TID 0000.0001)                 9.246038586187513E+04       /* J = 40 */
(PID.TID 0000.0001)     ;
(PID.TID 0000.0001) dyC =  /* dyC(:,1,:,1) ( units: m ) */
(PID.TID 0000.0001)    90 @  4.447098934081552E+05              /* I =  1: 90 */
(PID.TID 0000.0001)     ;
(PID.TID 0000.0001) dyC =  /* dyC(1,:,1,:) ( units: m ) */
(PID.TID 0000.0001)    40 @  4.447098934081552E+05              /* J =  1: 40 */
(PID.TID 0000.0001)     ;
(PID.TID 0000.0001) dxV =  /* dxV(:,1,:,1) ( units: m ) */
(PID.TID 0000.0001)    90 @  7.722306258078101E+04              /* I =  1: 90 */
(PID.TID 0000.0001)     ;
(PID.TID 0000.0001) dxV =  /* dxV(1,:,1,:) ( units: m ) */
(PID.TID 0000.0001)                 7.722306258078101E+04,      /* J =  1 */
(PID.TID 0000.0001)                 1.075850604052271E+05,      /* J =  2 */
(PID.TID 0000.0001)                 1.374229146297914E+05,      /* J =  3 */
(PID.TID 0000.0001)                 1.665912582279823E+05,      /* J =  4 */
(PID.TID 0000.0001)                 1.949479859617814E+05,      /* J =  5 */
(PID.TID 0000.0001)                 2.223549467040777E+05,      /* J =  6 */
(PID.TID 0000.0001)                 2.486786164970726E+05,      /* J =  7 */
(PID.TID 0000.0001)                 2.737907490675810E+05,      /* J =  8 */
(PID.TID 0000.0001)                 2.975690006299821E+05,      /* J =  9 */
(PID.TID 0000.0001)                 3.198975259328452E+05,      /* J = 10 */
(PID.TID 0000.0001)                 3.406675426453503E+05,      /* J = 11 */
(PID.TID 0000.0001)                 3.597778613338690E+05,      /* J = 12 */
(PID.TID 0000.0001)                 3.771353784467131E+05,      /* J = 13 */
(PID.TID 0000.0001)                 3.926555299052806E+05,      /* J = 14 */
(PID.TID 0000.0001)                 4.062627030917454E+05,      /* J = 15 */
(PID.TID 0000.0001)                 4.178906052261313E+05,      /* J = 16 */
(PID.TID 0000.0001)                 4.274825863380723E+05,      /* J = 17 */
(PID.TID 0000.0001)                 4.349919152597734E+05,      /* J = 18 */
(PID.TID 0000.0001)                 4.403820072955634E+05,      /* J = 19 */
(PID.TID 0000.0001)                 4.436266024588540E+05,      /* J = 20 */
(PID.TID 0000.0001)                 4.447098934081552E+05,      /* J = 21 */
(PID.TID 0000.0001)                 4.436266024588540E+05,      /* J = 22 */
(PID.TID 0000.0001)                 4.403820072955634E+05,      /* J = 23 */
(PID.TID 0000.0001)                 4.349919152597734E+05,      /* J = 24 */
(PID.TID 0000.0001)                 4.274825863380723E+05,      /* J = 25 */
(PID.TID 0000.0001)                 4.178906052261313E+05,      /* J = 26 */
(PID.TID 0000.0001)                 4.062627030917454E+05,      /* J = 27 */
(PID.TID 0000.0001)                 3.926555299052806E+05,      /* J = 28 */
(PID.TID 0000.0001)                 3.771353784467131E+05,      /* J = 29 */
(PID.TID 0000.0001)                 3.597778613338690E+05,      /* J = 30 */
(PID.TID 0000.0001)                 3.406675426453503E+05,      /* J = 31 */
(PID.TID 0000.0001)                 3.198975259328452E+05,      /* J = 32 */
(PID.TID 0000.0001)                 2.975690006299821E+05,      /* J = 33 */
(PID.TID 0000.0001)                 2.737907490675810E+05,      /* J = 34 */
(PID.TID 0000.0001)                 2.486786164970726E+05,      /* J = 35 */
(PID.TID 0000.0001)                 2.223549467040777E+05,      /* J = 36 */
(PID.TID 0000.0001)                 1.949479859617814E+05,      /* J = 37 */
(PID.TID 0000.0001)                 1.665912582279823E+05,      /* J = 38 */
(PID.TID 0000.0001)                 1.374229146297914E+05,      /* J = 39 */
(PID.TID 0000.0001)                 1.075850604052271E+05       /* J = 40 */
(PID.TID 0000.0001)     ;
(PID.TID 0000.0001) dyU =  /* dyU(:,1,:,1) ( units: m ) */
(PID.TID 0000.0001)    90 @  4.447098934081552E+05              /* I =  1: 90 */
(PID.TID 0000.0001)     ;
(PID.TID 0000.0001) dyU =  /* dyU(1,:,1,:) ( units: m ) */
(PID.TID 0000.0001)    40 @  4.447098934081552E+05              /* J =  1: 40 */
(PID.TID 0000.0001)     ;
(PID.TID 0000.0001) rA  =  /* rA (:,1,:,1) ( units: m^2 ) */
(PID.TID 0000.0001)    90 @  4.110969866729047E+10              /* I =  1: 90 */
(PID.TID 0000.0001)     ;
(PID.TID 0000.0001) rA  =  /* rA (1,:,1,:) ( units: m^2 ) */
(PID.TID 0000.0001)                 4.110969866729047E+10,      /* J =  1 */
(PID.TID 0000.0001)                 5.450087291636665E+10,      /* J =  2 */
(PID.TID 0000.0001)                 6.762652439100235E+10,      /* J =  3 */
(PID.TID 0000.0001)                 8.042270623659998E+10,      /* J =  4 */
(PID.TID 0000.0001)                 9.282707674147523E+10,      /* J =  5 */
(PID.TID 0000.0001)                 1.047792030594103E+11,      /* J =  6 */
(PID.TID 0000.0001)                 1.162208556324093E+11,      /* J =  7 */
(PID.TID 0000.0001)                 1.270962918792468E+11,      /* J =  8 */
(PID.TID 0000.0001)                 1.373525277677229E+11,      /* J =  9 */
(PID.TID 0000.0001)                 1.469395959475426E+11,      /* J = 10 */
(PID.TID 0000.0001)                 1.558107891862220E+11,      /* J = 11 */
(PID.TID 0000.0001)                 1.639228879220326E+11,      /* J = 12 */
(PID.TID 0000.0001)                 1.712363708253573E+11,      /* J = 13 */
(PID.TID 0000.0001)                 1.777156073426415E+11,      /* J = 14 */
(PID.TID 0000.0001)                 1.833290312848623E+11,      /* J = 15 */
(PID.TID 0000.0001)                 1.880492946148330E+11,      /* J = 16 */
(PID.TID 0000.0001)                 1.918534006840893E+11,      /* J = 17 */
(PID.TID 0000.0001)                 1.947228162702492E+11,      /* J = 18 */
(PID.TID 0000.0001)                 1.966435618690094E+11,      /* J = 19 */
(PID.TID 0000.0001)     2 @  1.976062798008856E+11,             /* J = 20: 21 */
(PID.TID 0000.0001)                 1.966435618690094E+11,      /* J = 22 */
(PID.TID 0000.0001)                 1.947228162702492E+11,      /* J = 23 */
(PID.TID 0000.0001)                 1.918534006840893E+11,      /* J = 24 */
(PID.TID 0000.0001)                 1.880492946148330E+11,      /* J = 25 */
(PID.TID 0000.0001)                 1.833290312848623E+11,      /* J = 26 */
(PID.TID 0000.0001)                 1.777156073426415E+11,      /* J = 27 */
(PID.TID 0000.0001)                 1.712363708253573E+11,      /* J = 28 */
(PID.TID 0000.0001)                 1.639228879220326E+11,      /* J = 29 */
(PID.TID 0000.0001)                 1.558107891862220E+11,      /* J = 30 */
(PID.TID 0000.0001)                 1.469395959475426E+11,      /* J = 31 */
(PID.TID 0000.0001)                 1.373525277677229E+11,      /* J = 32 */
(PID.TID 0000.0001)                 1.270962918792468E+11,      /* J = 33 */
(PID.TID 0000.0001)                 1.162208556324093E+11,      /* J = 34 */
(PID.TID 0000.0001)                 1.047792030594103E+11,      /* J = 35 */
(PID.TID 0000.0001)                 9.282707674147523E+10,      /* J = 36 */
(PID.TID 0000.0001)                 8.042270623659998E+10,      /* J = 37 */
(PID.TID 0000.0001)                 6.762652439100235E+10,      /* J = 38 */
(PID.TID 0000.0001)                 5.450087291636665E+10,      /* J = 39 */
(PID.TID 0000.0001)                 4.110969866729047E+10       /* J = 40 */
(PID.TID 0000.0001)     ;
(PID.TID 0000.0001) rAw =  /* rAw(:,1,:,1) ( units: m^2 ) */
(PID.TID 0000.0001)    90 @  4.110969866729047E+10              /* I =  1: 90 */
(PID.TID 0000.0001)     ;
(PID.TID 0000.0001) rAw =  /* rAw(1,:,1,:) ( units: m^2 ) */
(PID.TID 0000.0001)                 4.110969866729047E+10,      /* J =  1 */
(PID.TID 0000.0001)                 5.450087291636665E+10,      /* J =  2 */
(PID.TID 0000.0001)                 6.762652439100235E+10,      /* J =  3 */
(PID.TID 0000.0001)                 8.042270623659998E+10,      /* J =  4 */
(PID.TID 0000.0001)                 9.282707674147523E+10,      /* J =  5 */
(PID.TID 0000.0001)                 1.047792030594103E+11,      /* J =  6 */
(PID.TID 0000.0001)                 1.162208556324093E+11,      /* J =  7 */
(PID.TID 0000.0001)                 1.270962918792468E+11,      /* J =  8 */
(PID.TID 0000.0001)                 1.373525277677229E+11,      /* J =  9 */
(PID.TID 0000.0001)                 1.469395959475426E+11,      /* J = 10 */
(PID.TID 0000.0001)                 1.558107891862220E+11,      /* J = 11 */
(PID.TID 0000.0001)                 1.639228879220326E+11,      /* J = 12 */
(PID.TID 0000.0001)                 1.712363708253573E+11,      /* J = 13 */
(PID.TID 0000.0001)                 1.777156073426415E+11,      /* J = 14 */
(PID.TID 0000.0001)                 1.833290312848623E+11,      /* J = 15 */
(PID.TID 0000.0001)                 1.880492946148330E+11,      /* J = 16 */
(PID.TID 0000.0001)                 1.918534006840893E+11,      /* J = 17 */
(PID.TID 0000.0001)                 1.947228162702492E+11,      /* J = 18 */
(PID.TID 0000.0001)                 1.966435618690094E+11,      /* J = 19 */
(PID.TID 0000.0001)     2 @  1.976062798008856E+11,             /* J = 20: 21 */
(PID.TID 0000.0001)                 1.966435618690094E+11,      /* J = 22 */
(PID.TID 0000.0001)                 1.947228162702492E+11,      /* J = 23 */
(PID.TID 0000.0001)                 1.918534006840893E+11,      /* J = 24 */
(PID.TID 0000.0001)                 1.880492946148330E+11,      /* J = 25 */
(PID.TID 0000.0001)                 1.833290312848623E+11,      /* J = 26 */
(PID.TID 0000.0001)                 1.777156073426415E+11,      /* J = 27 */
(PID.TID 0000.0001)                 1.712363708253573E+11,      /* J = 28 */
(PID.TID 0000.0001)                 1.639228879220326E+11,      /* J = 29 */
(PID.TID 0000.0001)                 1.558107891862220E+11,      /* J = 30 */
(PID.TID 0000.0001)                 1.469395959475426E+11,      /* J = 31 */
(PID.TID 0000.0001)                 1.373525277677229E+11,      /* J = 32 */
(PID.TID 0000.0001)                 1.270962918792468E+11,      /* J = 33 */
(PID.TID 0000.0001)                 1.162208556324093E+11,      /* J = 34 */
(PID.TID 0000.0001)                 1.047792030594103E+11,      /* J = 35 */
(PID.TID 0000.0001)                 9.282707674147523E+10,      /* J = 36 */
(PID.TID 0000.0001)                 8.042270623659998E+10,      /* J = 37 */
(PID.TID 0000.0001)                 6.762652439100235E+10,      /* J = 38 */
(PID.TID 0000.0001)                 5.450087291636665E+10,      /* J = 39 */
(PID.TID 0000.0001)                 4.110969866729047E+10       /* J = 40 */
(PID.TID 0000.0001)     ;
(PID.TID 0000.0001) rAs =  /* rAs(:,1,:,1) ( units: m^2 ) */
(PID.TID 0000.0001)    90 @  3.433488626798250E+10              /* I =  1: 90 */
(PID.TID 0000.0001)     ;
(PID.TID 0000.0001) rAs =  /* rAs(1,:,1,:) ( units: m^2 ) */
(PID.TID 0000.0001)                 3.433488626798250E+10,      /* J =  1 */
(PID.TID 0000.0001)                 4.783442523123625E+10,      /* J =  2 */
(PID.TID 0000.0001)                 6.110091968306414E+10,      /* J =  3 */
(PID.TID 0000.0001)                 7.406973659603818E+10,      /* J =  4 */
(PID.TID 0000.0001)                 8.667769319778079E+10,      /* J =  5 */
(PID.TID 0000.0001)                 9.886336479107463E+10,      /* J =  6 */
(PID.TID 0000.0001)                 1.105673840088173E+11,      /* J =  7 */
(PID.TID 0000.0001)                 1.217327300458638E+11,      /* J =  8 */
(PID.TID 0000.0001)                 1.323050064586578E+11,      /* J =  9 */
(PID.TID 0000.0001)                 1.422327061792377E+11,      /* J = 10 */
(PID.TID 0000.0001)                 1.514674624524945E+11,      /* J = 11 */
(PID.TID 0000.0001)                 1.599642844741385E+11,      /* J = 12 */
(PID.TID 0000.0001)                 1.676817765813788E+11,      /* J = 13 */
(PID.TID 0000.0001)                 1.745823399284268E+11,      /* J = 14 */
(PID.TID 0000.0001)                 1.806323556642996E+11,      /* J = 15 */
(PID.TID 0000.0001)                 1.858023487204767E+11,      /* J = 16 */
(PID.TID 0000.0001)                 1.900671314104743E+11,      /* J = 17 */
(PID.TID 0000.0001)                 1.934059261417216E+11,      /* J = 18 */
(PID.TID 0000.0001)                 1.958024666419019E+11,      /* J = 19 */
(PID.TID 0000.0001)                 1.972450772065981E+11,      /* J = 20 */
(PID.TID 0000.0001)                 1.977267295821495E+11,      /* J = 21 */
(PID.TID 0000.0001)                 1.972450772065981E+11,      /* J = 22 */
(PID.TID 0000.0001)                 1.958024666419019E+11,      /* J = 23 */
(PID.TID 0000.0001)                 1.934059261417216E+11,      /* J = 24 */
(PID.TID 0000.0001)                 1.900671314104743E+11,      /* J = 25 */
(PID.TID 0000.0001)                 1.858023487204767E+11,      /* J = 26 */
(PID.TID 0000.0001)                 1.806323556642996E+11,      /* J = 27 */
(PID.TID 0000.0001)                 1.745823399284268E+11,      /* J = 28 */
(PID.TID 0000.0001)                 1.676817765813788E+11,      /* J = 29 */
(PID.TID 0000.0001)                 1.599642844741385E+11,      /* J = 30 */
(PID.TID 0000.0001)                 1.514674624524945E+11,      /* J = 31 */
(PID.TID 0000.0001)                 1.422327061792377E+11,      /* J = 32 */
(PID.TID 0000.0001)                 1.323050064586578E+11,      /* J = 33 */
(PID.TID 0000.0001)                 1.217327300458638E+11,      /* J = 34 */
(PID.TID 0000.0001)                 1.105673840088173E+11,      /* J = 35 */
(PID.TID 0000.0001)                 9.886336479107463E+10,      /* J = 36 */
(PID.TID 0000.0001)                 8.667769319778079E+10,      /* J = 37 */
(PID.TID 0000.0001)                 7.406973659603818E+10,      /* J = 38 */
(PID.TID 0000.0001)                 6.110091968306414E+10,      /* J = 39 */
(PID.TID 0000.0001)                 4.783442523123625E+10       /* J = 40 */
(PID.TID 0000.0001)     ;
(PID.TID 0000.0001) globalArea = /* Integrated horizontal Area (m^2) */
(PID.TID 0000.0001)                 3.450614146649749E+14
(PID.TID 0000.0001)     ;
(PID.TID 0000.0001) the_run_name = /* Name of this simulation */
(PID.TID 0000.0001)               'global_ocean.90x40x15'
(PID.TID 0000.0001)     ;
(PID.TID 0000.0001) // =======================================================
(PID.TID 0000.0001) // End of Model config. summary
(PID.TID 0000.0001) // =======================================================
(PID.TID 0000.0001) 
(PID.TID 0000.0001) == Packages configuration : Check & print summary ==
(PID.TID 0000.0001) 
(PID.TID 0000.0001) GAD_CHECK: #define ALLOW_GENERIC_ADVDIFF
(PID.TID 0000.0001) GMREDI_CHECK: #define GMREDI
(PID.TID 0000.0001) GM_AdvForm =     /* if FALSE => use SkewFlux Form */
(PID.TID 0000.0001)                   T
(PID.TID 0000.0001)     ;
(PID.TID 0000.0001) GM_InMomAsStress = /* if TRUE => apply as Eddy Stress */
(PID.TID 0000.0001)                   F
(PID.TID 0000.0001)     ;
(PID.TID 0000.0001) GM_AdvSeparate = /* Calc Bolus & Euler Adv. separately */
(PID.TID 0000.0001)                   F
(PID.TID 0000.0001)     ;
(PID.TID 0000.0001) GM_ExtraDiag =   /* Tensor Extra Diag (line 1&2) non 0 */
(PID.TID 0000.0001)                   T
(PID.TID 0000.0001)     ;
(PID.TID 0000.0001) GM_isopycK =    /* Background Isopyc. Diffusivity [m^2/s] */
(PID.TID 0000.0001)                 1.000000000000000E+03
(PID.TID 0000.0001)     ;
(PID.TID 0000.0001) GM_skewflx*K =  /* Background GM_SkewFlx Diffusivity [m^2/s] */
(PID.TID 0000.0001)                 0.000000000000000E+00
(PID.TID 0000.0001)     ;
(PID.TID 0000.0001) GM_advec*K =    /* Backg. GM-Advec(=Bolus) Diffusivity [m^2/s]*/
(PID.TID 0000.0001)                 6.000000000000000E+02
(PID.TID 0000.0001)     ;
(PID.TID 0000.0001) GM_Kmin_horiz = /* Minimum Horizontal Diffusivity [m^2/s] */
(PID.TID 0000.0001)                 6.000000000000000E+02
(PID.TID 0000.0001)     ;
(PID.TID 0000.0001) GM_Visbeck_alpha = /* Visbeck alpha coeff. [-] */
(PID.TID 0000.0001)                 0.000000000000000E+00
(PID.TID 0000.0001)     ;
(PID.TID 0000.0001) GM_Small_Number =  /* epsilon used in slope calc */
(PID.TID 0000.0001)                 9.999999999999999E-21
(PID.TID 0000.0001)     ;
(PID.TID 0000.0001) GM_slopeSqCutoff = /* Slope^2 cut-off value */
(PID.TID 0000.0001)                 1.000000000000000E+48
(PID.TID 0000.0001)     ;
(PID.TID 0000.0001) GM_taper_scheme =  /* Type of Tapering/Clipping scheme */
(PID.TID 0000.0001)               'gkw91                                   '
(PID.TID 0000.0001)     ;
(PID.TID 0000.0001) GM_maxSlope =  /* Maximum Slope (Tapering/Clipping) */
(PID.TID 0000.0001)                 1.000000000000000E-02
(PID.TID 0000.0001)     ;
(PID.TID 0000.0001) GM_facTrL2dz = /* Minimum Trans.Layer Thick. (factor of dz) */
(PID.TID 0000.0001)                 1.000000000000000E+00
(PID.TID 0000.0001)     ;
(PID.TID 0000.0001) GM_facTrL2ML = /* Max.Trans.Layer Thick. (factor of MxL Depth)*/
(PID.TID 0000.0001)                 5.000000000000000E+00
(PID.TID 0000.0001)     ;
(PID.TID 0000.0001) GM_maxTransLay = /* Maximum Transition Layer Thickness [m] */
(PID.TID 0000.0001)                 5.000000000000000E+02
(PID.TID 0000.0001)     ;
(PID.TID 0000.0001) // =======================================================
(PID.TID 0000.0001) // CONFIG_CHECK : Normal End
(PID.TID 0000.0001) // =======================================================
(PID.TID 0000.0001) 
(PID.TID 0000.0001)  MDS_READ_META: opening file: pickup.0000036000.meta
(PID.TID 0000.0001)  nRecords =   0 ; filePrec =  64 ; fileIter =         0
(PID.TID 0000.0001)     nDims =   0 , dims:
(PID.TID 0000.0001)     nFlds =   0 , nFl3D =   0 , fields:
(PID.TID 0000.0001)   nTimRec =   0 , timeList:
(PID.TID 0000.0001)  MDS_READ_FIELD: opening global file: pickup.0000036000
(PID.TID 0000.0001)  MDS_READ_FIELD: opening global file: pickup.0000036000
(PID.TID 0000.0001)  MDS_READ_FIELD: opening global file: pickup.0000036000
(PID.TID 0000.0001)  MDS_READ_FIELD: opening global file: pickup.0000036000
(PID.TID 0000.0001)  MDS_READ_FIELD: opening global file: pickup.0000036000
(PID.TID 0000.0001)  MDS_READ_FIELD: opening global file: pickup.0000036000
(PID.TID 0000.0001)  MDS_READ_FIELD: opening global file: pickup.0000036000
(PID.TID 0000.0001)  MDS_READ_FIELD: opening global file: pickup.0000036000
(PID.TID 0000.0001)  MDS_READ_FIELD: opening global file: pickup.0000036000
(PID.TID 0000.0001)  MDS_READ_FIELD: opening global file: pickup.0000036000
(PID.TID 0000.0001)  MDS_READ_FIELD: opening global file: pickup_ph.0000036000
(PID.TID 0000.0001) READ_MFLDS_CHECK: - normal end ; reset MFLDS file-name: pickup.0000036000
(PID.TID 0000.0001)  MDS_READ_FIELD: opening global file: trenberth_taux.bin
(PID.TID 0000.0001)  MDS_READ_FIELD: opening global file: trenberth_tauy.bin
(PID.TID 0000.0001)  MDS_READ_FIELD: opening global file: ncep_qnet.bin
(PID.TID 0000.0001)  MDS_READ_FIELD: opening global file: ncep_emp.bin
(PID.TID 0000.0001)  MDS_READ_FIELD: opening global file: lev_sst.bin
(PID.TID 0000.0001)  MDS_READ_FIELD: opening global file: lev_sss.bin
(PID.TID 0000.0001)  write diagnostics summary to file ioUnit:      6
Iter.Nb:     36000 ; Time(s):  3.1104000000000E+09
------------------------------------------------------------------------
2D/3D diagnostics: Number of lists:     3
------------------------------------------------------------------------
listId=    1 ; file name: surfDiag
 nFlds, nActive,       freq     &     phase        , nLev               
    7  |    7  |    864000.000000         0.000000 |   1
 levels:   1
 diag# | name   |   ipt  |  iMate | kLev|   count |   mate.C|           
    23 |ETAN    |      1 |      0 |   1 |       0 |
    24 |ETANSQ  |      2 |      0 |   1 |       0 |
    25 |DETADT2 |      3 |      0 |   1 |       0 |
    69 |PHIBOT  |      4 |      0 |   1 |       0 |
    70 |PHIBOTSQ|      5 |      0 |   1 |       0 |
   188 |DSLPuFlw|      6 |      7 |   1 |       0 |       0 |
   189 |DSLPvFlw|      7 |      6 |   1 |       0 |       0 |
------------------------------------------------------------------------
listId=    2 ; file name: dynDiag
 nFlds, nActive,       freq     &     phase        , nLev               
    6  |    6  |    864000.000000         0.000000 |  15
 levels:   1   2   3   4   5   6   7   8   9  10  11  12  13  14  15
 diag# | name   |   ipt  |  iMate | kLev|   count |   mate.C|           
    45 |UVELMASS|      8 |     23 |  15 |       0 |       0 |
    46 |VVELMASS|     23 |      8 |  15 |       0 |       0 |
    32 |WVEL    |     38 |      0 |  15 |       0 |
    26 |THETA   |     53 |      0 |  15 |       0 |
    27 |SALT    |     68 |      0 |  15 |       0 |
    38 |WVELSQ  |     83 |      0 |  15 |       0 |
------------------------------------------------------------------------
listId=    3 ; file name: oceDiag
 nFlds, nActive,       freq     &     phase        , nLev               
    7  |    7  |    864000.000000         0.000000 |  15
 levels:   1   2   3   4   5   6   7   8   9  10  11  12  13  14  15
 diag# | name   |   ipt  |  iMate | kLev|   count |   mate.C|           
    62 |RHOAnoma|     98 |      0 |  15 |       0 |
    72 |DRHODR  |    113 |      0 |  15 |       0 |
    73 |CONVADJ |    128 |      0 |  15 |       0 |
   182 |GM_PsiX |    143 |    158 |  15 |       0 |       0 |
   183 |GM_PsiY |    158 |    143 |  15 |       0 |       0 |
   190 |DSLP_TH |    173 |      0 |  15 |       0 |
   191 |DSLP_SLT|    188 |      0 |  15 |       0 |
------------------------------------------------------------------------
Global & Regional Statistics diagnostics: Number of lists:     2
------------------------------------------------------------------------
listId=   1 ; file name: dynStDiag
 nFlds, nActive,       freq     &     phase        |                    
    9  |    9  |         0.000000         0.000000 |
 Regions:   0
 diag# | name   |   ipt  |  iMate |    Volume   |   mate-Vol. |         
    23 |ETAN    |      1 |      0 | 0.00000E+00 |
    24 |ETANSQ  |      2 |      0 | 0.00000E+00 |
    25 |DETADT2 |      3 |      0 | 0.00000E+00 |
    30 |UVEL    |      4 |      0 | 0.00000E+00 |
    31 |VVEL    |     19 |      0 | 0.00000E+00 |
    32 |WVEL    |     34 |      0 | 0.00000E+00 |
    26 |THETA   |     49 |      0 | 0.00000E+00 |
    27 |SALT    |     64 |      0 | 0.00000E+00 |
    38 |WVELSQ  |     79 |      0 | 0.00000E+00 |
------------------------------------------------------------------------
listId=   2 ; file name: oceStDiag
 nFlds, nActive,       freq     &     phase        |                    
    8  |    8  |   2592000.000000         0.000000 |
 Regions:   0
 diag# | name   |   ipt  |  iMate |    Volume   |   mate-Vol. |         
    62 |RHOAnoma|     94 |      0 | 0.00000E+00 |
    72 |DRHODR  |    109 |      0 | 0.00000E+00 |
    73 |CONVADJ |    124 |      0 | 0.00000E+00 |
   188 |DSLPuFlw|    139 |      0 | 0.00000E+00 |
   189 |DSLPvFlw|    140 |      0 | 0.00000E+00 |
   190 |DSLP_TH |    141 |      0 | 0.00000E+00 |
   191 |DSLP_SLT|    156 |      0 | 0.00000E+00 |
   203 |DSLPTr01|    171 |      0 | 0.00000E+00 |
------------------------------------------------------------------------
(PID.TID 0000.0001)  MDS_READ_FIELD: opening global file: pickup_cd.0000036000
(PID.TID 0000.0001)  MDS_READ_FIELD: opening global file: pickup_cd.0000036000
(PID.TID 0000.0001)  MDS_READ_FIELD: opening global file: pickup_cd.0000036000
(PID.TID 0000.0001)  MDS_READ_FIELD: opening global file: pickup_cd.0000036000
(PID.TID 0000.0001)  MDS_READ_FIELD: opening global file: pickup_cd.0000036000
(PID.TID 0000.0001)  MDS_READ_FIELD: opening global file: lev_s.bin
(PID.TID 0000.0001) // =======================================================
(PID.TID 0000.0001) // Model current state
(PID.TID 0000.0001) // =======================================================
(PID.TID 0000.0001) 
(PID.TID 0000.0001) // =======================================================
(PID.TID 0000.0001) // Begin MONITOR dynamic field statistics
(PID.TID 0000.0001) // =======================================================
(PID.TID 0000.0001) %MON time_tsnumber                =                 36000
(PID.TID 0000.0001) %MON time_secondsf                =   3.1104000000000E+09
(PID.TID 0000.0001) %MON dynstat_eta_max              =   9.5597478266495E-01
(PID.TID 0000.0001) %MON dynstat_eta_min              =  -1.5189329746070E+00
(PID.TID 0000.0001) %MON dynstat_eta_mean             =   1.6168393329103E-09
(PID.TID 0000.0001) %MON dynstat_eta_sd               =   5.8233813021068E-01
(PID.TID 0000.0001) %MON dynstat_eta_del2             =   2.1758406896146E-02
(PID.TID 0000.0001) %MON dynstat_uvel_max             =   1.3541577147465E-01
(PID.TID 0000.0001) %MON dynstat_uvel_min             =  -1.8856804454267E-01
(PID.TID 0000.0001) %MON dynstat_uvel_mean            =   1.8922862454158E-03
(PID.TID 0000.0001) %MON dynstat_uvel_sd              =   1.1329633737733E-02
(PID.TID 0000.0001) %MON dynstat_uvel_del2            =   1.5948913204282E-03
(PID.TID 0000.0001) %MON dynstat_vvel_max             =   1.1499904868880E-01
(PID.TID 0000.0001) %MON dynstat_vvel_min             =  -1.3250836468292E-01
(PID.TID 0000.0001) %MON dynstat_vvel_mean            =  -8.5598018459484E-07
(PID.TID 0000.0001) %MON dynstat_vvel_sd              =   5.8460187737221E-03
(PID.TID 0000.0001) %MON dynstat_vvel_del2            =   1.1421038870636E-03
(PID.TID 0000.0001) %MON dynstat_wvel_max             =   2.0847569987685E-05
(PID.TID 0000.0001) %MON dynstat_wvel_min             =  -5.9523061796318E-05
(PID.TID 0000.0001) %MON dynstat_wvel_mean            =   8.8077783871765E-23
(PID.TID 0000.0001) %MON dynstat_wvel_sd              =   1.6619370060261E-06
(PID.TID 0000.0001) %MON dynstat_wvel_del2            =   5.3900369584069E-07
(PID.TID 0000.0001) %MON dynstat_theta_max            =   3.0431648511469E+01
(PID.TID 0000.0001) %MON dynstat_theta_min            =  -1.9693991362439E+00
(PID.TID 0000.0001) %MON dynstat_theta_mean           =   3.9127315206097E+00
(PID.TID 0000.0001) %MON dynstat_theta_sd             =   4.5236974276785E+00
(PID.TID 0000.0001) %MON dynstat_theta_del2           =   1.2159930376690E-01
(PID.TID 0000.0001) %MON dynstat_salt_max             =   3.7500279785854E+01
(PID.TID 0000.0001) %MON dynstat_salt_min             =   2.9738833363589E+01
(PID.TID 0000.0001) %MON dynstat_salt_mean            =   3.4730791524508E+01
(PID.TID 0000.0001) %MON dynstat_salt_sd              =   2.9569892683154E-01
(PID.TID 0000.0001) %MON dynstat_salt_del2            =   2.0249432951782E-02
(PID.TID 0000.0001) %MON extforcing_qnet_max          =   4.4161361694336E+02
(PID.TID 0000.0001) %MON extforcing_qnet_min          =  -1.8132531738281E+02
(PID.TID 0000.0001) %MON extforcing_qnet_mean         =  -1.6512526001044E+01
(PID.TID 0000.0001) %MON extforcing_qnet_sd           =   1.0987288293460E+02
(PID.TID 0000.0001) %MON extforcing_qnet_del2         =   9.6689454498868E+00
(PID.TID 0000.0001) %MON extforcing_qsw_max           =   0.0000000000000E+00
(PID.TID 0000.0001) %MON extforcing_qsw_min           =   0.0000000000000E+00
(PID.TID 0000.0001) %MON extforcing_qsw_mean          =   0.0000000000000E+00
(PID.TID 0000.0001) %MON extforcing_qsw_sd            =   0.0000000000000E+00
(PID.TID 0000.0001) %MON extforcing_qsw_del2          =   0.0000000000000E+00
(PID.TID 0000.0001) %MON extforcing_empmr_max         =   8.2174238968946E-05
(PID.TID 0000.0001) %MON extforcing_empmr_min         =  -7.6155956207913E-05
(PID.TID 0000.0001) %MON extforcing_empmr_mean        =   9.2293706211062E-07
(PID.TID 0000.0001) %MON extforcing_empmr_sd          =   2.8800050217957E-05
(PID.TID 0000.0001) %MON extforcing_empmr_del2        =   3.7517335599309E-06
(PID.TID 0000.0001) %MON advcfl_uvel_max              =   3.7820193439497E-02
(PID.TID 0000.0001) %MON advcfl_vvel_max              =   2.5744250079224E-02
(PID.TID 0000.0001) %MON advcfl_wvel_max              =   2.3919965298614E-02
(PID.TID 0000.0001) %MON advcfl_W_hf_max              =   2.7067329153694E-02
(PID.TID 0000.0001) %MON pe_b_mean                    =   4.3394196927569E-04
(PID.TID 0000.0001) %MON ke_max                       =   1.7729496679027E-02
(PID.TID 0000.0001) %MON ke_mean                      =   7.5286026888514E-05
(PID.TID 0000.0001) %MON ke_vol                       =   1.3226782436722E+18
(PID.TID 0000.0001) %MON vort_r_min                   =  -4.1130281087912E-07
(PID.TID 0000.0001) %MON vort_r_max                   =   4.4950669231861E-07
(PID.TID 0000.0001) %MON vort_a_mean                  =  -2.5274807108123E-05
(PID.TID 0000.0001) %MON vort_a_sd                    =   7.3604601381020E-05
(PID.TID 0000.0001) %MON vort_p_mean                  =  -3.1845655434926E-05
(PID.TID 0000.0001) %MON vort_p_sd                    =   1.3162582234045E-04
(PID.TID 0000.0001) %MON surfExpan_theta_mean         =   3.8092041542375E-08
(PID.TID 0000.0001) %MON surfExpan_salt_mean          =   1.2793995710552E-08
(PID.TID 0000.0001) // =======================================================
(PID.TID 0000.0001) // End MONITOR dynamic field statistics
(PID.TID 0000.0001) // =======================================================
(PID.TID 0000.0001) // =======================================================
(PID.TID 0000.0001) // Begin MONITOR ptracer field statistics
(PID.TID 0000.0001) // =======================================================
(PID.TID 0000.0001) %MON trcstat_ptracer01_max        =   3.7475627899170E+01
(PID.TID 0000.0001) %MON trcstat_ptracer01_min        =   2.9752769470215E+01
(PID.TID 0000.0001) %MON trcstat_ptracer01_mean       =   3.4718006161478E+01
(PID.TID 0000.0001) %MON trcstat_ptracer01_sd         =   2.9628819587991E-01
(PID.TID 0000.0001) %MON trcstat_ptracer01_del2       =   2.6251884861846E-02
(PID.TID 0000.0001) // =======================================================
(PID.TID 0000.0001) // End MONITOR ptracers field statistics
(PID.TID 0000.0001) // =======================================================
S/R EXTERNAL_FIELDS_LOAD: Reading new data:   12    1     36000  3.110400000000E+09
(PID.TID 0000.0001)  MDS_READ_FIELD: opening global file: trenberth_taux.bin
(PID.TID 0000.0001)  MDS_READ_FIELD: opening global file: trenberth_taux.bin
(PID.TID 0000.0001)  MDS_READ_FIELD: opening global file: trenberth_tauy.bin
(PID.TID 0000.0001)  MDS_READ_FIELD: opening global file: trenberth_tauy.bin
(PID.TID 0000.0001)  MDS_READ_FIELD: opening global file: ncep_qnet.bin
(PID.TID 0000.0001)  MDS_READ_FIELD: opening global file: ncep_qnet.bin
(PID.TID 0000.0001)  MDS_READ_FIELD: opening global file: ncep_emp.bin
(PID.TID 0000.0001)  MDS_READ_FIELD: opening global file: ncep_emp.bin
(PID.TID 0000.0001)  MDS_READ_FIELD: opening global file: lev_sst.bin
(PID.TID 0000.0001)  MDS_READ_FIELD: opening global file: lev_sst.bin
(PID.TID 0000.0001)  MDS_READ_FIELD: opening global file: lev_sss.bin
(PID.TID 0000.0001)  MDS_READ_FIELD: opening global file: lev_sss.bin
 cg2d: Sum(rhs),rhsMax =   3.70492726810207E-03  2.54931905672197E+00
(PID.TID 0000.0001)                    cg2d_init_res =    1.96508992989753E-02
(PID.TID 0000.0001)                       cg2d_iters =   119
(PID.TID 0000.0001)                         cg2d_res =    9.43856329078870E-14
(PID.TID 0000.0001) // =======================================================
(PID.TID 0000.0001) // Begin MONITOR dynamic field statistics
(PID.TID 0000.0001) // =======================================================
(PID.TID 0000.0001) %MON time_tsnumber                =                 36001
(PID.TID 0000.0001) %MON time_secondsf                =   3.1104864000000E+09
(PID.TID 0000.0001) %MON dynstat_eta_max              =   9.5461692727725E-01
(PID.TID 0000.0001) %MON dynstat_eta_min              =  -1.5183437744423E+00
(PID.TID 0000.0001) %MON dynstat_eta_mean             =  -6.4810128212357E-05
(PID.TID 0000.0001) %MON dynstat_eta_sd               =   5.8215790388730E-01
(PID.TID 0000.0001) %MON dynstat_eta_del2             =   2.1758463666233E-02
(PID.TID 0000.0001) %MON dynstat_uvel_max             =   1.3542469298625E-01
(PID.TID 0000.0001) %MON dynstat_uvel_min             =  -1.8783028439632E-01
(PID.TID 0000.0001) %MON dynstat_uvel_mean            =   1.8906503169345E-03
(PID.TID 0000.0001) %MON dynstat_uvel_sd              =   1.1327582096137E-02
(PID.TID 0000.0001) %MON dynstat_uvel_del2            =   1.5948177346860E-03
(PID.TID 0000.0001) %MON dynstat_vvel_max             =   1.1496350077704E-01
(PID.TID 0000.0001) %MON dynstat_vvel_min             =  -1.3220664221720E-01
(PID.TID 0000.0001) %MON dynstat_vvel_mean            =  -9.7465454404069E-07
(PID.TID 0000.0001) %MON dynstat_vvel_sd              =   5.8427852209093E-03
(PID.TID 0000.0001) %MON dynstat_vvel_del2            =   1.1420173481721E-03
(PID.TID 0000.0001) %MON dynstat_wvel_max             =   2.0822810531253E-05
(PID.TID 0000.0001) %MON dynstat_wvel_min             =  -5.9539731016469E-05
(PID.TID 0000.0001) %MON dynstat_wvel_mean            =  -9.1013710000824E-23
(PID.TID 0000.0001) %MON dynstat_wvel_sd              =   1.6592826042937E-06
(PID.TID 0000.0001) %MON dynstat_wvel_del2            =   5.3837821911090E-07
(PID.TID 0000.0001) %MON dynstat_theta_max            =   3.0435407089367E+01
(PID.TID 0000.0001) %MON dynstat_theta_min            =  -1.9816684805052E+00
(PID.TID 0000.0001) %MON dynstat_theta_mean           =   3.9128216594975E+00
(PID.TID 0000.0001) %MON dynstat_theta_sd             =   4.5237723095580E+00
(PID.TID 0000.0001) %MON dynstat_theta_del2           =   1.2165744156332E-01
(PID.TID 0000.0001) %MON dynstat_salt_max             =   3.7500574485580E+01
(PID.TID 0000.0001) %MON dynstat_salt_min             =   2.9738154118779E+01
(PID.TID 0000.0001) %MON dynstat_salt_mean            =   3.4730793047344E+01
(PID.TID 0000.0001) %MON dynstat_salt_sd              =   2.9569356015784E-01
(PID.TID 0000.0001) %MON dynstat_salt_del2            =   2.0262290479659E-02
(PID.TID 0000.0001) %MON extforcing_qnet_max          =   4.2589080810547E+02
(PID.TID 0000.0001) %MON extforcing_qnet_min          =  -1.8702698516846E+02
(PID.TID 0000.0001) %MON extforcing_qnet_mean         =  -1.6700205338390E+01
(PID.TID 0000.0001) %MON extforcing_qnet_sd           =   1.1285666794876E+02
(PID.TID 0000.0001) %MON extforcing_qnet_del2         =   9.4920800031777E+00
(PID.TID 0000.0001) %MON extforcing_qsw_max           =   0.0000000000000E+00
(PID.TID 0000.0001) %MON extforcing_qsw_min           =   0.0000000000000E+00
(PID.TID 0000.0001) %MON extforcing_qsw_mean          =   0.0000000000000E+00
(PID.TID 0000.0001) %MON extforcing_qsw_sd            =   0.0000000000000E+00
(PID.TID 0000.0001) %MON extforcing_qsw_del2          =   0.0000000000000E+00
(PID.TID 0000.0001) %MON extforcing_empmr_max         =   8.3243762105667E-05
(PID.TID 0000.0001) %MON extforcing_empmr_min         =  -7.4169506092403E-05
(PID.TID 0000.0001) %MON extforcing_empmr_mean        =   7.7639069592806E-07
(PID.TID 0000.0001) %MON extforcing_empmr_sd          =   2.7794934142646E-05
(PID.TID 0000.0001) %MON extforcing_empmr_del2        =   3.7027911653282E-06
(PID.TID 0000.0001) %MON advcfl_uvel_max              =   3.7923758891819E-02
(PID.TID 0000.0001) %MON advcfl_vvel_max              =   2.5685630243181E-02
(PID.TID 0000.0001) %MON advcfl_wvel_max              =   2.3926663999176E-02
(PID.TID 0000.0001) %MON advcfl_W_hf_max              =   2.7074909262226E-02
(PID.TID 0000.0001) %MON pe_b_mean                    =   4.3367341705672E-04
(PID.TID 0000.0001) %MON ke_max                       =   1.7578196009767E-02
(PID.TID 0000.0001) %MON ke_mean                      =   7.5245128354317E-05
(PID.TID 0000.0001) %MON ke_vol                       =   1.3226782436722E+18
(PID.TID 0000.0001) %MON vort_r_min                   =  -4.1034696443591E-07
(PID.TID 0000.0001) %MON vort_r_max                   =   4.4711274084117E-07
(PID.TID 0000.0001) %MON vort_a_mean                  =  -2.5274807107830E-05
(PID.TID 0000.0001) %MON vort_a_sd                    =   7.3604601260335E-05
(PID.TID 0000.0001) %MON vort_p_mean                  =  -3.1845655434556E-05
(PID.TID 0000.0001) %MON vort_p_sd                    =   1.3162582067719E-04
(PID.TID 0000.0001) %MON surfExpan_theta_mean         =   3.8592705134337E-08
(PID.TID 0000.0001) %MON surfExpan_salt_mean          =   1.2792798336271E-08
(PID.TID 0000.0001) // =======================================================
(PID.TID 0000.0001) // End MONITOR dynamic field statistics
(PID.TID 0000.0001) // =======================================================
(PID.TID 0000.0001) // =======================================================
(PID.TID 0000.0001) // Begin MONITOR ptracer field statistics
(PID.TID 0000.0001) // =======================================================
(PID.TID 0000.0001) %MON trcstat_ptracer01_max        =   3.7473400206064E+01
(PID.TID 0000.0001) %MON trcstat_ptracer01_min        =   2.9752834400059E+01
(PID.TID 0000.0001) %MON trcstat_ptracer01_mean       =   3.4718005905223E+01
(PID.TID 0000.0001) %MON trcstat_ptracer01_sd         =   2.9624356900489E-01
(PID.TID 0000.0001) %MON trcstat_ptracer01_del2       =   2.6234882868992E-02
(PID.TID 0000.0001) // =======================================================
(PID.TID 0000.0001) // End MONITOR ptracers field statistics
(PID.TID 0000.0001) // =======================================================
 cg2d: Sum(rhs),rhsMax =   7.44387451671408E-03  2.55366666408753E+00
(PID.TID 0000.0001)                    cg2d_init_res =    2.40516156801611E-02
(PID.TID 0000.0001)                       cg2d_iters =   121
(PID.TID 0000.0001)                         cg2d_res =    8.09090882303939E-14
(PID.TID 0000.0001) // =======================================================
(PID.TID 0000.0001) // Begin MONITOR dynamic field statistics
(PID.TID 0000.0001) // =======================================================
(PID.TID 0000.0001) %MON time_tsnumber                =                 36002
(PID.TID 0000.0001) %MON time_secondsf                =   3.1105728000000E+09
(PID.TID 0000.0001) %MON dynstat_eta_max              =   9.5345969134061E-01
(PID.TID 0000.0001) %MON dynstat_eta_min              =  -1.5178053332427E+00
(PID.TID 0000.0001) %MON dynstat_eta_mean             =  -1.3043743564926E-04
(PID.TID 0000.0001) %MON dynstat_eta_sd               =   5.8199257541496E-01
(PID.TID 0000.0001) %MON dynstat_eta_del2             =   2.1776272369514E-02
(PID.TID 0000.0001) %MON dynstat_uvel_max             =   1.3546472231503E-01
(PID.TID 0000.0001) %MON dynstat_uvel_min             =  -1.8707785872204E-01
(PID.TID 0000.0001) %MON dynstat_uvel_mean            =   1.8890240560093E-03
(PID.TID 0000.0001) %MON dynstat_uvel_sd              =   1.1325722716850E-02
(PID.TID 0000.0001) %MON dynstat_uvel_del2            =   1.5946259492528E-03
(PID.TID 0000.0001) %MON dynstat_vvel_max             =   1.1492905692025E-01
(PID.TID 0000.0001) %MON dynstat_vvel_min             =  -1.3188135771954E-01
(PID.TID 0000.0001) %MON dynstat_vvel_mean            =  -1.0983532208332E-06
(PID.TID 0000.0001) %MON dynstat_vvel_sd              =   5.8395483111840E-03
(PID.TID 0000.0001) %MON dynstat_vvel_del2            =   1.1416670531712E-03
(PID.TID 0000.0001) %MON dynstat_wvel_max             =   2.0743735718310E-05
(PID.TID 0000.0001) %MON dynstat_wvel_min             =  -5.9546952120605E-05
(PID.TID 0000.0001) %MON dynstat_wvel_mean            =  -9.9821488388000E-23
(PID.TID 0000.0001) %MON dynstat_wvel_sd              =   1.6556422001220E-06
(PID.TID 0000.0001) %MON dynstat_wvel_del2            =   5.3655935442929E-07
(PID.TID 0000.0001) %MON dynstat_theta_max            =   3.0438294211823E+01
(PID.TID 0000.0001) %MON dynstat_theta_min            =  -1.9757106854595E+00
(PID.TID 0000.0001) %MON dynstat_theta_mean           =   3.9129122869764E+00
(PID.TID 0000.0001) %MON dynstat_theta_sd             =   4.5238525582284E+00
(PID.TID 0000.0001) %MON dynstat_theta_del2           =   1.2181493182933E-01
(PID.TID 0000.0001) %MON dynstat_salt_max             =   3.7500858856308E+01
(PID.TID 0000.0001) %MON dynstat_salt_min             =   2.9738052881909E+01
(PID.TID 0000.0001) %MON dynstat_salt_mean            =   3.4730794584157E+01
(PID.TID 0000.0001) %MON dynstat_salt_sd              =   2.9568940186990E-01
(PID.TID 0000.0001) %MON dynstat_salt_del2            =   2.0288117656386E-02
(PID.TID 0000.0001) %MON extforcing_qnet_max          =   4.2693899536133E+02
(PID.TID 0000.0001) %MON extforcing_qnet_min          =  -1.8655982259115E+02
(PID.TID 0000.0001) %MON extforcing_qnet_mean         =  -1.6687693382567E+01
(PID.TID 0000.0001) %MON extforcing_qnet_sd           =   1.1263946608433E+02
(PID.TID 0000.0001) %MON extforcing_qnet_del2         =   9.4914987500819E+00
(PID.TID 0000.0001) %MON extforcing_qsw_max           =   0.0000000000000E+00
(PID.TID 0000.0001) %MON extforcing_qsw_min           =   0.0000000000000E+00
(PID.TID 0000.0001) %MON extforcing_qsw_mean          =   0.0000000000000E+00
(PID.TID 0000.0001) %MON extforcing_qsw_sd            =   0.0000000000000E+00
(PID.TID 0000.0001) %MON extforcing_qsw_del2          =   0.0000000000000E+00
(PID.TID 0000.0001) %MON extforcing_empmr_max         =   8.2987928351486E-05
(PID.TID 0000.0001) %MON extforcing_empmr_min         =  -7.3906322484163E-05
(PID.TID 0000.0001) %MON extforcing_empmr_mean        =   7.8616045367356E-07
(PID.TID 0000.0001) %MON extforcing_empmr_sd          =   2.7832317986922E-05
(PID.TID 0000.0001) %MON extforcing_empmr_del2        =   3.6998499085005E-06
(PID.TID 0000.0001) %MON advcfl_uvel_max              =   3.8036241427933E-02
(PID.TID 0000.0001) %MON advcfl_vvel_max              =   2.5622432682221E-02
(PID.TID 0000.0001) %MON advcfl_wvel_max              =   2.3929565875443E-02
(PID.TID 0000.0001) %MON advcfl_W_hf_max              =   2.7078192964317E-02
(PID.TID 0000.0001) %MON pe_b_mean                    =   4.3342714844621E-04
(PID.TID 0000.0001) %MON ke_max                       =   1.7424742475158E-02
(PID.TID 0000.0001) %MON ke_mean                      =   7.5206223009022E-05
(PID.TID 0000.0001) %MON ke_vol                       =   1.3226782436722E+18
(PID.TID 0000.0001) %MON vort_r_min                   =  -4.0936361351995E-07
(PID.TID 0000.0001) %MON vort_r_max                   =   4.4469189765510E-07
(PID.TID 0000.0001) %MON vort_a_mean                  =  -2.5274807107961E-05
(PID.TID 0000.0001) %MON vort_a_sd                    =   7.3604601138309E-05
(PID.TID 0000.0001) %MON vort_p_mean                  =  -3.1845655434721E-05
(PID.TID 0000.0001) %MON vort_p_sd                    =   1.3162581877865E-04
(PID.TID 0000.0001) %MON surfExpan_theta_mean         =   3.9902032623545E-08
(PID.TID 0000.0001) %MON surfExpan_salt_mean          =   1.2873075912154E-08
(PID.TID 0000.0001) // =======================================================
(PID.TID 0000.0001) // End MONITOR dynamic field statistics
(PID.TID 0000.0001) // =======================================================
(PID.TID 0000.0001) // =======================================================
(PID.TID 0000.0001) // Begin MONITOR ptracer field statistics
(PID.TID 0000.0001) // =======================================================
(PID.TID 0000.0001) %MON trcstat_ptracer01_max        =   3.7471068159286E+01
(PID.TID 0000.0001) %MON trcstat_ptracer01_min        =   2.9752964166096E+01
(PID.TID 0000.0001) %MON trcstat_ptracer01_mean       =   3.4718005649388E+01
(PID.TID 0000.0001) %MON trcstat_ptracer01_sd         =   2.9620772252751E-01
(PID.TID 0000.0001) %MON trcstat_ptracer01_del2       =   2.6211123283830E-02
(PID.TID 0000.0001) // =======================================================
(PID.TID 0000.0001) // End MONITOR ptracers field statistics
(PID.TID 0000.0001) // =======================================================
 cg2d: Sum(rhs),rhsMax =   1.12274146949791E-02  2.55554486058009E+00
(PID.TID 0000.0001)                    cg2d_init_res =    1.87521743690530E-02
(PID.TID 0000.0001)                       cg2d_iters =   120
(PID.TID 0000.0001)                         cg2d_res =    8.89157945793396E-14
(PID.TID 0000.0001) // =======================================================
(PID.TID 0000.0001) // Begin MONITOR dynamic field statistics
(PID.TID 0000.0001) // =======================================================
(PID.TID 0000.0001) %MON time_tsnumber                =                 36003
(PID.TID 0000.0001) %MON time_secondsf                =   3.1106592000000E+09
(PID.TID 0000.0001) %MON dynstat_eta_max              =   9.5213915544378E-01
(PID.TID 0000.0001) %MON dynstat_eta_min              =  -1.5172475149094E+00
(PID.TID 0000.0001) %MON dynstat_eta_mean             =  -1.9688030547212E-04
(PID.TID 0000.0001) %MON dynstat_eta_sd               =   5.8181985131744E-01
(PID.TID 0000.0001) %MON dynstat_eta_del2             =   2.1783032498973E-02
(PID.TID 0000.0001) %MON dynstat_uvel_max             =   1.3553419809937E-01
(PID.TID 0000.0001) %MON dynstat_uvel_min             =  -1.8631143913906E-01
(PID.TID 0000.0001) %MON dynstat_uvel_mean            =   1.8874127555536E-03
(PID.TID 0000.0001) %MON dynstat_uvel_sd              =   1.1324174734488E-02
(PID.TID 0000.0001) %MON dynstat_uvel_del2            =   1.5943068415901E-03
(PID.TID 0000.0001) %MON dynstat_vvel_max             =   1.1489822505088E-01
(PID.TID 0000.0001) %MON dynstat_vvel_min             =  -1.3153201752710E-01
(PID.TID 0000.0001) %MON dynstat_vvel_mean            =  -1.2253906825185E-06
(PID.TID 0000.0001) %MON dynstat_vvel_sd              =   5.8364096963778E-03
(PID.TID 0000.0001) %MON dynstat_vvel_del2            =   1.1412204920391E-03
(PID.TID 0000.0001) %MON dynstat_wvel_max             =   2.0659857011683E-05
(PID.TID 0000.0001) %MON dynstat_wvel_min             =  -5.9569128621047E-05
(PID.TID 0000.0001) %MON dynstat_wvel_mean            =  -5.8718522581177E-24
(PID.TID 0000.0001) %MON dynstat_wvel_sd              =   1.6521287444872E-06
(PID.TID 0000.0001) %MON dynstat_wvel_del2            =   5.3479942087442E-07
(PID.TID 0000.0001) %MON dynstat_theta_max            =   3.0440613746445E+01
(PID.TID 0000.0001) %MON dynstat_theta_min            =  -1.9749184443055E+00
(PID.TID 0000.0001) %MON dynstat_theta_mean           =   3.9130030807535E+00
(PID.TID 0000.0001) %MON dynstat_theta_sd             =   4.5239400283263E+00
(PID.TID 0000.0001) %MON dynstat_theta_del2           =   1.2183620282411E-01
(PID.TID 0000.0001) %MON dynstat_salt_max             =   3.7501119367246E+01
(PID.TID 0000.0001) %MON dynstat_salt_min             =   2.9737980406990E+01
(PID.TID 0000.0001) %MON dynstat_salt_mean            =   3.4730796139568E+01
(PID.TID 0000.0001) %MON dynstat_salt_sd              =   2.9568517097036E-01
(PID.TID 0000.0001) %MON dynstat_salt_del2            =   2.0289933110831E-02
(PID.TID 0000.0001) %MON extforcing_qnet_max          =   4.2798718261719E+02
(PID.TID 0000.0001) %MON extforcing_qnet_min          =  -1.8609266001383E+02
(PID.TID 0000.0001) %MON extforcing_qnet_mean         =  -1.6675181426744E+01
(PID.TID 0000.0001) %MON extforcing_qnet_sd           =   1.1242481361476E+02
(PID.TID 0000.0001) %MON extforcing_qnet_del2         =   9.4925698128427E+00
(PID.TID 0000.0001) %MON extforcing_qsw_max           =   0.0000000000000E+00
(PID.TID 0000.0001) %MON extforcing_qsw_min           =   0.0000000000000E+00
(PID.TID 0000.0001) %MON extforcing_qsw_mean          =   0.0000000000000E+00
(PID.TID 0000.0001) %MON extforcing_qsw_sd            =   0.0000000000000E+00
(PID.TID 0000.0001) %MON extforcing_qsw_del2          =   0.0000000000000E+00
(PID.TID 0000.0001) %MON extforcing_empmr_max         =   8.2732094597304E-05
(PID.TID 0000.0001) %MON extforcing_empmr_min         =  -7.3643138875923E-05
(PID.TID 0000.0001) %MON extforcing_empmr_mean        =   7.9593021141906E-07
(PID.TID 0000.0001) %MON extforcing_empmr_sd          =   2.7874041013016E-05
(PID.TID 0000.0001) %MON extforcing_empmr_del2        =   3.6977851034475E-06
(PID.TID 0000.0001) %MON advcfl_uvel_max              =   3.8153204955111E-02
(PID.TID 0000.0001) %MON advcfl_vvel_max              =   2.5554561485574E-02
(PID.TID 0000.0001) %MON advcfl_wvel_max              =   2.3938477734225E-02
(PID.TID 0000.0001) %MON advcfl_W_hf_max              =   2.7088277436097E-02
(PID.TID 0000.0001) %MON pe_b_mean                    =   4.3316994893783E-04
(PID.TID 0000.0001) %MON ke_max                       =   1.7269350638624E-02
(PID.TID 0000.0001) %MON ke_mean                      =   7.5171077464962E-05
(PID.TID 0000.0001) %MON ke_vol                       =   1.3226782436722E+18
(PID.TID 0000.0001) %MON vort_r_min                   =  -4.0835984003145E-07
(PID.TID 0000.0001) %MON vort_r_max                   =   4.4224015448487E-07
(PID.TID 0000.0001) %MON vort_a_mean                  =  -2.5274807108441E-05
(PID.TID 0000.0001) %MON vort_a_sd                    =   7.3604601015241E-05
(PID.TID 0000.0001) %MON vort_p_mean                  =  -3.1845655435325E-05
(PID.TID 0000.0001) %MON vort_p_sd                    =   1.3162581672915E-04
(PID.TID 0000.0001) %MON surfExpan_theta_mean         =   3.9718224688284E-08
(PID.TID 0000.0001) %MON surfExpan_salt_mean          =   1.2806010477172E-08
(PID.TID 0000.0001) // =======================================================
(PID.TID 0000.0001) // End MONITOR dynamic field statistics
(PID.TID 0000.0001) // =======================================================
(PID.TID 0000.0001) // =======================================================
(PID.TID 0000.0001) // Begin MONITOR ptracer field statistics
(PID.TID 0000.0001) // =======================================================
(PID.TID 0000.0001) %MON trcstat_ptracer01_max        =   3.7468676580044E+01
(PID.TID 0000.0001) %MON trcstat_ptracer01_min        =   2.9753147338026E+01
(PID.TID 0000.0001) %MON trcstat_ptracer01_mean       =   3.4718005392023E+01
(PID.TID 0000.0001) %MON trcstat_ptracer01_sd         =   2.9617331850882E-01
(PID.TID 0000.0001) %MON trcstat_ptracer01_del2       =   2.6179806095183E-02
(PID.TID 0000.0001) // =======================================================
(PID.TID 0000.0001) // End MONITOR ptracers field statistics
(PID.TID 0000.0001) // =======================================================
 cg2d: Sum(rhs),rhsMax =   1.50491219440216E-02  2.55789041915521E+00
(PID.TID 0000.0001)                    cg2d_init_res =    1.80350511764784E-02
(PID.TID 0000.0001)                       cg2d_iters =   120
(PID.TID 0000.0001)                         cg2d_res =    9.41739167301036E-14
(PID.TID 0000.0001) // =======================================================
(PID.TID 0000.0001) // Begin MONITOR dynamic field statistics
(PID.TID 0000.0001) // =======================================================
(PID.TID 0000.0001) %MON time_tsnumber                =                 36004
(PID.TID 0000.0001) %MON time_secondsf                =   3.1107456000000E+09
(PID.TID 0000.0001) %MON dynstat_eta_max              =   9.5081366979013E-01
(PID.TID 0000.0001) %MON dynstat_eta_min              =  -1.5166836139321E+00
(PID.TID 0000.0001) %MON dynstat_eta_mean             =  -2.6413873768049E-04
(PID.TID 0000.0001) %MON dynstat_eta_sd               =   5.8164417057340E-01
(PID.TID 0000.0001) %MON dynstat_eta_del2             =   2.1789966571888E-02
(PID.TID 0000.0001) %MON dynstat_uvel_max             =   1.3562741389809E-01
(PID.TID 0000.0001) %MON dynstat_uvel_min             =  -1.8553153609440E-01
(PID.TID 0000.0001) %MON dynstat_uvel_mean            =   1.8858070168313E-03
(PID.TID 0000.0001) %MON dynstat_uvel_sd              =   1.1322932500202E-02
(PID.TID 0000.0001) %MON dynstat_uvel_del2            =   1.5938501860977E-03
(PID.TID 0000.0001) %MON dynstat_vvel_max             =   1.1487154930601E-01
(PID.TID 0000.0001) %MON dynstat_vvel_min             =  -1.3115920501838E-01
(PID.TID 0000.0001) %MON dynstat_vvel_mean            =  -1.3377488898779E-06
(PID.TID 0000.0001) %MON dynstat_vvel_sd              =   5.8333907316731E-03
(PID.TID 0000.0001) %MON dynstat_vvel_del2            =   1.1406737991170E-03
(PID.TID 0000.0001) %MON dynstat_wvel_max             =   2.0569594563121E-05
(PID.TID 0000.0001) %MON dynstat_wvel_min             =  -5.9584661634442E-05
(PID.TID 0000.0001) %MON dynstat_wvel_mean            =   1.7615556774353E-23
(PID.TID 0000.0001) %MON dynstat_wvel_sd              =   1.6487872871782E-06
(PID.TID 0000.0001) %MON dynstat_wvel_del2            =   5.3314613657334E-07
(PID.TID 0000.0001) %MON dynstat_theta_max            =   3.0442372322327E+01
(PID.TID 0000.0001) %MON dynstat_theta_min            =  -1.9739309504569E+00
(PID.TID 0000.0001) %MON dynstat_theta_mean           =   3.9130943463294E+00
(PID.TID 0000.0001) %MON dynstat_theta_sd             =   4.5240330390487E+00
(PID.TID 0000.0001) %MON dynstat_theta_del2           =   1.2188164844173E-01
(PID.TID 0000.0001) %MON dynstat_salt_max             =   3.7501354074919E+01
(PID.TID 0000.0001) %MON dynstat_salt_min             =   2.9737936910159E+01
(PID.TID 0000.0001) %MON dynstat_salt_mean            =   3.4730797730421E+01
(PID.TID 0000.0001) %MON dynstat_salt_sd              =   2.9568002140768E-01
(PID.TID 0000.0001) %MON dynstat_salt_del2            =   2.0296825698676E-02
(PID.TID 0000.0001) %MON extforcing_qnet_max          =   4.2903536987305E+02
(PID.TID 0000.0001) %MON extforcing_qnet_min          =  -1.8562549743652E+02
(PID.TID 0000.0001) %MON extforcing_qnet_mean         =  -1.6662669470921E+01
(PID.TID 0000.0001) %MON extforcing_qnet_sd           =   1.1221272517031E+02
(PID.TID 0000.0001) %MON extforcing_qnet_del2         =   9.4953524693249E+00
(PID.TID 0000.0001) %MON extforcing_qsw_max           =   0.0000000000000E+00
(PID.TID 0000.0001) %MON extforcing_qsw_min           =   0.0000000000000E+00
(PID.TID 0000.0001) %MON extforcing_qsw_mean          =   0.0000000000000E+00
(PID.TID 0000.0001) %MON extforcing_qsw_sd            =   0.0000000000000E+00
(PID.TID 0000.0001) %MON extforcing_qsw_del2          =   0.0000000000000E+00
(PID.TID 0000.0001) %MON extforcing_empmr_max         =   8.2476260843123E-05
(PID.TID 0000.0001) %MON extforcing_empmr_min         =  -7.3379955267683E-05
(PID.TID 0000.0001) %MON extforcing_empmr_mean        =   8.0569996916457E-07
(PID.TID 0000.0001) %MON extforcing_empmr_sd          =   2.7920083767862E-05
(PID.TID 0000.0001) %MON extforcing_empmr_del2        =   3.6964783355601E-06
(PID.TID 0000.0001) %MON advcfl_uvel_max              =   3.8268356167601E-02
(PID.TID 0000.0001) %MON advcfl_vvel_max              =   2.5482129994322E-02
(PID.TID 0000.0001) %MON advcfl_wvel_max              =   2.3944719838213E-02
(PID.TID 0000.0001) %MON advcfl_W_hf_max              =   2.7095340869557E-02
(PID.TID 0000.0001) %MON pe_b_mean                    =   4.3290843644992E-04
(PID.TID 0000.0001) %MON ke_max                       =   1.7112183186695E-02
(PID.TID 0000.0001) %MON ke_mean                      =   7.5139727121065E-05
(PID.TID 0000.0001) %MON ke_vol                       =   1.3226782436722E+18
(PID.TID 0000.0001) %MON vort_r_min                   =  -4.0733151270785E-07
(PID.TID 0000.0001) %MON vort_r_max                   =   4.4156186260446E-07
(PID.TID 0000.0001) %MON vort_a_mean                  =  -2.5274807108803E-05
(PID.TID 0000.0001) %MON vort_a_sd                    =   7.3604600893190E-05
(PID.TID 0000.0001) %MON vort_p_mean                  =  -3.1845655435782E-05
(PID.TID 0000.0001) %MON vort_p_sd                    =   1.3162581457417E-04
(PID.TID 0000.0001) %MON surfExpan_theta_mean         =   3.9564846728869E-08
(PID.TID 0000.0001) %MON surfExpan_salt_mean          =   1.2720713743951E-08
(PID.TID 0000.0001) // =======================================================
(PID.TID 0000.0001) // End MONITOR dynamic field statistics
(PID.TID 0000.0001) // =======================================================
(PID.TID 0000.0001) // =======================================================
(PID.TID 0000.0001) // Begin MONITOR ptracer field statistics
(PID.TID 0000.0001) // =======================================================
(PID.TID 0000.0001) %MON trcstat_ptracer01_max        =   3.7466229615214E+01
(PID.TID 0000.0001) %MON trcstat_ptracer01_min        =   2.9753382256172E+01
(PID.TID 0000.0001) %MON trcstat_ptracer01_mean       =   3.4718005138495E+01
(PID.TID 0000.0001) %MON trcstat_ptracer01_sd         =   2.9613963636798E-01
(PID.TID 0000.0001) %MON trcstat_ptracer01_del2       =   2.6147364940028E-02
(PID.TID 0000.0001) // =======================================================
(PID.TID 0000.0001) // End MONITOR ptracers field statistics
(PID.TID 0000.0001) // =======================================================
 cg2d: Sum(rhs),rhsMax =   1.89128670825091E-02  2.55988173247011E+00
(PID.TID 0000.0001)                    cg2d_init_res =    1.86873356204979E-02
(PID.TID 0000.0001)                       cg2d_iters =   121
(PID.TID 0000.0001)                         cg2d_res =    7.98926769874766E-14
(PID.TID 0000.0001) // =======================================================
(PID.TID 0000.0001) // Begin MONITOR dynamic field statistics
(PID.TID 0000.0001) // =======================================================
(PID.TID 0000.0001) %MON time_tsnumber                =                 36005
(PID.TID 0000.0001) %MON time_secondsf                =   3.1108320000000E+09
(PID.TID 0000.0001) %MON dynstat_eta_max              =   9.4949027965040E-01
(PID.TID 0000.0001) %MON dynstat_eta_min              =  -1.5161186496614E+00
(PID.TID 0000.0001) %MON dynstat_eta_mean             =  -3.3221273227512E-04
(PID.TID 0000.0001) %MON dynstat_eta_sd               =   5.8146816251623E-01
(PID.TID 0000.0001) %MON dynstat_eta_del2             =   2.1797206772162E-02
(PID.TID 0000.0001) %MON dynstat_uvel_max             =   1.3573857161240E-01
(PID.TID 0000.0001) %MON dynstat_uvel_min             =  -1.8473860699010E-01
(PID.TID 0000.0001) %MON dynstat_uvel_mean            =   1.8841954171254E-03
(PID.TID 0000.0001) %MON dynstat_uvel_sd              =   1.1322002629117E-02
(PID.TID 0000.0001) %MON dynstat_uvel_del2            =   1.5933416272824E-03
(PID.TID 0000.0001) %MON dynstat_vvel_max             =   1.1485012589236E-01
(PID.TID 0000.0001) %MON dynstat_vvel_min             =  -1.3076347154883E-01
(PID.TID 0000.0001) %MON dynstat_vvel_mean            =  -1.4284387495960E-06
(PID.TID 0000.0001) %MON dynstat_vvel_sd              =   5.8305304106354E-03
(PID.TID 0000.0001) %MON dynstat_vvel_del2            =   1.1402105589438E-03
(PID.TID 0000.0001) %MON dynstat_wvel_max             =   2.0480242777673E-05
(PID.TID 0000.0001) %MON dynstat_wvel_min             =  -5.9592989228890E-05
(PID.TID 0000.0001) %MON dynstat_wvel_mean            =   1.3505260193671E-22
(PID.TID 0000.0001) %MON dynstat_wvel_sd              =   1.6457284976209E-06
(PID.TID 0000.0001) %MON dynstat_wvel_del2            =   5.3176334898953E-07
(PID.TID 0000.0001) %MON dynstat_theta_max            =   3.0443573028498E+01
(PID.TID 0000.0001) %MON dynstat_theta_min            =  -1.9730462689619E+00
(PID.TID 0000.0001) %MON dynstat_theta_mean           =   3.9131859958370E+00
(PID.TID 0000.0001) %MON dynstat_theta_sd             =   4.5241338637354E+00
(PID.TID 0000.0001) %MON dynstat_theta_del2           =   1.2195506201846E-01
(PID.TID 0000.0001) %MON dynstat_salt_max             =   3.7501560826587E+01
(PID.TID 0000.0001) %MON dynstat_salt_min             =   2.9737922368449E+01
(PID.TID 0000.0001) %MON dynstat_salt_mean            =   3.4730799358622E+01
(PID.TID 0000.0001) %MON dynstat_salt_sd              =   2.9567568125727E-01
(PID.TID 0000.0001) %MON dynstat_salt_del2            =   2.0304744369935E-02
(PID.TID 0000.0001) %MON extforcing_qnet_max          =   4.3008355712891E+02
(PID.TID 0000.0001) %MON extforcing_qnet_min          =  -1.8515833485921E+02
(PID.TID 0000.0001) %MON extforcing_qnet_mean         =  -1.6650157515098E+01
(PID.TID 0000.0001) %MON extforcing_qnet_sd           =   1.1200321531664E+02
(PID.TID 0000.0001) %MON extforcing_qnet_del2         =   9.4991829492293E+00
(PID.TID 0000.0001) %MON extforcing_qsw_max           =   0.0000000000000E+00
(PID.TID 0000.0001) %MON extforcing_qsw_min           =   0.0000000000000E+00
(PID.TID 0000.0001) %MON extforcing_qsw_mean          =   0.0000000000000E+00
(PID.TID 0000.0001) %MON extforcing_qsw_sd            =   0.0000000000000E+00
(PID.TID 0000.0001) %MON extforcing_qsw_del2          =   0.0000000000000E+00
(PID.TID 0000.0001) %MON extforcing_empmr_max         =   8.2220427088942E-05
(PID.TID 0000.0001) %MON extforcing_empmr_min         =  -7.3116771659443E-05
(PID.TID 0000.0001) %MON extforcing_empmr_mean        =   8.1546972691007E-07
(PID.TID 0000.0001) %MON extforcing_empmr_sd          =   2.7970424919056E-05
(PID.TID 0000.0001) %MON extforcing_empmr_del2        =   3.6960876781391E-06
(PID.TID 0000.0001) %MON advcfl_uvel_max              =   3.8376015596949E-02
(PID.TID 0000.0001) %MON advcfl_vvel_max              =   2.5405245327992E-02
(PID.TID 0000.0001) %MON advcfl_wvel_max              =   2.3948066369191E-02
(PID.TID 0000.0001) %MON advcfl_W_hf_max              =   2.7099127733559E-02
(PID.TID 0000.0001) %MON pe_b_mean                    =   4.3264652813909E-04
(PID.TID 0000.0001) %MON ke_max                       =   1.6953395545274E-02
(PID.TID 0000.0001) %MON ke_mean                      =   7.5112422565160E-05
(PID.TID 0000.0001) %MON ke_vol                       =   1.3226782436722E+18
(PID.TID 0000.0001) %MON vort_r_min                   =  -4.0626949463869E-07
(PID.TID 0000.0001) %MON vort_r_max                   =   4.4336280036572E-07
(PID.TID 0000.0001) %MON vort_a_mean                  =  -2.5274807109183E-05
(PID.TID 0000.0001) %MON vort_a_sd                    =   7.3604600768349E-05
(PID.TID 0000.0001) %MON vort_p_mean                  =  -3.1845655436260E-05
(PID.TID 0000.0001) %MON vort_p_sd                    =   1.3162581232580E-04
(PID.TID 0000.0001) %MON surfExpan_theta_mean         =   3.9604194822759E-08
(PID.TID 0000.0001) %MON surfExpan_salt_mean          =   1.2636357292164E-08
(PID.TID 0000.0001) // =======================================================
(PID.TID 0000.0001) // End MONITOR dynamic field statistics
(PID.TID 0000.0001) // =======================================================
(PID.TID 0000.0001) // =======================================================
(PID.TID 0000.0001) // Begin MONITOR ptracer field statistics
(PID.TID 0000.0001) // =======================================================
(PID.TID 0000.0001) %MON trcstat_ptracer01_max        =   3.7463731423771E+01
(PID.TID 0000.0001) %MON trcstat_ptracer01_min        =   2.9753670963014E+01
(PID.TID 0000.0001) %MON trcstat_ptracer01_mean       =   3.4718004887655E+01
(PID.TID 0000.0001) %MON trcstat_ptracer01_sd         =   2.9610652059696E-01
(PID.TID 0000.0001) %MON trcstat_ptracer01_del2       =   2.6117038034577E-02
(PID.TID 0000.0001) // =======================================================
(PID.TID 0000.0001) // End MONITOR ptracers field statistics
(PID.TID 0000.0001) // =======================================================
 cg2d: Sum(rhs),rhsMax =   2.28172930977149E-02  2.56184009287636E+00
(PID.TID 0000.0001)                    cg2d_init_res =    1.75917152276385E-02
(PID.TID 0000.0001)                       cg2d_iters =   120
(PID.TID 0000.0001)                         cg2d_res =    9.78553854775846E-14
(PID.TID 0000.0001) // =======================================================
(PID.TID 0000.0001) // Begin MONITOR dynamic field statistics
(PID.TID 0000.0001) // =======================================================
(PID.TID 0000.0001) %MON time_tsnumber                =                 36006
(PID.TID 0000.0001) %MON time_secondsf                =   3.1109184000000E+09
(PID.TID 0000.0001) %MON dynstat_eta_max              =   9.4815716033591E-01
(PID.TID 0000.0001) %MON dynstat_eta_min              =  -1.5155588122833E+00
(PID.TID 0000.0001) %MON dynstat_eta_mean             =  -4.0110228925487E-04
(PID.TID 0000.0001) %MON dynstat_eta_sd               =   5.8129336609883E-01
(PID.TID 0000.0001) %MON dynstat_eta_del2             =   2.1803591030962E-02
(PID.TID 0000.0001) %MON dynstat_uvel_max             =   1.3586156195463E-01
(PID.TID 0000.0001) %MON dynstat_uvel_min             =  -1.8393307051897E-01
(PID.TID 0000.0001) %MON dynstat_uvel_mean            =   1.8825701949466E-03
(PID.TID 0000.0001) %MON dynstat_uvel_sd              =   1.1321386591229E-02
(PID.TID 0000.0001) %MON dynstat_uvel_del2            =   1.5928373961723E-03
(PID.TID 0000.0001) %MON dynstat_vvel_max             =   1.1483476848651E-01
(PID.TID 0000.0001) %MON dynstat_vvel_min             =  -1.3034521275178E-01
(PID.TID 0000.0001) %MON dynstat_vvel_mean            =  -1.4830445379927E-06
(PID.TID 0000.0001) %MON dynstat_vvel_sd              =   5.8278637401987E-03
(PID.TID 0000.0001) %MON dynstat_vvel_del2            =   1.1398040803958E-03
(PID.TID 0000.0001) %MON dynstat_wvel_max             =   2.0397932152044E-05
(PID.TID 0000.0001) %MON dynstat_wvel_min             =  -5.9592428438187E-05
(PID.TID 0000.0001) %MON dynstat_wvel_mean            =   2.7010520387341E-22
(PID.TID 0000.0001) %MON dynstat_wvel_sd              =   1.6430880378406E-06
(PID.TID 0000.0001) %MON dynstat_wvel_del2            =   5.3059768815962E-07
(PID.TID 0000.0001) %MON dynstat_theta_max            =   3.0444222216826E+01
(PID.TID 0000.0001) %MON dynstat_theta_min            =  -1.9721752609030E+00
(PID.TID 0000.0001) %MON dynstat_theta_mean           =   3.9132778756639E+00
(PID.TID 0000.0001) %MON dynstat_theta_sd             =   4.5242409722336E+00
(PID.TID 0000.0001) %MON dynstat_theta_del2           =   1.2197482906194E-01
(PID.TID 0000.0001) %MON dynstat_salt_max             =   3.7501736621620E+01
(PID.TID 0000.0001) %MON dynstat_salt_min             =   2.9737936449106E+01
(PID.TID 0000.0001) %MON dynstat_salt_mean            =   3.4730801009119E+01
(PID.TID 0000.0001) %MON dynstat_salt_sd              =   2.9567070639032E-01
(PID.TID 0000.0001) %MON dynstat_salt_del2            =   2.0303320782161E-02
(PID.TID 0000.0001) %MON extforcing_qnet_max          =   4.3113174438477E+02
(PID.TID 0000.0001) %MON extforcing_qnet_min          =  -1.8469117228190E+02
(PID.TID 0000.0001) %MON extforcing_qnet_mean         =  -1.6637645559275E+01
(PID.TID 0000.0001) %MON extforcing_qnet_sd           =   1.1179629855085E+02
(PID.TID 0000.0001) %MON extforcing_qnet_del2         =   9.5054858461913E+00
(PID.TID 0000.0001) %MON extforcing_qsw_max           =   0.0000000000000E+00
(PID.TID 0000.0001) %MON extforcing_qsw_min           =   0.0000000000000E+00
(PID.TID 0000.0001) %MON extforcing_qsw_mean          =   0.0000000000000E+00
(PID.TID 0000.0001) %MON extforcing_qsw_sd            =   0.0000000000000E+00
(PID.TID 0000.0001) %MON extforcing_qsw_del2          =   0.0000000000000E+00
(PID.TID 0000.0001) %MON extforcing_empmr_max         =   8.1964593334760E-05
(PID.TID 0000.0001) %MON extforcing_empmr_min         =  -7.2853588051203E-05
(PID.TID 0000.0001) %MON extforcing_empmr_mean        =   8.2523948465558E-07
(PID.TID 0000.0001) %MON extforcing_empmr_sd          =   2.8025041303087E-05
(PID.TID 0000.0001) %MON extforcing_empmr_del2        =   3.6966044987725E-06
(PID.TID 0000.0001) %MON advcfl_uvel_max              =   3.8471005822247E-02
(PID.TID 0000.0001) %MON advcfl_vvel_max              =   2.5323984351788E-02
(PID.TID 0000.0001) %MON advcfl_wvel_max              =   2.3947841009578E-02
(PID.TID 0000.0001) %MON advcfl_W_hf_max              =   2.7098872721365E-02
(PID.TID 0000.0001) %MON pe_b_mean                    =   4.3238651432468E-04
(PID.TID 0000.0001) %MON ke_max                       =   1.6793127070301E-02
(PID.TID 0000.0001) %MON ke_mean                      =   7.5089346812190E-05
(PID.TID 0000.0001) %MON ke_vol                       =   1.3226782436722E+18
(PID.TID 0000.0001) %MON vort_r_min                   =  -4.0516549958070E-07
(PID.TID 0000.0001) %MON vort_r_max                   =   4.4518389538099E-07
(PID.TID 0000.0001) %MON vort_a_mean                  =  -2.5274807109493E-05
(PID.TID 0000.0001) %MON vort_a_sd                    =   7.3604600639973E-05
(PID.TID 0000.0001) %MON vort_p_mean                  =  -3.1845655436652E-05
(PID.TID 0000.0001) %MON vort_p_sd                    =   1.3162580996666E-04
(PID.TID 0000.0001) %MON surfExpan_theta_mean         =   3.9817498988510E-08
(PID.TID 0000.0001) %MON surfExpan_salt_mean          =   1.2564052230138E-08
(PID.TID 0000.0001) // =======================================================
(PID.TID 0000.0001) // End MONITOR dynamic field statistics
(PID.TID 0000.0001) // =======================================================
(PID.TID 0000.0001) // =======================================================
(PID.TID 0000.0001) // Begin MONITOR ptracer field statistics
(PID.TID 0000.0001) // =======================================================
(PID.TID 0000.0001) %MON trcstat_ptracer01_max        =   3.7461186320795E+01
(PID.TID 0000.0001) %MON trcstat_ptracer01_min        =   2.9754013078331E+01
(PID.TID 0000.0001) %MON trcstat_ptracer01_mean       =   3.4718004639175E+01
(PID.TID 0000.0001) %MON trcstat_ptracer01_sd         =   2.9607393207578E-01
(PID.TID 0000.0001) %MON trcstat_ptracer01_del2       =   2.6089489707498E-02
(PID.TID 0000.0001) // =======================================================
(PID.TID 0000.0001) // End MONITOR ptracers field statistics
(PID.TID 0000.0001) // =======================================================
 cg2d: Sum(rhs),rhsMax =   2.67634508926406E-02  2.56367032260043E+00
(PID.TID 0000.0001)                    cg2d_init_res =    1.71929978809694E-02
(PID.TID 0000.0001)                       cg2d_iters =   120
(PID.TID 0000.0001)                         cg2d_res =    9.81723682560177E-14
(PID.TID 0000.0001) // =======================================================
(PID.TID 0000.0001) // Begin MONITOR dynamic field statistics
(PID.TID 0000.0001) // =======================================================
(PID.TID 0000.0001) %MON time_tsnumber                =                 36007
(PID.TID 0000.0001) %MON time_secondsf                =   3.1110048000000E+09
(PID.TID 0000.0001) %MON dynstat_eta_max              =   9.4681707641920E-01
(PID.TID 0000.0001) %MON dynstat_eta_min              =  -1.5150111145156E+00
(PID.TID 0000.0001) %MON dynstat_eta_mean             =  -4.7080740862055E-04
(PID.TID 0000.0001) %MON dynstat_eta_sd               =   5.8112108189366E-01
(PID.TID 0000.0001) %MON dynstat_eta_del2             =   2.1809061856489E-02
(PID.TID 0000.0001) %MON dynstat_uvel_max             =   1.3598996863023E-01
(PID.TID 0000.0001) %MON dynstat_uvel_min             =  -1.8311530021359E-01
(PID.TID 0000.0001) %MON dynstat_uvel_mean            =   1.8809275729479E-03
(PID.TID 0000.0001) %MON dynstat_uvel_sd              =   1.1321077746325E-02
(PID.TID 0000.0001) %MON dynstat_uvel_del2            =   1.5922286289001E-03
(PID.TID 0000.0001) %MON dynstat_vvel_max             =   1.1482595003908E-01
(PID.TID 0000.0001) %MON dynstat_vvel_min             =  -1.2990482756519E-01
(PID.TID 0000.0001) %MON dynstat_vvel_mean            =  -1.4935977999170E-06
(PID.TID 0000.0001) %MON dynstat_vvel_sd              =   5.8254146555676E-03
(PID.TID 0000.0001) %MON dynstat_vvel_del2            =   1.1392684853652E-03
(PID.TID 0000.0001) %MON dynstat_wvel_max             =   2.0327972197755E-05
(PID.TID 0000.0001) %MON dynstat_wvel_min             =  -5.9580656912574E-05
(PID.TID 0000.0001) %MON dynstat_wvel_mean            =  -1.1743704516235E-23
(PID.TID 0000.0001) %MON dynstat_wvel_sd              =   1.6409431459826E-06
(PID.TID 0000.0001) %MON dynstat_wvel_del2            =   5.2968099908768E-07
(PID.TID 0000.0001) %MON dynstat_theta_max            =   3.0444326168289E+01
(PID.TID 0000.0001) %MON dynstat_theta_min            =  -1.9713315353586E+00
(PID.TID 0000.0001) %MON dynstat_theta_mean           =   3.9133700332512E+00
(PID.TID 0000.0001) %MON dynstat_theta_sd             =   4.5243530031632E+00
(PID.TID 0000.0001) %MON dynstat_theta_del2           =   1.2199331133311E-01
(PID.TID 0000.0001) %MON dynstat_salt_max             =   3.7501875886483E+01
(PID.TID 0000.0001) %MON dynstat_salt_min             =   2.9737978635376E+01
(PID.TID 0000.0001) %MON dynstat_salt_mean            =   3.4730802685619E+01
(PID.TID 0000.0001) %MON dynstat_salt_sd              =   2.9566359793691E-01
(PID.TID 0000.0001) %MON dynstat_salt_del2            =   2.0308212261821E-02
(PID.TID 0000.0001) %MON extforcing_qnet_max          =   4.3217993164062E+02
(PID.TID 0000.0001) %MON extforcing_qnet_min          =  -1.8422400970459E+02
(PID.TID 0000.0001) %MON extforcing_qnet_mean         =  -1.6625133603452E+01
(PID.TID 0000.0001) %MON extforcing_qnet_sd           =   1.1159198929743E+02
(PID.TID 0000.0001) %MON extforcing_qnet_del2         =   9.5132681531629E+00
(PID.TID 0000.0001) %MON extforcing_qsw_max           =   0.0000000000000E+00
(PID.TID 0000.0001) %MON extforcing_qsw_min           =   0.0000000000000E+00
(PID.TID 0000.0001) %MON extforcing_qsw_mean          =   0.0000000000000E+00
(PID.TID 0000.0001) %MON extforcing_qsw_sd            =   0.0000000000000E+00
(PID.TID 0000.0001) %MON extforcing_qsw_del2          =   0.0000000000000E+00
(PID.TID 0000.0001) %MON extforcing_empmr_max         =   8.1887607450426E-05
(PID.TID 0000.0001) %MON extforcing_empmr_min         =  -7.2590404442963E-05
(PID.TID 0000.0001) %MON extforcing_empmr_mean        =   8.3500924240108E-07
(PID.TID 0000.0001) %MON extforcing_empmr_sd          =   2.8083907977094E-05
(PID.TID 0000.0001) %MON extforcing_empmr_del2        =   3.6978590861640E-06
(PID.TID 0000.0001) %MON advcfl_uvel_max              =   3.8548834592212E-02
(PID.TID 0000.0001) %MON advcfl_vvel_max              =   2.5238424572964E-02
(PID.TID 0000.0001) %MON advcfl_wvel_max              =   2.3943110498820E-02
(PID.TID 0000.0001) %MON advcfl_W_hf_max              =   2.7093519774981E-02
(PID.TID 0000.0001) %MON pe_b_mean                    =   4.3213032805882E-04
(PID.TID 0000.0001) %MON ke_max                       =   1.6631505090302E-02
(PID.TID 0000.0001) %MON ke_mean                      =   7.5070548421453E-05
(PID.TID 0000.0001) %MON ke_vol                       =   1.3226782436722E+18
(PID.TID 0000.0001) %MON vort_r_min                   =  -4.0401367272745E-07
(PID.TID 0000.0001) %MON vort_r_max                   =   4.4702212283332E-07
(PID.TID 0000.0001) %MON vort_a_mean                  =  -2.5274807109674E-05
(PID.TID 0000.0001) %MON vort_a_sd                    =   7.3604600507904E-05
(PID.TID 0000.0001) %MON vort_p_mean                  =  -3.1845655436879E-05
(PID.TID 0000.0001) %MON vort_p_sd                    =   1.3162580753174E-04
(PID.TID 0000.0001) %MON surfExpan_theta_mean         =   4.0130117326148E-08
(PID.TID 0000.0001) %MON surfExpan_salt_mean          =   1.2490582798270E-08
(PID.TID 0000.0001) // =======================================================
(PID.TID 0000.0001) // End MONITOR dynamic field statistics
(PID.TID 0000.0001) // =======================================================
(PID.TID 0000.0001) // =======================================================
(PID.TID 0000.0001) // Begin MONITOR ptracer field statistics
(PID.TID 0000.0001) // =======================================================
(PID.TID 0000.0001) %MON trcstat_ptracer01_max        =   3.7458598835441E+01
(PID.TID 0000.0001) %MON trcstat_ptracer01_min        =   2.9754406371469E+01
(PID.TID 0000.0001) %MON trcstat_ptracer01_mean       =   3.4718004392605E+01
(PID.TID 0000.0001) %MON trcstat_ptracer01_sd         =   2.9604159156510E-01
(PID.TID 0000.0001) %MON trcstat_ptracer01_del2       =   2.6063437391140E-02
(PID.TID 0000.0001) // =======================================================
(PID.TID 0000.0001) // End MONITOR ptracers field statistics
(PID.TID 0000.0001) // =======================================================
 cg2d: Sum(rhs),rhsMax =   3.07520164959768E-02  2.56535790129645E+00
(PID.TID 0000.0001)                    cg2d_init_res =    1.70425133420888E-02
(PID.TID 0000.0001)                       cg2d_iters =   120
(PID.TID 0000.0001)                         cg2d_res =    9.92813865917484E-14
(PID.TID 0000.0001) // =======================================================
(PID.TID 0000.0001) // Begin MONITOR dynamic field statistics
(PID.TID 0000.0001) // =======================================================
(PID.TID 0000.0001) %MON time_tsnumber                =                 36008
(PID.TID 0000.0001) %MON time_secondsf                =   3.1110912000000E+09
(PID.TID 0000.0001) %MON dynstat_eta_max              =   9.4547382694135E-01
(PID.TID 0000.0001) %MON dynstat_eta_min              =  -1.5144812618473E+00
(PID.TID 0000.0001) %MON dynstat_eta_mean             =  -5.4132809037192E-04
(PID.TID 0000.0001) %MON dynstat_eta_sd               =   5.8095227570492E-01
(PID.TID 0000.0001) %MON dynstat_eta_del2             =   2.1814183707866E-02
(PID.TID 0000.0001) %MON dynstat_uvel_max             =   1.3611728599307E-01
(PID.TID 0000.0001) %MON dynstat_uvel_min             =  -1.8228565429215E-01
(PID.TID 0000.0001) %MON dynstat_uvel_mean            =   1.8792666763537E-03
(PID.TID 0000.0001) %MON dynstat_uvel_sd              =   1.1321062570225E-02
(PID.TID 0000.0001) %MON dynstat_uvel_del2            =   1.5917316175048E-03
(PID.TID 0000.0001) %MON dynstat_vvel_max             =   1.1482380169228E-01
(PID.TID 0000.0001) %MON dynstat_vvel_min             =  -1.2944270430102E-01
(PID.TID 0000.0001) %MON dynstat_vvel_mean            =  -1.4604738779786E-06
(PID.TID 0000.0001) %MON dynstat_vvel_sd              =   5.8231986369763E-03
(PID.TID 0000.0001) %MON dynstat_vvel_del2            =   1.1384690432410E-03
(PID.TID 0000.0001) %MON dynstat_wvel_max             =   2.0274462202885E-05
(PID.TID 0000.0001) %MON dynstat_wvel_min             =  -5.9556276141552E-05
(PID.TID 0000.0001) %MON dynstat_wvel_mean            =  -4.6974818064941E-23
(PID.TID 0000.0001) %MON dynstat_wvel_sd              =   1.6393241285148E-06
(PID.TID 0000.0001) %MON dynstat_wvel_del2            =   5.2904446898472E-07
(PID.TID 0000.0001) %MON dynstat_theta_max            =   3.0443891394087E+01
(PID.TID 0000.0001) %MON dynstat_theta_min            =  -1.9705065961762E+00
(PID.TID 0000.0001) %MON dynstat_theta_mean           =   3.9134624799123E+00
(PID.TID 0000.0001) %MON dynstat_theta_sd             =   4.5244702357749E+00
(PID.TID 0000.0001) %MON dynstat_theta_del2           =   1.2206110255941E-01
(PID.TID 0000.0001) %MON dynstat_salt_max             =   3.7501949026313E+01
(PID.TID 0000.0001) %MON dynstat_salt_min             =   2.9738048268141E+01
(PID.TID 0000.0001) %MON dynstat_salt_mean            =   3.4730804393868E+01
(PID.TID 0000.0001) %MON dynstat_salt_sd              =   2.9565589621868E-01
(PID.TID 0000.0001) %MON dynstat_salt_del2            =   2.0326744256279E-02
(PID.TID 0000.0001) %MON extforcing_qnet_max          =   4.3322811889648E+02
(PID.TID 0000.0001) %MON extforcing_qnet_min          =  -1.8375684712728E+02
(PID.TID 0000.0001) %MON extforcing_qnet_mean         =  -1.6612621647628E+01
(PID.TID 0000.0001) %MON extforcing_qnet_sd           =   1.1139030190430E+02
(PID.TID 0000.0001) %MON extforcing_qnet_del2         =   9.5233734793557E+00
(PID.TID 0000.0001) %MON extforcing_qsw_max           =   0.0000000000000E+00
(PID.TID 0000.0001) %MON extforcing_qsw_min           =   0.0000000000000E+00
(PID.TID 0000.0001) %MON extforcing_qsw_mean          =   0.0000000000000E+00
(PID.TID 0000.0001) %MON extforcing_qsw_sd            =   0.0000000000000E+00
(PID.TID 0000.0001) %MON extforcing_qsw_del2          =   0.0000000000000E+00
(PID.TID 0000.0001) %MON extforcing_empmr_max         =   8.1889273909989E-05
(PID.TID 0000.0001) %MON extforcing_empmr_min         =  -7.2333472189712E-05
(PID.TID 0000.0001) %MON extforcing_empmr_mean        =   8.4477900014658E-07
(PID.TID 0000.0001) %MON extforcing_empmr_sd          =   2.8146998273902E-05
(PID.TID 0000.0001) %MON extforcing_empmr_del2        =   3.6997473944248E-06
(PID.TID 0000.0001) %MON advcfl_uvel_max              =   3.8605939513186E-02
(PID.TID 0000.0001) %MON advcfl_vvel_max              =   2.5148641434301E-02
(PID.TID 0000.0001) %MON advcfl_wvel_max              =   2.3933312830838E-02
(PID.TID 0000.0001) %MON advcfl_W_hf_max              =   2.7082432940158E-02
(PID.TID 0000.0001) %MON pe_b_mean                    =   4.3187940240848E-04
(PID.TID 0000.0001) %MON ke_max                       =   1.6468650966058E-02
(PID.TID 0000.0001) %MON ke_mean                      =   7.5055966103099E-05
(PID.TID 0000.0001) %MON ke_vol                       =   1.3226782436722E+18
(PID.TID 0000.0001) %MON vort_r_min                   =  -4.0281007899284E-07
(PID.TID 0000.0001) %MON vort_r_max                   =   4.4887431792297E-07
(PID.TID 0000.0001) %MON vort_a_mean                  =  -2.5274807109686E-05
(PID.TID 0000.0001) %MON vort_a_sd                    =   7.3604600372332E-05
(PID.TID 0000.0001) %MON vort_p_mean                  =  -3.1845655436895E-05
(PID.TID 0000.0001) %MON vort_p_sd                    =   1.3162580504405E-04
(PID.TID 0000.0001) %MON surfExpan_theta_mean         =   4.0498261333701E-08
(PID.TID 0000.0001) %MON surfExpan_salt_mean          =   1.2422719271276E-08
(PID.TID 0000.0001) // =======================================================
(PID.TID 0000.0001) // End MONITOR dynamic field statistics
(PID.TID 0000.0001) // =======================================================
(PID.TID 0000.0001) // =======================================================
(PID.TID 0000.0001) // Begin MONITOR ptracer field statistics
(PID.TID 0000.0001) // =======================================================
(PID.TID 0000.0001) %MON trcstat_ptracer01_max        =   3.7455973654635E+01
(PID.TID 0000.0001) %MON trcstat_ptracer01_min        =   2.9754847015156E+01
(PID.TID 0000.0001) %MON trcstat_ptracer01_mean       =   3.4718004148056E+01
(PID.TID 0000.0001) %MON trcstat_ptracer01_sd         =   2.9600943448685E-01
(PID.TID 0000.0001) %MON trcstat_ptracer01_del2       =   2.6040683145800E-02
(PID.TID 0000.0001) // =======================================================
(PID.TID 0000.0001) // End MONITOR ptracers field statistics
(PID.TID 0000.0001) // =======================================================
 cg2d: Sum(rhs),rhsMax =   3.47832682096730E-02  2.56692519159701E+00
(PID.TID 0000.0001)                    cg2d_init_res =    1.72488225173243E-02
(PID.TID 0000.0001)                       cg2d_iters =   121
(PID.TID 0000.0001)                         cg2d_res =    7.99537068976602E-14
(PID.TID 0000.0001) // =======================================================
(PID.TID 0000.0001) // Begin MONITOR dynamic field statistics
(PID.TID 0000.0001) // =======================================================
(PID.TID 0000.0001) %MON time_tsnumber                =                 36009
(PID.TID 0000.0001) %MON time_secondsf                =   3.1111776000000E+09
(PID.TID 0000.0001) %MON dynstat_eta_max              =   9.4413225900132E-01
(PID.TID 0000.0001) %MON dynstat_eta_min              =  -1.5139728482318E+00
(PID.TID 0000.0001) %MON dynstat_eta_mean             =  -6.1266433450929E-04
(PID.TID 0000.0001) %MON dynstat_eta_sd               =   5.8078762730299E-01
(PID.TID 0000.0001) %MON dynstat_eta_del2             =   2.1819114917974E-02
(PID.TID 0000.0001) %MON dynstat_uvel_max             =   1.3623711846691E-01
(PID.TID 0000.0001) %MON dynstat_uvel_min             =  -1.8144448407263E-01
(PID.TID 0000.0001) %MON dynstat_uvel_mean            =   1.8775899235983E-03
(PID.TID 0000.0001) %MON dynstat_uvel_sd              =   1.1321321073001E-02
(PID.TID 0000.0001) %MON dynstat_uvel_del2            =   1.5914254734759E-03
(PID.TID 0000.0001) %MON dynstat_vvel_max             =   1.1482810496084E-01
(PID.TID 0000.0001) %MON dynstat_vvel_min             =  -1.2895922115986E-01
(PID.TID 0000.0001) %MON dynstat_vvel_mean            =  -1.3900973972606E-06
(PID.TID 0000.0001) %MON dynstat_vvel_sd              =   5.8212233987563E-03
(PID.TID 0000.0001) %MON dynstat_vvel_del2            =   1.1376393014838E-03
(PID.TID 0000.0001) %MON dynstat_wvel_max             =   2.0240135946148E-05
(PID.TID 0000.0001) %MON dynstat_wvel_min             =  -5.9518630698569E-05
(PID.TID 0000.0001) %MON dynstat_wvel_mean            =   1.5266815871106E-22
(PID.TID 0000.0001) %MON dynstat_wvel_sd              =   1.6382108178445E-06
(PID.TID 0000.0001) %MON dynstat_wvel_del2            =   5.2873458442857E-07
(PID.TID 0000.0001) %MON dynstat_theta_max            =   3.0442924971889E+01
(PID.TID 0000.0001) %MON dynstat_theta_min            =  -1.9697006291922E+00
(PID.TID 0000.0001) %MON dynstat_theta_mean           =   3.9135552917803E+00
(PID.TID 0000.0001) %MON dynstat_theta_sd             =   4.5245936499970E+00
(PID.TID 0000.0001) %MON dynstat_theta_del2           =   1.2206890420208E-01
(PID.TID 0000.0001) %MON dynstat_salt_max             =   3.7501506916620E+01
(PID.TID 0000.0001) %MON dynstat_salt_min             =   2.9738144668749E+01
(PID.TID 0000.0001) %MON dynstat_salt_mean            =   3.4730806146445E+01
(PID.TID 0000.0001) %MON dynstat_salt_sd              =   2.9564896586611E-01
(PID.TID 0000.0001) %MON dynstat_salt_del2            =   2.0331363733746E-02
(PID.TID 0000.0001) %MON extforcing_qnet_max          =   4.3427630615234E+02
(PID.TID 0000.0001) %MON extforcing_qnet_min          =  -1.8328968454997E+02
(PID.TID 0000.0001) %MON extforcing_qnet_mean         =  -1.6600109691805E+01
(PID.TID 0000.0001) %MON extforcing_qnet_sd           =   1.1119125063866E+02
(PID.TID 0000.0001) %MON extforcing_qnet_del2         =   9.5355422152042E+00
(PID.TID 0000.0001) %MON extforcing_qsw_max           =   0.0000000000000E+00
(PID.TID 0000.0001) %MON extforcing_qsw_min           =   0.0000000000000E+00
(PID.TID 0000.0001) %MON extforcing_qsw_mean          =   0.0000000000000E+00
(PID.TID 0000.0001) %MON extforcing_qsw_sd            =   0.0000000000000E+00
(PID.TID 0000.0001) %MON extforcing_qsw_del2          =   0.0000000000000E+00
(PID.TID 0000.0001) %MON extforcing_empmr_max         =   8.1890940369552E-05
(PID.TID 0000.0001) %MON extforcing_empmr_min         =  -7.2715819499081E-05
(PID.TID 0000.0001) %MON extforcing_empmr_mean        =   8.5454875789209E-07
(PID.TID 0000.0001) %MON extforcing_empmr_sd          =   2.8214283860046E-05
(PID.TID 0000.0001) %MON extforcing_empmr_del2        =   3.7026026361079E-06
(PID.TID 0000.0001) %MON advcfl_uvel_max              =   3.8639850073020E-02
(PID.TID 0000.0001) %MON advcfl_vvel_max              =   2.5054708414112E-02
(PID.TID 0000.0001) %MON advcfl_wvel_max              =   2.3918184615611E-02
(PID.TID 0000.0001) %MON advcfl_W_hf_max              =   2.7065314170297E-02
(PID.TID 0000.0001) %MON pe_b_mean                    =   4.3163474370104E-04
(PID.TID 0000.0001) %MON ke_max                       =   1.6304682434883E-02
(PID.TID 0000.0001) %MON ke_mean                      =   7.5045437361152E-05
(PID.TID 0000.0001) %MON ke_vol                       =   1.3226782436722E+18
(PID.TID 0000.0001) %MON vort_r_min                   =  -4.0155199156064E-07
(PID.TID 0000.0001) %MON vort_r_max                   =   4.5073715191358E-07
(PID.TID 0000.0001) %MON vort_a_mean                  =  -2.5274807109549E-05
(PID.TID 0000.0001) %MON vort_a_sd                    =   7.3604600233673E-05
(PID.TID 0000.0001) %MON vort_p_mean                  =  -3.1845655436721E-05
(PID.TID 0000.0001) %MON vort_p_sd                    =   1.3162580250662E-04
(PID.TID 0000.0001) %MON surfExpan_theta_mean         =   4.0926100103438E-08
(PID.TID 0000.0001) %MON surfExpan_salt_mean          =   1.2376128918905E-08
(PID.TID 0000.0001) // =======================================================
(PID.TID 0000.0001) // End MONITOR dynamic field statistics
(PID.TID 0000.0001) // =======================================================
(PID.TID 0000.0001) // =======================================================
(PID.TID 0000.0001) // Begin MONITOR ptracer field statistics
(PID.TID 0000.0001) // =======================================================
(PID.TID 0000.0001) %MON trcstat_ptracer01_max        =   3.7453315583904E+01
(PID.TID 0000.0001) %MON trcstat_ptracer01_min        =   2.9755330039546E+01
(PID.TID 0000.0001) %MON trcstat_ptracer01_mean       =   3.4718003905261E+01
(PID.TID 0000.0001) %MON trcstat_ptracer01_sd         =   2.9597760567438E-01
(PID.TID 0000.0001) %MON trcstat_ptracer01_del2       =   2.6014726141892E-02
(PID.TID 0000.0001) // =======================================================
(PID.TID 0000.0001) // End MONITOR ptracers field statistics
(PID.TID 0000.0001) // =======================================================
 cg2d: Sum(rhs),rhsMax =   3.88578524852458E-02  2.56836173758543E+00
(PID.TID 0000.0001)                    cg2d_init_res =    1.71624923852741E-02
(PID.TID 0000.0001)                       cg2d_iters =   121
(PID.TID 0000.0001)                         cg2d_res =    7.95731270781360E-14
(PID.TID 0000.0001) // =======================================================
(PID.TID 0000.0001) // Begin MONITOR dynamic field statistics
(PID.TID 0000.0001) // =======================================================
(PID.TID 0000.0001) %MON time_tsnumber                =                 36010
(PID.TID 0000.0001) %MON time_secondsf                =   3.1112640000000E+09
(PID.TID 0000.0001) %MON dynstat_eta_max              =   9.4279870879419E-01
(PID.TID 0000.0001) %MON dynstat_eta_min              =  -1.5134874513968E+00
(PID.TID 0000.0001) %MON dynstat_eta_mean             =  -6.8481614103145E-04
(PID.TID 0000.0001) %MON dynstat_eta_sd               =   5.8062719362356E-01
(PID.TID 0000.0001) %MON dynstat_eta_del2             =   2.1823103442132E-02
(PID.TID 0000.0001) %MON dynstat_uvel_max             =   1.3634336162376E-01
(PID.TID 0000.0001) %MON dynstat_uvel_min             =  -1.8059213265279E-01
(PID.TID 0000.0001) %MON dynstat_uvel_mean            =   1.8759010970278E-03
(PID.TID 0000.0001) %MON dynstat_uvel_sd              =   1.1321828201324E-02
(PID.TID 0000.0001) %MON dynstat_uvel_del2            =   1.5911926923253E-03
(PID.TID 0000.0001) %MON dynstat_vvel_max             =   1.1483830795528E-01
(PID.TID 0000.0001) %MON dynstat_vvel_min             =  -1.2845474673082E-01
(PID.TID 0000.0001) %MON dynstat_vvel_mean            =  -1.2902720274239E-06
(PID.TID 0000.0001) %MON dynstat_vvel_sd              =   5.8194915428111E-03
(PID.TID 0000.0001) %MON dynstat_vvel_del2            =   1.1367946026678E-03
(PID.TID 0000.0001) %MON dynstat_wvel_max             =   2.0226289104538E-05
(PID.TID 0000.0001) %MON dynstat_wvel_min             =  -5.9467520963840E-05
(PID.TID 0000.0001) %MON dynstat_wvel_mean            =   1.6441186322729E-22
(PID.TID 0000.0001) %MON dynstat_wvel_sd              =   1.6375767318352E-06
(PID.TID 0000.0001) %MON dynstat_wvel_del2            =   5.2857655528313E-07
(PID.TID 0000.0001) %MON dynstat_theta_max            =   3.0441434465324E+01
(PID.TID 0000.0001) %MON dynstat_theta_min            =  -1.9689108427124E+00
(PID.TID 0000.0001) %MON dynstat_theta_mean           =   3.9136482896244E+00
(PID.TID 0000.0001) %MON dynstat_theta_sd             =   4.5247176201170E+00
(PID.TID 0000.0001) %MON dynstat_theta_del2           =   1.2208187676864E-01
(PID.TID 0000.0001) %MON dynstat_salt_max             =   3.7500938235491E+01
(PID.TID 0000.0001) %MON dynstat_salt_min             =   2.9738267247177E+01
(PID.TID 0000.0001) %MON dynstat_salt_mean            =   3.4730807925421E+01
(PID.TID 0000.0001) %MON dynstat_salt_sd              =   2.9563897397951E-01
(PID.TID 0000.0001) %MON dynstat_salt_del2            =   2.0346484094718E-02
(PID.TID 0000.0001) %MON extforcing_qnet_max          =   4.3532449340820E+02
(PID.TID 0000.0001) %MON extforcing_qnet_min          =  -1.8282252197266E+02
(PID.TID 0000.0001) %MON extforcing_qnet_mean         =  -1.6587597735982E+01
(PID.TID 0000.0001) %MON extforcing_qnet_sd           =   1.1099484968290E+02
(PID.TID 0000.0001) %MON extforcing_qnet_del2         =   9.5493322704987E+00
(PID.TID 0000.0001) %MON extforcing_qsw_max           =   0.0000000000000E+00
(PID.TID 0000.0001) %MON extforcing_qsw_min           =   0.0000000000000E+00
(PID.TID 0000.0001) %MON extforcing_qsw_mean          =   0.0000000000000E+00
(PID.TID 0000.0001) %MON extforcing_qsw_sd            =   0.0000000000000E+00
(PID.TID 0000.0001) %MON extforcing_qsw_del2          =   0.0000000000000E+00
(PID.TID 0000.0001) %MON extforcing_empmr_max         =   8.1892606829115E-05
(PID.TID 0000.0001) %MON extforcing_empmr_min         =  -7.3098166808450E-05
(PID.TID 0000.0001) %MON extforcing_empmr_mean        =   8.6431851563759E-07
(PID.TID 0000.0001) %MON extforcing_empmr_sd          =   2.8285734796509E-05
(PID.TID 0000.0001) %MON extforcing_empmr_del2        =   3.7064441890224E-06
(PID.TID 0000.0001) %MON advcfl_uvel_max              =   3.8649292326729E-02
(PID.TID 0000.0001) %MON advcfl_vvel_max              =   2.4956697123345E-02
(PID.TID 0000.0001) %MON advcfl_wvel_max              =   2.3897645633841E-02
(PID.TID 0000.0001) %MON advcfl_W_hf_max              =   2.7042072690925E-02
(PID.TID 0000.0001) %MON pe_b_mean                    =   4.3139643173163E-04
(PID.TID 0000.0001) %MON ke_max                       =   1.6139712943495E-02
(PID.TID 0000.0001) %MON ke_mean                      =   7.5038723505705E-05
(PID.TID 0000.0001) %MON ke_vol                       =   1.3226782436722E+18
(PID.TID 0000.0001) %MON vort_r_min                   =  -4.0023763334301E-07
(PID.TID 0000.0001) %MON vort_r_max                   =   4.5260722905019E-07
(PID.TID 0000.0001) %MON vort_a_mean                  =  -2.5274807109229E-05
(PID.TID 0000.0001) %MON vort_a_sd                    =   7.3604600093147E-05
(PID.TID 0000.0001) %MON vort_p_mean                  =  -3.1845655436319E-05
(PID.TID 0000.0001) %MON vort_p_sd                    =   1.3162579993957E-04
(PID.TID 0000.0001) %MON surfExpan_theta_mean         =   4.1339079678585E-08
(PID.TID 0000.0001) %MON surfExpan_salt_mean          =   1.2346094061543E-08
(PID.TID 0000.0001) // =======================================================
(PID.TID 0000.0001) // End MONITOR dynamic field statistics
(PID.TID 0000.0001) // =======================================================
(PID.TID 0000.0001) // =======================================================
(PID.TID 0000.0001) // Begin MONITOR ptracer field statistics
(PID.TID 0000.0001) // =======================================================
(PID.TID 0000.0001) %MON trcstat_ptracer01_max        =   3.7450629517627E+01
(PID.TID 0000.0001) %MON trcstat_ptracer01_min        =   2.9755849789561E+01
(PID.TID 0000.0001) %MON trcstat_ptracer01_mean       =   3.4718003663521E+01
(PID.TID 0000.0001) %MON trcstat_ptracer01_sd         =   2.9594597156996E-01
(PID.TID 0000.0001) %MON trcstat_ptracer01_del2       =   2.5987082081188E-02
(PID.TID 0000.0001) // =======================================================
(PID.TID 0000.0001) // End MONITOR ptracers field statistics
(PID.TID 0000.0001) // =======================================================
 Computing Diagnostic #     23  ETAN         Counter:      10   Parms: SM      M1      
 Computing Diagnostic #     24  ETANSQ       Counter:      10   Parms: SM P    M1      
 Computing Diagnostic #     25  DETADT2      Counter:      10   Parms: SM      M1      
 Computing Diagnostic #     69  PHIBOT       Counter:      10   Parms: SM      M1      
 Computing Diagnostic #     70  PHIBOTSQ     Counter:      10   Parms: SM P    M1      
 Computing Diagnostic #    188  DSLPuFlw     Counter:      10   Parms: UU      M1      
           Vector  Mate for  DSLPuFlw     Diagnostic #    189  DSLPvFlw exists 
 Computing Diagnostic #    189  DSLPvFlw     Counter:      10   Parms: VV      M1      
           Vector  Mate for  DSLPvFlw     Diagnostic #    188  DSLPuFlw exists 
 Computing Diagnostic #     45  UVELMASS     Counter:      10   Parms: UU      MR      
           Vector  Mate for  UVELMASS     Diagnostic #     46  VVELMASS exists 
 Computing Diagnostic #     46  VVELMASS     Counter:      10   Parms: VV      MR      
           Vector  Mate for  VVELMASS     Diagnostic #     45  UVELMASS exists 
 Computing Diagnostic #     32  WVEL         Counter:      10   Parms: WM      LR      
 Computing Diagnostic #     26  THETA        Counter:      10   Parms: SM      MR      
 Computing Diagnostic #     27  SALT         Counter:      10   Parms: SM      MR      
 Computing Diagnostic #     38  WVELSQ       Counter:      10   Parms: WM P    LR      
 Computing Diagnostic #     62  RHOAnoma     Counter:      10   Parms: SM      MR      
 Computing Diagnostic #     72  DRHODR       Counter:      10   Parms: SM      LR      
 Computing Diagnostic #     73  CONVADJ      Counter:      10   Parms: SM      LR      
 Computing Diagnostic #    182  GM_PsiX      Counter:      10   Parms: UU   183LR      
           Vector  Mate for  GM_PsiX      Diagnostic #    183  GM_PsiY  exists 
 Computing Diagnostic #    183  GM_PsiY      Counter:      10   Parms: VV   182LR      
           Vector  Mate for  GM_PsiY      Diagnostic #    182  GM_PsiX  exists 
 Computing Diagnostic #    190  DSLP_TH      Counter:      10   Parms: SM      MR      
 Computing Diagnostic #    191  DSLP_SLT     Counter:      10   Parms: SM      MR      
(PID.TID 0000.0001) %CHECKPOINT     36010 ckptA
(PID.TID 0000.0001) DIAGSTATS_CLOSE_IO: close file: dynStDiag.0000036000.txt , unit=     9
(PID.TID 0000.0001) DIAGSTATS_CLOSE_IO: close file: oceStDiag.0000036000.txt , unit=    10
(PID.TID 0000.0001)   Seconds in section "ALL                    [THE_MODEL_MAIN]":
(PID.TID 0000.0001)           User time:  17.1743896
(PID.TID 0000.0001)         System time:  0.732889017
(PID.TID 0000.0001)     Wall clock time:  18.0229399
(PID.TID 0000.0001)          No. starts: 1
(PID.TID 0000.0001)           No. stops: 1
(PID.TID 0000.0001)   Seconds in section "INITIALISE_FIXED       [THE_MODEL_MAIN]":
(PID.TID 0000.0001)           User time:  0.232964004
(PID.TID 0000.0001)         System time:  0.0749889966
(PID.TID 0000.0001)     Wall clock time:  0.339036942
(PID.TID 0000.0001)          No. starts: 1
(PID.TID 0000.0001)           No. stops: 1
(PID.TID 0000.0001)   Seconds in section "THE_MAIN_LOOP          [THE_MODEL_MAIN]":
(PID.TID 0000.0001)           User time:  16.9414256
(PID.TID 0000.0001)         System time:  0.65790002
(PID.TID 0000.0001)     Wall clock time:  17.683584
(PID.TID 0000.0001)          No. starts: 1
(PID.TID 0000.0001)           No. stops: 1
(PID.TID 0000.0001)   Seconds in section "INITIALISE_VARIA    [THE_MAIN_LOOP]":
(PID.TID 0000.0001)           User time:  0.568913966
(PID.TID 0000.0001)         System time:  0.15497601
(PID.TID 0000.0001)     Wall clock time:  0.749890804
(PID.TID 0000.0001)          No. starts: 1
(PID.TID 0000.0001)           No. stops: 1
(PID.TID 0000.0001)   Seconds in section "MAIN LOOP           [THE_MAIN_LOOP]":
(PID.TID 0000.0001)           User time:  16.3725116
(PID.TID 0000.0001)         System time:  0.50292401
(PID.TID 0000.0001)     Wall clock time:  16.933557
(PID.TID 0000.0001)          No. starts: 1
(PID.TID 0000.0001)           No. stops: 1
(PID.TID 0000.0001)   Seconds in section "FORWARD_STEP        [THE_MAIN_LOOP]":
(PID.TID 0000.0001)           User time:  16.3715116
(PID.TID 0000.0001)         System time:  0.50292401
(PID.TID 0000.0001)     Wall clock time:  16.9330912
(PID.TID 0000.0001)          No. starts: 10
(PID.TID 0000.0001)           No. stops: 10
(PID.TID 0000.0001)   Seconds in section "DO_STATEVARS_DIAGS  [FORWARD_STEP]":
(PID.TID 0000.0001)           User time:  0.306952894
(PID.TID 0000.0001)         System time:  0.00299999118
(PID.TID 0000.0001)     Wall clock time:  0.309757948
(PID.TID 0000.0001)          No. starts: 20
(PID.TID 0000.0001)           No. stops: 20
(PID.TID 0000.0001)   Seconds in section "LOAD_FIELDS_DRIVER  [FORWARD_STEP]":
(PID.TID 0000.0001)           User time:  0.0199959874
(PID.TID 0000.0001)         System time:  0.00199998915
(PID.TID 0000.0001)     Wall clock time:  0.0229258537
(PID.TID 0000.0001)          No. starts: 10
(PID.TID 0000.0001)           No. stops: 10
(PID.TID 0000.0001)   Seconds in section "EXTERNAL_FLDS_LOAD [LOAD_FLDS_DRIVER]":
(PID.TID 0000.0001)           User time:  0.0199959874
(PID.TID 0000.0001)         System time:  0.00100000203
(PID.TID 0000.0001)     Wall clock time:  0.0220069885
(PID.TID 0000.0001)          No. starts: 10
(PID.TID 0000.0001)           No. stops: 10
(PID.TID 0000.0001)   Seconds in section "DO_ATMOSPHERIC_PHYS [FORWARD_STEP]":
(PID.TID 0000.0001)           User time:  0.
(PID.TID 0000.0001)         System time:  0.
(PID.TID 0000.0001)     Wall clock time:  0.000419378281
(PID.TID 0000.0001)          No. starts: 10
(PID.TID 0000.0001)           No. stops: 10
(PID.TID 0000.0001)   Seconds in section "DO_OCEANIC_PHYS     [FORWARD_STEP]":
(PID.TID 0000.0001)           User time:  2.24365705
(PID.TID 0000.0001)         System time:  0.00399900973
(PID.TID 0000.0001)     Wall clock time:  2.24782252
(PID.TID 0000.0001)          No. starts: 10
(PID.TID 0000.0001)           No. stops: 10
(PID.TID 0000.0001)   Seconds in section "THERMODYNAMICS      [FORWARD_STEP]":
(PID.TID 0000.0001)           User time:  5.23220325
(PID.TID 0000.0001)         System time:  0.010999009
(PID.TID 0000.0001)     Wall clock time:  5.24695325
(PID.TID 0000.0001)          No. starts: 10
(PID.TID 0000.0001)           No. stops: 10
(PID.TID 0000.0001)   Seconds in section "DYNAMICS            [FORWARD_STEP]":
(PID.TID 0000.0001)           User time:  4.23735917
(PID.TID 0000.0001)         System time:  0.00399902463
(PID.TID 0000.0001)     Wall clock time:  4.25428939
(PID.TID 0000.0001)          No. starts: 10
(PID.TID 0000.0001)           No. stops: 10
(PID.TID 0000.0001)   Seconds in section "SOLVE_FOR_PRESSURE  [FORWARD_STEP]":
(PID.TID 0000.0001)           User time:  1.9367044
(PID.TID 0000.0001)         System time:  0.000999987125
(PID.TID 0000.0001)     Wall clock time:  1.93719387
(PID.TID 0000.0001)          No. starts: 10
(PID.TID 0000.0001)           No. stops: 10
(PID.TID 0000.0001)   Seconds in section "MOM_CORRECTION_STEP [FORWARD_STEP]":
(PID.TID 0000.0001)           User time:  0.291953802
(PID.TID 0000.0001)         System time:  0.
(PID.TID 0000.0001)     Wall clock time:  0.299201965
(PID.TID 0000.0001)          No. starts: 10
(PID.TID 0000.0001)           No. stops: 10
(PID.TID 0000.0001)   Seconds in section "UPDATE_ETAH         [FORWARD_STEP]":
(PID.TID 0000.0001)           User time:  0.00299859047
(PID.TID 0000.0001)         System time:  0.
(PID.TID 0000.0001)     Wall clock time:  0.0027050972
(PID.TID 0000.0001)          No. starts: 10
(PID.TID 0000.0001)           No. stops: 10
(PID.TID 0000.0001)   Seconds in section "TRC_CORRECTION_STEP [FORWARD_STEP]":
(PID.TID 0000.0001)           User time:  0.0779881477
(PID.TID 0000.0001)         System time:  0.
(PID.TID 0000.0001)     Wall clock time:  0.0784401894
(PID.TID 0000.0001)          No. starts: 10
(PID.TID 0000.0001)           No. stops: 10
(PID.TID 0000.0001)   Seconds in section "BLOCKING_EXCHANGES  [FORWARD_STEP]":
(PID.TID 0000.0001)           User time:  0.122982502
(PID.TID 0000.0001)         System time:  0.
(PID.TID 0000.0001)     Wall clock time:  0.122233629
(PID.TID 0000.0001)          No. starts: 10
(PID.TID 0000.0001)           No. stops: 10
(PID.TID 0000.0001)   Seconds in section "MONITOR             [FORWARD_STEP]":
(PID.TID 0000.0001)           User time:  1.23981214
(PID.TID 0000.0001)         System time:  0.
(PID.TID 0000.0001)     Wall clock time:  1.24049926
(PID.TID 0000.0001)          No. starts: 10
(PID.TID 0000.0001)           No. stops: 10
(PID.TID 0000.0001)   Seconds in section "DO_THE_MODEL_IO     [FORWARD_STEP]":
(PID.TID 0000.0001)           User time:  0.42693615
(PID.TID 0000.0001)         System time:  0.249961972
(PID.TID 0000.0001)     Wall clock time:  0.715731621
(PID.TID 0000.0001)          No. starts: 10
(PID.TID 0000.0001)           No. stops: 10
(PID.TID 0000.0001)   Seconds in section "DO_WRITE_PICKUP     [FORWARD_STEP]":
(PID.TID 0000.0001)           User time:  0.22196579
(PID.TID 0000.0001)         System time:  0.225966036
(PID.TID 0000.0001)     Wall clock time:  0.448182821
(PID.TID 0000.0001)          No. starts: 10
(PID.TID 0000.0001)           No. stops: 10
(PID.TID 0000.0001) // ======================================================
(PID.TID 0000.0001) // Tile <-> Tile communication statistics
(PID.TID 0000.0001) // ======================================================
(PID.TID 0000.0001) // o Tile number: 000001
(PID.TID 0000.0001) //         No. X exchanges =              0
(PID.TID 0000.0001) //            Max. X spins =              0
(PID.TID 0000.0001) //            Min. X spins =     1000000000
(PID.TID 0000.0001) //          Total. X spins =              0
(PID.TID 0000.0001) //            Avg. X spins =       0.00E+00
(PID.TID 0000.0001) //         No. Y exchanges =              0
(PID.TID 0000.0001) //            Max. Y spins =              0
(PID.TID 0000.0001) //            Min. Y spins =     1000000000
(PID.TID 0000.0001) //          Total. Y spins =              0
(PID.TID 0000.0001) //            Avg. Y spins =       0.00E+00
(PID.TID 0000.0001) // o Tile number: 000002
(PID.TID 0000.0001) //         No. X exchanges =              0
(PID.TID 0000.0001) //            Max. X spins =              0
(PID.TID 0000.0001) //            Min. X spins =     1000000000
(PID.TID 0000.0001) //          Total. X spins =              0
(PID.TID 0000.0001) //            Avg. X spins =       0.00E+00
(PID.TID 0000.0001) //         No. Y exchanges =              0
(PID.TID 0000.0001) //            Max. Y spins =              0
(PID.TID 0000.0001) //            Min. Y spins =     1000000000
(PID.TID 0000.0001) //          Total. Y spins =              0
(PID.TID 0000.0001) //            Avg. Y spins =       0.00E+00
(PID.TID 0000.0001) // o Tile number: 000003
(PID.TID 0000.0001) //         No. X exchanges =              0
(PID.TID 0000.0001) //            Max. X spins =              0
(PID.TID 0000.0001) //            Min. X spins =     1000000000
(PID.TID 0000.0001) //          Total. X spins =              0
(PID.TID 0000.0001) //            Avg. X spins =       0.00E+00
(PID.TID 0000.0001) //         No. Y exchanges =              0
(PID.TID 0000.0001) //            Max. Y spins =              0
(PID.TID 0000.0001) //            Min. Y spins =     1000000000
(PID.TID 0000.0001) //          Total. Y spins =              0
(PID.TID 0000.0001) //            Avg. Y spins =       0.00E+00
(PID.TID 0000.0001) // o Tile number: 000004
(PID.TID 0000.0001) //         No. X exchanges =              0
(PID.TID 0000.0001) //            Max. X spins =              0
(PID.TID 0000.0001) //            Min. X spins =     1000000000
(PID.TID 0000.0001) //          Total. X spins =              0
(PID.TID 0000.0001) //            Avg. X spins =       0.00E+00
(PID.TID 0000.0001) //         No. Y exchanges =              0
(PID.TID 0000.0001) //            Max. Y spins =              0
(PID.TID 0000.0001) //            Min. Y spins =     1000000000
(PID.TID 0000.0001) //          Total. Y spins =              0
(PID.TID 0000.0001) //            Avg. Y spins =       0.00E+00
(PID.TID 0000.0001) // o Thread number: 000001
(PID.TID 0000.0001) //            No. barriers =          19714
(PID.TID 0000.0001) //      Max. barrier spins =              1
(PID.TID 0000.0001) //      Min. barrier spins =              1
(PID.TID 0000.0001) //     Total barrier spins =          19714
(PID.TID 0000.0001) //      Avg. barrier spins =       1.00E+00
