(PID.TID 0000.0001) 
(PID.TID 0000.0001) // ======================================================
(PID.TID 0000.0001) //                      MITgcm UV
(PID.TID 0000.0001) //                      =========
(PID.TID 0000.0001) // ======================================================
(PID.TID 0000.0001) // execution environment starting up...
(PID.TID 0000.0001) // Run starting Wed Apr  1 14:19:48 1998
(PID.TID 0000.0001) // on melville.lcs.mit.edu
(PID.TID 0000.0001) // account cnh
(PID.TID 0000.0001) // MITgcm UV Release: $Name:  $
(PID.TID 0000.0001) 
(PID.TID 0000.0001) // =======================================================
(PID.TID 0000.0001) // Execution Environment parameter file "eedata"
(PID.TID 0000.0001) // =======================================================
(PID.TID 0000.0001) ># Example "eedata" file
(PID.TID 0000.0001) ># Lines beginning "#" are comments
(PID.TID 0000.0001) ># nTx - No. threads per process in X
(PID.TID 0000.0001) ># nTy - No. threads per process in Y
(PID.TID 0000.0001) > &EEPARMS
(PID.TID 0000.0001) > useCubedSphereExchange=.TRUE.,
(PID.TID 0000.0001) > nTx=1,nTy=1
(PID.TID 0000.0001) > &
(PID.TID 0000.0001) ># Note: Some systems use & as the
(PID.TID 0000.0001) ># namelist terminator. Other systems
(PID.TID 0000.0001) ># use a / character (as shown here).
(PID.TID 0000.0001) 
(PID.TID 0000.0001) // =======================================================
(PID.TID 0000.0001) // Computational Grid Specification ( see files "SIZE.h" )
(PID.TID 0000.0001) //                                  ( and "eedata"       )
(PID.TID 0000.0001) // =======================================================
(PID.TID 0000.0001)      nPx =    1 ; /* No. processes in X */
(PID.TID 0000.0001)      nPy =    1 ; /* No. processes in Y */
(PID.TID 0000.0001)      nSx =   12 ; /* No. tiles in X per process */
(PID.TID 0000.0001)      nSy =    1 ; /* No. tiles in Y per process */
(PID.TID 0000.0001)      sNx =   32 ; /* Tile size in X */
(PID.TID 0000.0001)      sNy =   16 ; /* Tile size in Y */
(PID.TID 0000.0001)      OLx =    2 ; /* Tile overlap distance in X */
(PID.TID 0000.0001)      OLy =    2 ; /* Tile overlap distance in Y */
(PID.TID 0000.0001)      nTx =    1 ; /* No. threads in X per process */
(PID.TID 0000.0001)      nTy =    1 ; /* No. threads in Y per process */
(PID.TID 0000.0001)       Nr =   15 ; /* No. levels in the vertical   */
(PID.TID 0000.0001)       nX =  384 ; /* Total domain size in X ( = nPx*nSx*sNx ) */
(PID.TID 0000.0001)       nY =   16 ; /* Total domain size in Y ( = nPy*nSy*sNy ) */
(PID.TID 0000.0001)   nTiles =   12 ; /* Total no. tiles per process ( = nSx*nSy ) */
(PID.TID 0000.0001)   nProcs =    1 ; /* Total no. processes ( = nPx*nPy ) */
(PID.TID 0000.0001) nThreads =    1 ; /* Total no. threads per process ( = nTx*nTy ) */
(PID.TID 0000.0001) usingMPI =    F ; /* Flag used to control whether MPI is in use */
(PID.TID 0000.0001)                   /*  note: To execute a program with MPI calls */
(PID.TID 0000.0001)                   /*  it must be launched appropriately e.g     */
(PID.TID 0000.0001)                   /*  "mpirun -np 64 ......"                    */
(PID.TID 0000.0001) useCoupler=   F ; /* Flag used to control communications with */
(PID.TID 0000.0001)                   /*  other model components, through a coupler */
(PID.TID 0000.0001) 
(PID.TID 0000.0001) // ======================================================
(PID.TID 0000.0001) // Mapping of tiles to threads
(PID.TID 0000.0001) // ======================================================
(PID.TID 0000.0001) // -o- Thread   1, tiles (   1:  12,   1:   1)
(PID.TID 0000.0001) 
(PID.TID 0000.0001) // ======================================================
(PID.TID 0000.0001) // Tile <-> Tile connectvity table
(PID.TID 0000.0001) // ======================================================
(PID.TID 0000.0001) // Tile number: 000001 (process no. = 000001)
(PID.TID 0000.0001) //        WEST: Tile = 000012, Process = 000001, Comm = put
(PID.TID 0000.0001) //                bi = 000012, bj = 000001
(PID.TID 0000.0001) //        EAST: Tile = 000002, Process = 000001, Comm = put
(PID.TID 0000.0001) //                bi = 000002, bj = 000001
(PID.TID 0000.0001) //       SOUTH: Tile = 000001, Process = 000001, Comm = put
(PID.TID 0000.0001) //                bi = 000001, bj = 000001
(PID.TID 0000.0001) //       NORTH: Tile = 000001, Process = 000001, Comm = put
(PID.TID 0000.0001) //                bi = 000001, bj = 000001
(PID.TID 0000.0001) // Tile number: 000002 (process no. = 000001)
(PID.TID 0000.0001) //        WEST: Tile = 000001, Process = 000001, Comm = put
(PID.TID 0000.0001) //                bi = 000001, bj = 000001
(PID.TID 0000.0001) //        EAST: Tile = 000003, Process = 000001, Comm = put
(PID.TID 0000.0001) //                bi = 000003, bj = 000001
(PID.TID 0000.0001) //       SOUTH: Tile = 000002, Process = 000001, Comm = put
(PID.TID 0000.0001) //                bi = 000002, bj = 000001
(PID.TID 0000.0001) //       NORTH: Tile = 000002, Process = 000001, Comm = put
(PID.TID 0000.0001) //                bi = 000002, bj = 000001
(PID.TID 0000.0001) // Tile number: 000003 (process no. = 000001)
(PID.TID 0000.0001) //        WEST: Tile = 000002, Process = 000001, Comm = put
(PID.TID 0000.0001) //                bi = 000002, bj = 000001
(PID.TID 0000.0001) //        EAST: Tile = 000004, Process = 000001, Comm = put
(PID.TID 0000.0001) //                bi = 000004, bj = 000001
(PID.TID 0000.0001) //       SOUTH: Tile = 000003, Process = 000001, Comm = put
(PID.TID 0000.0001) //                bi = 000003, bj = 000001
(PID.TID 0000.0001) //       NORTH: Tile = 000003, Process = 000001, Comm = put
(PID.TID 0000.0001) //                bi = 000003, bj = 000001
(PID.TID 0000.0001) // Tile number: 000004 (process no. = 000001)
(PID.TID 0000.0001) //        WEST: Tile = 000003, Process = 000001, Comm = put
(PID.TID 0000.0001) //                bi = 000003, bj = 000001
(PID.TID 0000.0001) //        EAST: Tile = 000005, Process = 000001, Comm = put
(PID.TID 0000.0001) //                bi = 000005, bj = 000001
(PID.TID 0000.0001) //       SOUTH: Tile = 000004, Process = 000001, Comm = put
(PID.TID 0000.0001) //                bi = 000004, bj = 000001
(PID.TID 0000.0001) //       NORTH: Tile = 000004, Process = 000001, Comm = put
(PID.TID 0000.0001) //                bi = 000004, bj = 000001
(PID.TID 0000.0001) // Tile number: 000005 (process no. = 000001)
(PID.TID 0000.0001) //        WEST: Tile = 000004, Process = 000001, Comm = put
(PID.TID 0000.0001) //                bi = 000004, bj = 000001
(PID.TID 0000.0001) //        EAST: Tile = 000006, Process = 000001, Comm = put
(PID.TID 0000.0001) //                bi = 000006, bj = 000001
(PID.TID 0000.0001) //       SOUTH: Tile = 000005, Process = 000001, Comm = put
(PID.TID 0000.0001) //                bi = 000005, bj = 000001
(PID.TID 0000.0001) //       NORTH: Tile = 000005, Process = 000001, Comm = put
(PID.TID 0000.0001) //                bi = 000005, bj = 000001
(PID.TID 0000.0001) // Tile number: 000006 (process no. = 000001)
(PID.TID 0000.0001) //        WEST: Tile = 000005, Process = 000001, Comm = put
(PID.TID 0000.0001) //                bi = 000005, bj = 000001
(PID.TID 0000.0001) //        EAST: Tile = 000007, Process = 000001, Comm = put
(PID.TID 0000.0001) //                bi = 000007, bj = 000001
(PID.TID 0000.0001) //       SOUTH: Tile = 000006, Process = 000001, Comm = put
(PID.TID 0000.0001) //                bi = 000006, bj = 000001
(PID.TID 0000.0001) //       NORTH: Tile = 000006, Process = 000001, Comm = put
(PID.TID 0000.0001) //                bi = 000006, bj = 000001
(PID.TID 0000.0001) // Tile number: 000007 (process no. = 000001)
(PID.TID 0000.0001) //        WEST: Tile = 000006, Process = 000001, Comm = put
(PID.TID 0000.0001) //                bi = 000006, bj = 000001
(PID.TID 0000.0001) //        EAST: Tile = 000008, Process = 000001, Comm = put
(PID.TID 0000.0001) //                bi = 000008, bj = 000001
(PID.TID 0000.0001) //       SOUTH: Tile = 000007, Process = 000001, Comm = put
(PID.TID 0000.0001) //                bi = 000007, bj = 000001
(PID.TID 0000.0001) //       NORTH: Tile = 000007, Process = 000001, Comm = put
(PID.TID 0000.0001) //                bi = 000007, bj = 000001
(PID.TID 0000.0001) // Tile number: 000008 (process no. = 000001)
(PID.TID 0000.0001) //        WEST: Tile = 000007, Process = 000001, Comm = put
(PID.TID 0000.0001) //                bi = 000007, bj = 000001
(PID.TID 0000.0001) //        EAST: Tile = 000009, Process = 000001, Comm = put
(PID.TID 0000.0001) //                bi = 000009, bj = 000001
(PID.TID 0000.0001) //       SOUTH: Tile = 000008, Process = 000001, Comm = put
(PID.TID 0000.0001) //                bi = 000008, bj = 000001
(PID.TID 0000.0001) //       NORTH: Tile = 000008, Process = 000001, Comm = put
(PID.TID 0000.0001) //                bi = 000008, bj = 000001
(PID.TID 0000.0001) // Tile number: 000009 (process no. = 000001)
(PID.TID 0000.0001) //        WEST: Tile = 000008, Process = 000001, Comm = put
(PID.TID 0000.0001) //                bi = 000008, bj = 000001
(PID.TID 0000.0001) //        EAST: Tile = 000010, Process = 000001, Comm = put
(PID.TID 0000.0001) //                bi = 000010, bj = 000001
(PID.TID 0000.0001) //       SOUTH: Tile = 000009, Process = 000001, Comm = put
(PID.TID 0000.0001) //                bi = 000009, bj = 000001
(PID.TID 0000.0001) //       NORTH: Tile = 000009, Process = 000001, Comm = put
(PID.TID 0000.0001) //                bi = 000009, bj = 000001
(PID.TID 0000.0001) // Tile number: 000010 (process no. = 000001)
(PID.TID 0000.0001) //        WEST: Tile = 000009, Process = 000001, Comm = put
(PID.TID 0000.0001) //                bi = 000009, bj = 000001
(PID.TID 0000.0001) //        EAST: Tile = 000011, Process = 000001, Comm = put
(PID.TID 0000.0001) //                bi = 000011, bj = 000001
(PID.TID 0000.0001) //       SOUTH: Tile = 000010, Process = 000001, Comm = put
(PID.TID 0000.0001) //                bi = 000010, bj = 000001
(PID.TID 0000.0001) //       NORTH: Tile = 000010, Process = 000001, Comm = put
(PID.TID 0000.0001) //                bi = 000010, bj = 000001
(PID.TID 0000.0001) // Tile number: 000011 (process no. = 000001)
(PID.TID 0000.0001) //        WEST: Tile = 000010, Process = 000001, Comm = put
(PID.TID 0000.0001) //                bi = 000010, bj = 000001
(PID.TID 0000.0001) //        EAST: Tile = 000012, Process = 000001, Comm = put
(PID.TID 0000.0001) //                bi = 000012, bj = 000001
(PID.TID 0000.0001) //       SOUTH: Tile = 000011, Process = 000001, Comm = put
(PID.TID 0000.0001) //                bi = 000011, bj = 000001
(PID.TID 0000.0001) //       NORTH: Tile = 000011, Process = 000001, Comm = put
(PID.TID 0000.0001) //                bi = 000011, bj = 000001
(PID.TID 0000.0001) // Tile number: 000012 (process no. = 000001)
(PID.TID 0000.0001) //        WEST: Tile = 000011, Process = 000001, Comm = put
(PID.TID 0000.0001) //                bi = 000011, bj = 000001
(PID.TID 0000.0001) //        EAST: Tile = 000001, Process = 000001, Comm = put
(PID.TID 0000.0001) //                bi = 000001, bj = 000001
(PID.TID 0000.0001) //       SOUTH: Tile = 000012, Process = 000001, Comm = put
(PID.TID 0000.0001) //                bi = 000012, bj = 000001
(PID.TID 0000.0001) //       NORTH: Tile = 000012, Process = 000001, Comm = put
(PID.TID 0000.0001) //                bi = 000012, bj = 000001
(PID.TID 0000.0001) 
(PID.TID 0000.0001) ===== W2 TILE TOPLOGY =====
(PID.TID 0000.0001)  TILE:    1
(PID.TID 0000.0001)       NEIGHBOUR    1 = TILE    2 Comm = PUT ( PROC =    1)
(PID.TID 0000.0001)       NEIGHBOUR    2 = TILE   12 Comm = PUT ( PROC =    1)
(PID.TID 0000.0001)       NEIGHBOUR    3 = TILE    3 Comm = PUT ( PROC =    1)
(PID.TID 0000.0001)       NEIGHBOUR    4 = TILE   10 Comm = PUT ( PROC =    1)
(PID.TID 0000.0001)  TILE:    2
(PID.TID 0000.0001)       NEIGHBOUR    1 = TILE    5 Comm = PUT ( PROC =    1)
(PID.TID 0000.0001)       NEIGHBOUR    2 = TILE    6 Comm = PUT ( PROC =    1)
(PID.TID 0000.0001)       NEIGHBOUR    3 = TILE    1 Comm = PUT ( PROC =    1)
(PID.TID 0000.0001)       NEIGHBOUR    4 = TILE    4 Comm = PUT ( PROC =    1)
(PID.TID 0000.0001)       NEIGHBOUR    5 = TILE   10 Comm = PUT ( PROC =    1)
(PID.TID 0000.0001)  TILE:    3
(PID.TID 0000.0001)       NEIGHBOUR    1 = TILE    4 Comm = PUT ( PROC =    1)
(PID.TID 0000.0001)       NEIGHBOUR    2 = TILE   11 Comm = PUT ( PROC =    1)
(PID.TID 0000.0001)       NEIGHBOUR    3 = TILE   12 Comm = PUT ( PROC =    1)
(PID.TID 0000.0001)       NEIGHBOUR    4 = TILE    7 Comm = PUT ( PROC =    1)
(PID.TID 0000.0001)       NEIGHBOUR    5 = TILE    1 Comm = PUT ( PROC =    1)
(PID.TID 0000.0001)  TILE:    4
(PID.TID 0000.0001)       NEIGHBOUR    1 = TILE    5 Comm = PUT ( PROC =    1)
(PID.TID 0000.0001)       NEIGHBOUR    2 = TILE    3 Comm = PUT ( PROC =    1)
(PID.TID 0000.0001)       NEIGHBOUR    3 = TILE    7 Comm = PUT ( PROC =    1)
(PID.TID 0000.0001)       NEIGHBOUR    4 = TILE    2 Comm = PUT ( PROC =    1)
(PID.TID 0000.0001)  TILE:    5
(PID.TID 0000.0001)       NEIGHBOUR    1 = TILE    6 Comm = PUT ( PROC =    1)
(PID.TID 0000.0001)       NEIGHBOUR    2 = TILE    4 Comm = PUT ( PROC =    1)
(PID.TID 0000.0001)       NEIGHBOUR    3 = TILE    7 Comm = PUT ( PROC =    1)
(PID.TID 0000.0001)       NEIGHBOUR    4 = TILE    2 Comm = PUT ( PROC =    1)
(PID.TID 0000.0001)  TILE:    6
(PID.TID 0000.0001)       NEIGHBOUR    1 = TILE    9 Comm = PUT ( PROC =    1)
(PID.TID 0000.0001)       NEIGHBOUR    2 = TILE   10 Comm = PUT ( PROC =    1)
(PID.TID 0000.0001)       NEIGHBOUR    3 = TILE    5 Comm = PUT ( PROC =    1)
(PID.TID 0000.0001)       NEIGHBOUR    4 = TILE    8 Comm = PUT ( PROC =    1)
(PID.TID 0000.0001)       NEIGHBOUR    5 = TILE    2 Comm = PUT ( PROC =    1)
(PID.TID 0000.0001)  TILE:    7
(PID.TID 0000.0001)       NEIGHBOUR    1 = TILE    8 Comm = PUT ( PROC =    1)
(PID.TID 0000.0001)       NEIGHBOUR    2 = TILE    3 Comm = PUT ( PROC =    1)
(PID.TID 0000.0001)       NEIGHBOUR    3 = TILE    4 Comm = PUT ( PROC =    1)
(PID.TID 0000.0001)       NEIGHBOUR    4 = TILE   11 Comm = PUT ( PROC =    1)
(PID.TID 0000.0001)       NEIGHBOUR    5 = TILE    5 Comm = PUT ( PROC =    1)
(PID.TID 0000.0001)  TILE:    8
(PID.TID 0000.0001)       NEIGHBOUR    1 = TILE    9 Comm = PUT ( PROC =    1)
(PID.TID 0000.0001)       NEIGHBOUR    2 = TILE    7 Comm = PUT ( PROC =    1)
(PID.TID 0000.0001)       NEIGHBOUR    3 = TILE   11 Comm = PUT ( PROC =    1)
(PID.TID 0000.0001)       NEIGHBOUR    4 = TILE    6 Comm = PUT ( PROC =    1)
(PID.TID 0000.0001)  TILE:    9
(PID.TID 0000.0001)       NEIGHBOUR    1 = TILE   10 Comm = PUT ( PROC =    1)
(PID.TID 0000.0001)       NEIGHBOUR    2 = TILE    8 Comm = PUT ( PROC =    1)
(PID.TID 0000.0001)       NEIGHBOUR    3 = TILE   11 Comm = PUT ( PROC =    1)
(PID.TID 0000.0001)       NEIGHBOUR    4 = TILE    6 Comm = PUT ( PROC =    1)
(PID.TID 0000.0001)  TILE:   10
(PID.TID 0000.0001)       NEIGHBOUR    1 = TILE    1 Comm = PUT ( PROC =    1)
(PID.TID 0000.0001)       NEIGHBOUR    2 = TILE    2 Comm = PUT ( PROC =    1)
(PID.TID 0000.0001)       NEIGHBOUR    3 = TILE    9 Comm = PUT ( PROC =    1)
(PID.TID 0000.0001)       NEIGHBOUR    4 = TILE   12 Comm = PUT ( PROC =    1)
(PID.TID 0000.0001)       NEIGHBOUR    5 = TILE    6 Comm = PUT ( PROC =    1)
(PID.TID 0000.0001)  TILE:   11
(PID.TID 0000.0001)       NEIGHBOUR    1 = TILE   12 Comm = PUT ( PROC =    1)
(PID.TID 0000.0001)       NEIGHBOUR    2 = TILE    7 Comm = PUT ( PROC =    1)
(PID.TID 0000.0001)       NEIGHBOUR    3 = TILE    8 Comm = PUT ( PROC =    1)
(PID.TID 0000.0001)       NEIGHBOUR    4 = TILE    3 Comm = PUT ( PROC =    1)
(PID.TID 0000.0001)       NEIGHBOUR    5 = TILE    9 Comm = PUT ( PROC =    1)
(PID.TID 0000.0001)  TILE:   12
(PID.TID 0000.0001)       NEIGHBOUR    1 = TILE    1 Comm = PUT ( PROC =    1)
(PID.TID 0000.0001)       NEIGHBOUR    2 = TILE   11 Comm = PUT ( PROC =    1)
(PID.TID 0000.0001)       NEIGHBOUR    3 = TILE    3 Comm = PUT ( PROC =    1)
(PID.TID 0000.0001)       NEIGHBOUR    4 = TILE   10 Comm = PUT ( PROC =    1)
(PID.TID 0000.0001) Tile    1(proc =   1) sends points i=  -1:  34, j=  -1:   0
(PID.TID 0000.0001)                          to points i=  -1:  34, j=  -1:   0 in tile    2(proc =   1)
(PID.TID 0000.0001) Tile    1(proc =   1) sends points i=  -1:  34, j= -15: -14
(PID.TID 0000.0001)                          to points i=  -1:  34, j=  17:  18 in tile   12(proc =   1)
(PID.TID 0000.0001) Tile    1(proc =   1) sends points i=  31:  32, j=  -1:  18
(PID.TID 0000.0001)                          to points i=  -1:   0, j=  -1:  18 in tile    3(proc =   1)
(PID.TID 0000.0001) Tile    1(proc =   1) sends points i= -15: -14, j=  18:  -1
(PID.TID 0000.0001)                          to points i=  15:  34, j=  17:  18 in tile   10(proc =   1)
(PID.TID 0000.0001) Tile    2(proc =   1) sends points i=  34:  15, j=  31:  32
(PID.TID 0000.0001)                          to points i=  -1:   0, j=  -1:  18 in tile    5(proc =   1)
(PID.TID 0000.0001) Tile    2(proc =   1) sends points i=  34:  15, j=  31:  32
(PID.TID 0000.0001)                          to points i=  -1:   0, j=  -1:  18 in tile    6(proc =   1)
(PID.TID 0000.0001) Tile    2(proc =   1) sends points i=   0:  33, j=  17:  18
(PID.TID 0000.0001)                          to points i=   0:  33, j=  17:  18 in tile    1(proc =   1)
(PID.TID 0000.0001) Tile    2(proc =   1) sends points i=  31:  32, j=  -1:  18
(PID.TID 0000.0001)                          to points i=  -1:   0, j=  -1:  18 in tile    4(proc =   1)
(PID.TID 0000.0001) Tile    2(proc =   1) sends points i= -15: -14, j=  34:  15
(PID.TID 0000.0001)                          to points i=  -1:  18, j=  17:  18 in tile   10(proc =   1)
(PID.TID 0000.0001) Tile    3(proc =   1) sends points i=  -1:  34, j=  -1:   0
(PID.TID 0000.0001)                          to points i=  -1:  34, j=  -1:   0 in tile    4(proc =   1)
(PID.TID 0000.0001) Tile    3(proc =   1) sends points i=  34:  15, j=   1:   2
(PID.TID 0000.0001)                          to points i=  33:  34, j=  -1:  18 in tile   11(proc =   1)
(PID.TID 0000.0001) Tile    3(proc =   1) sends points i=  34:  15, j=   1:   2
(PID.TID 0000.0001)                          to points i=  33:  34, j=  -1:  18 in tile   12(proc =   1)
(PID.TID 0000.0001) Tile    3(proc =   1) sends points i=  31:  32, j=  18:  -1
(PID.TID 0000.0001)                          to points i=  15:  34, j=  -1:   0 in tile    7(proc =   1)
(PID.TID 0000.0001) Tile    3(proc =   1) sends points i=   1:   2, j=  -1:  18
(PID.TID 0000.0001)                          to points i=  33:  34, j=  -1:  18 in tile    1(proc =   1)
(PID.TID 0000.0001) Tile    4(proc =   1) sends points i=  -1:  34, j=  31:  32
(PID.TID 0000.0001)                          to points i=  -1:  34, j=  -1:   0 in tile    5(proc =   1)
(PID.TID 0000.0001) Tile    4(proc =   1) sends points i=   0:  33, j=  17:  18
(PID.TID 0000.0001)                          to points i=   0:  33, j=  17:  18 in tile    3(proc =   1)
(PID.TID 0000.0001) Tile    4(proc =   1) sends points i=  31:  32, j=  34:  15
(PID.TID 0000.0001)                          to points i=  -1:  18, j=  -1:   0 in tile    7(proc =   1)
(PID.TID 0000.0001) Tile    4(proc =   1) sends points i=   1:   2, j=  -1:  18
(PID.TID 0000.0001)                          to points i=  33:  34, j=  -1:  18 in tile    2(proc =   1)
(PID.TID 0000.0001) Tile    5(proc =   1) sends points i=  -1:  34, j=  -1:   0
(PID.TID 0000.0001)                          to points i=  -1:  34, j=  -1:   0 in tile    6(proc =   1)
(PID.TID 0000.0001) Tile    5(proc =   1) sends points i=  -1:  34, j= -15: -14
(PID.TID 0000.0001)                          to points i=  -1:  34, j=  17:  18 in tile    4(proc =   1)
(PID.TID 0000.0001) Tile    5(proc =   1) sends points i=  31:  32, j=  -1:  18
(PID.TID 0000.0001)                          to points i=  -1:   0, j=  -1:  18 in tile    7(proc =   1)
(PID.TID 0000.0001) Tile    5(proc =   1) sends points i= -15: -14, j=  18:  -1
(PID.TID 0000.0001)                          to points i=  15:  34, j=  17:  18 in tile    2(proc =   1)
(PID.TID 0000.0001) Tile    6(proc =   1) sends points i=  34:  15, j=  31:  32
(PID.TID 0000.0001)                          to points i=  -1:   0, j=  -1:  18 in tile    9(proc =   1)
(PID.TID 0000.0001) Tile    6(proc =   1) sends points i=  34:  15, j=  31:  32
(PID.TID 0000.0001)                          to points i=  -1:   0, j=  -1:  18 in tile   10(proc =   1)
(PID.TID 0000.0001) Tile    6(proc =   1) sends points i=   0:  33, j=  17:  18
(PID.TID 0000.0001)                          to points i=   0:  33, j=  17:  18 in tile    5(proc =   1)
(PID.TID 0000.0001) Tile    6(proc =   1) sends points i=  31:  32, j=  -1:  18
(PID.TID 0000.0001)                          to points i=  -1:   0, j=  -1:  18 in tile    8(proc =   1)
(PID.TID 0000.0001) Tile    6(proc =   1) sends points i= -15: -14, j=  34:  15
(PID.TID 0000.0001)                          to points i=  -1:  18, j=  17:  18 in tile    2(proc =   1)
(PID.TID 0000.0001) Tile    7(proc =   1) sends points i=  -1:  34, j=  -1:   0
(PID.TID 0000.0001)                          to points i=  -1:  34, j=  -1:   0 in tile    8(proc =   1)
(PID.TID 0000.0001) Tile    7(proc =   1) sends points i=  34:  15, j=   1:   2
(PID.TID 0000.0001)                          to points i=  33:  34, j=  -1:  18 in tile    3(proc =   1)
(PID.TID 0000.0001) Tile    7(proc =   1) sends points i=  34:  15, j=   1:   2
(PID.TID 0000.0001)                          to points i=  33:  34, j=  -1:  18 in tile    4(proc =   1)
(PID.TID 0000.0001) Tile    7(proc =   1) sends points i=  31:  32, j=  18:  -1
(PID.TID 0000.0001)                          to points i=  15:  34, j=  -1:   0 in tile   11(proc =   1)
(PID.TID 0000.0001) Tile    7(proc =   1) sends points i=   1:   2, j=  -1:  18
(PID.TID 0000.0001)                          to points i=  33:  34, j=  -1:  18 in tile    5(proc =   1)
(PID.TID 0000.0001) Tile    8(proc =   1) sends points i=  -1:  34, j=  31:  32
(PID.TID 0000.0001)                          to points i=  -1:  34, j=  -1:   0 in tile    9(proc =   1)
(PID.TID 0000.0001) Tile    8(proc =   1) sends points i=   0:  33, j=  17:  18
(PID.TID 0000.0001)                          to points i=   0:  33, j=  17:  18 in tile    7(proc =   1)
(PID.TID 0000.0001) Tile    8(proc =   1) sends points i=  31:  32, j=  34:  15
(PID.TID 0000.0001)                          to points i=  -1:  18, j=  -1:   0 in tile   11(proc =   1)
(PID.TID 0000.0001) Tile    8(proc =   1) sends points i=   1:   2, j=  -1:  18
(PID.TID 0000.0001)                          to points i=  33:  34, j=  -1:  18 in tile    6(proc =   1)
(PID.TID 0000.0001) Tile    9(proc =   1) sends points i=  -1:  34, j=  -1:   0
(PID.TID 0000.0001)                          to points i=  -1:  34, j=  -1:   0 in tile   10(proc =   1)
(PID.TID 0000.0001) Tile    9(proc =   1) sends points i=  -1:  34, j= -15: -14
(PID.TID 0000.0001)                          to points i=  -1:  34, j=  17:  18 in tile    8(proc =   1)
(PID.TID 0000.0001) Tile    9(proc =   1) sends points i=  31:  32, j=  -1:  18
(PID.TID 0000.0001)                          to points i=  -1:   0, j=  -1:  18 in tile   11(proc =   1)
(PID.TID 0000.0001) Tile    9(proc =   1) sends points i= -15: -14, j=  18:  -1
(PID.TID 0000.0001)                          to points i=  15:  34, j=  17:  18 in tile    6(proc =   1)
(PID.TID 0000.0001) Tile   10(proc =   1) sends points i=  34:  15, j=  31:  32
(PID.TID 0000.0001)                          to points i=  -1:   0, j=  -1:  18 in tile    1(proc =   1)
(PID.TID 0000.0001) Tile   10(proc =   1) sends points i=  34:  15, j=  31:  32
(PID.TID 0000.0001)                          to points i=  -1:   0, j=  -1:  18 in tile    2(proc =   1)
(PID.TID 0000.0001) Tile   10(proc =   1) sends points i=   0:  33, j=  17:  18
(PID.TID 0000.0001)                          to points i=   0:  33, j=  17:  18 in tile    9(proc =   1)
(PID.TID 0000.0001) Tile   10(proc =   1) sends points i=  31:  32, j=  -1:  18
(PID.TID 0000.0001)                          to points i=  -1:   0, j=  -1:  18 in tile   12(proc =   1)
(PID.TID 0000.0001) Tile   10(proc =   1) sends points i= -15: -14, j=  34:  15
(PID.TID 0000.0001)                          to points i=  -1:  18, j=  17:  18 in tile    6(proc =   1)
(PID.TID 0000.0001) Tile   11(proc =   1) sends points i=  -1:  34, j=  -1:   0
(PID.TID 0000.0001)                          to points i=  -1:  34, j=  -1:   0 in tile   12(proc =   1)
(PID.TID 0000.0001) Tile   11(proc =   1) sends points i=  34:  15, j=   1:   2
(PID.TID 0000.0001)                          to points i=  33:  34, j=  -1:  18 in tile    7(proc =   1)
(PID.TID 0000.0001) Tile   11(proc =   1) sends points i=  34:  15, j=   1:   2
(PID.TID 0000.0001)                          to points i=  33:  34, j=  -1:  18 in tile    8(proc =   1)
(PID.TID 0000.0001) Tile   11(proc =   1) sends points i=  31:  32, j=  18:  -1
(PID.TID 0000.0001)                          to points i=  15:  34, j=  -1:   0 in tile    3(proc =   1)
(PID.TID 0000.0001) Tile   11(proc =   1) sends points i=   1:   2, j=  -1:  18
(PID.TID 0000.0001)                          to points i=  33:  34, j=  -1:  18 in tile    9(proc =   1)
(PID.TID 0000.0001) Tile   12(proc =   1) sends points i=  -1:  34, j=  31:  32
(PID.TID 0000.0001)                          to points i=  -1:  34, j=  -1:   0 in tile    1(proc =   1)
(PID.TID 0000.0001) Tile   12(proc =   1) sends points i=   0:  33, j=  17:  18
(PID.TID 0000.0001)                          to points i=   0:  33, j=  17:  18 in tile   11(proc =   1)
(PID.TID 0000.0001) Tile   12(proc =   1) sends points i=  31:  32, j=  34:  15
(PID.TID 0000.0001)                          to points i=  -1:  18, j=  -1:   0 in tile    3(proc =   1)
(PID.TID 0000.0001) Tile   12(proc =   1) sends points i=   1:   2, j=  -1:  18
(PID.TID 0000.0001)                          to points i=  33:  34, j=  -1:  18 in tile   10(proc =   1)
(PID.TID 0000.0001) Tile    1(proc =   1)recv to points i=   0:  33, j=  17:  18from tile   2(proc =   1)
(PID.TID 0000.0001) Tile    1(proc =   1)recv to points i=  -1:  34, j=  -1:   0from tile  12(proc =   1)
(PID.TID 0000.0001) Tile    1(proc =   1)recv to points i=  33:  34, j=  -1:  18from tile   3(proc =   1)
(PID.TID 0000.0001) Tile    1(proc =   1)recv to points i=  -1:   0, j=  -1:  18from tile  10(proc =   1)
(PID.TID 0000.0001) Tile    2(proc =   1)recv to points i=  15:  34, j=  17:  18from tile   5(proc =   1)
(PID.TID 0000.0001) Tile    2(proc =   1)recv to points i=  -1:  18, j=  17:  18from tile   6(proc =   1)
(PID.TID 0000.0001) Tile    2(proc =   1)recv to points i=  -1:  34, j=  -1:   0from tile   1(proc =   1)
(PID.TID 0000.0001) Tile    2(proc =   1)recv to points i=  33:  34, j=  -1:  18from tile   4(proc =   1)
(PID.TID 0000.0001) Tile    2(proc =   1)recv to points i=  -1:   0, j=  -1:  18from tile  10(proc =   1)
(PID.TID 0000.0001) Tile    3(proc =   1)recv to points i=   0:  33, j=  17:  18from tile   4(proc =   1)
(PID.TID 0000.0001) Tile    3(proc =   1)recv to points i=  15:  34, j=  -1:   0from tile  11(proc =   1)
(PID.TID 0000.0001) Tile    3(proc =   1)recv to points i=  -1:  18, j=  -1:   0from tile  12(proc =   1)
(PID.TID 0000.0001) Tile    3(proc =   1)recv to points i=  33:  34, j=  -1:  18from tile   7(proc =   1)
(PID.TID 0000.0001) Tile    3(proc =   1)recv to points i=  -1:   0, j=  -1:  18from tile   1(proc =   1)
(PID.TID 0000.0001) Tile    4(proc =   1)recv to points i=  -1:  34, j=  17:  18from tile   5(proc =   1)
(PID.TID 0000.0001) Tile    4(proc =   1)recv to points i=  -1:  34, j=  -1:   0from tile   3(proc =   1)
(PID.TID 0000.0001) Tile    4(proc =   1)recv to points i=  33:  34, j=  -1:  18from tile   7(proc =   1)
(PID.TID 0000.0001) Tile    4(proc =   1)recv to points i=  -1:   0, j=  -1:  18from tile   2(proc =   1)
(PID.TID 0000.0001) Tile    5(proc =   1)recv to points i=   0:  33, j=  17:  18from tile   6(proc =   1)
(PID.TID 0000.0001) Tile    5(proc =   1)recv to points i=  -1:  34, j=  -1:   0from tile   4(proc =   1)
(PID.TID 0000.0001) Tile    5(proc =   1)recv to points i=  33:  34, j=  -1:  18from tile   7(proc =   1)
(PID.TID 0000.0001) Tile    5(proc =   1)recv to points i=  -1:   0, j=  -1:  18from tile   2(proc =   1)
(PID.TID 0000.0001) Tile    6(proc =   1)recv to points i=  15:  34, j=  17:  18from tile   9(proc =   1)
(PID.TID 0000.0001) Tile    6(proc =   1)recv to points i=  -1:  18, j=  17:  18from tile  10(proc =   1)
(PID.TID 0000.0001) Tile    6(proc =   1)recv to points i=  -1:  34, j=  -1:   0from tile   5(proc =   1)
(PID.TID 0000.0001) Tile    6(proc =   1)recv to points i=  33:  34, j=  -1:  18from tile   8(proc =   1)
(PID.TID 0000.0001) Tile    6(proc =   1)recv to points i=  -1:   0, j=  -1:  18from tile   2(proc =   1)
(PID.TID 0000.0001) Tile    7(proc =   1)recv to points i=   0:  33, j=  17:  18from tile   8(proc =   1)
(PID.TID 0000.0001) Tile    7(proc =   1)recv to points i=  15:  34, j=  -1:   0from tile   3(proc =   1)
(PID.TID 0000.0001) Tile    7(proc =   1)recv to points i=  -1:  18, j=  -1:   0from tile   4(proc =   1)
(PID.TID 0000.0001) Tile    7(proc =   1)recv to points i=  33:  34, j=  -1:  18from tile  11(proc =   1)
(PID.TID 0000.0001) Tile    7(proc =   1)recv to points i=  -1:   0, j=  -1:  18from tile   5(proc =   1)
(PID.TID 0000.0001) Tile    8(proc =   1)recv to points i=  -1:  34, j=  17:  18from tile   9(proc =   1)
(PID.TID 0000.0001) Tile    8(proc =   1)recv to points i=  -1:  34, j=  -1:   0from tile   7(proc =   1)
(PID.TID 0000.0001) Tile    8(proc =   1)recv to points i=  33:  34, j=  -1:  18from tile  11(proc =   1)
(PID.TID 0000.0001) Tile    8(proc =   1)recv to points i=  -1:   0, j=  -1:  18from tile   6(proc =   1)
(PID.TID 0000.0001) Tile    9(proc =   1)recv to points i=   0:  33, j=  17:  18from tile  10(proc =   1)
(PID.TID 0000.0001) Tile    9(proc =   1)recv to points i=  -1:  34, j=  -1:   0from tile   8(proc =   1)
(PID.TID 0000.0001) Tile    9(proc =   1)recv to points i=  33:  34, j=  -1:  18from tile  11(proc =   1)
(PID.TID 0000.0001) Tile    9(proc =   1)recv to points i=  -1:   0, j=  -1:  18from tile   6(proc =   1)
(PID.TID 0000.0001) Tile   10(proc =   1)recv to points i=  15:  34, j=  17:  18from tile   1(proc =   1)
(PID.TID 0000.0001) Tile   10(proc =   1)recv to points i=  -1:  18, j=  17:  18from tile   2(proc =   1)
(PID.TID 0000.0001) Tile   10(proc =   1)recv to points i=  -1:  34, j=  -1:   0from tile   9(proc =   1)
(PID.TID 0000.0001) Tile   10(proc =   1)recv to points i=  33:  34, j=  -1:  18from tile  12(proc =   1)
(PID.TID 0000.0001) Tile   10(proc =   1)recv to points i=  -1:   0, j=  -1:  18from tile   6(proc =   1)
(PID.TID 0000.0001) Tile   11(proc =   1)recv to points i=   0:  33, j=  17:  18from tile  12(proc =   1)
(PID.TID 0000.0001) Tile   11(proc =   1)recv to points i=  15:  34, j=  -1:   0from tile   7(proc =   1)
(PID.TID 0000.0001) Tile   11(proc =   1)recv to points i=  -1:  18, j=  -1:   0from tile   8(proc =   1)
(PID.TID 0000.0001) Tile   11(proc =   1)recv to points i=  33:  34, j=  -1:  18from tile   3(proc =   1)
(PID.TID 0000.0001) Tile   11(proc =   1)recv to points i=  -1:   0, j=  -1:  18from tile   9(proc =   1)
(PID.TID 0000.0001) Tile   12(proc =   1)recv to points i=  -1:  34, j=  17:  18from tile   1(proc =   1)
(PID.TID 0000.0001) Tile   12(proc =   1)recv to points i=  -1:  34, j=  -1:   0from tile  11(proc =   1)
(PID.TID 0000.0001) Tile   12(proc =   1)recv to points i=  33:  34, j=  -1:  18from tile   3(proc =   1)
(PID.TID 0000.0001) Tile   12(proc =   1)recv to points i=  -1:   0, j=  -1:  18from tile  10(proc =   1)
(PID.TID 0000.0001) // =======================================================
(PID.TID 0000.0001) // Model parameter file "data"
(PID.TID 0000.0001) // =======================================================
(PID.TID 0000.0001) ># ====================
(PID.TID 0000.0001) ># | Model parameters |
(PID.TID 0000.0001) ># ====================
(PID.TID 0000.0001) >#
(PID.TID 0000.0001) ># Continuous equation parameters
(PID.TID 0000.0001) > &PARM01
(PID.TID 0000.0001) > tRef=15*20.,
(PID.TID 0000.0001) > sRef=15*35.,
(PID.TID 0000.0001) > viscAh =3.E5,
(PID.TID 0000.0001) > viscAr =1.E-3,
(PID.TID 0000.0001) > diffKhT=0.,
(PID.TID 0000.0001) > diffK4T=0.,
(PID.TID 0000.0001) > diffKrT=3.E-5,
(PID.TID 0000.0001) > diffKhS=0.,
(PID.TID 0000.0001) > diffK4S=0.,
(PID.TID 0000.0001) > diffKrS=3.E-5,
(PID.TID 0000.0001) > ivdc_kappa=10.,
(PID.TID 0000.0001) > implicitDiffusion=.TRUE.,
(PID.TID 0000.0001) > gravity=9.81,
(PID.TID 0000.0001) > rhonil=1035.,
(PID.TID 0000.0001) > eosType='JMD95Z',
(PID.TID 0000.0001) >#staggerTimeStep=.TRUE.,
(PID.TID 0000.0001) > vectorInvariantMomentum=.TRUE.,
(PID.TID 0000.0001) > implicitFreeSurface=.TRUE.,
(PID.TID 0000.0001) > exactConserv=.TRUE.,
(PID.TID 0000.0001) > select_rStar=2,
(PID.TID 0000.0001) > nonlinFreeSurf=4,
(PID.TID 0000.0001) > hFacInf=0.2,
(PID.TID 0000.0001) > hFacSup=2.0,
(PID.TID 0000.0001) > useRealFreshWaterFlux=.TRUE.,
(PID.TID 0000.0001) > allowFreezing=.TRUE.,
(PID.TID 0000.0001) > hFacMin=.1,
(PID.TID 0000.0001) > hFacMinDr=20.,
(PID.TID 0000.0001) > readBinaryPrec=64,
(PID.TID 0000.0001) > &
(PID.TID 0000.0001) >
(PID.TID 0000.0001) ># Elliptic solver parameters
(PID.TID 0000.0001) > &PARM02
(PID.TID 0000.0001) > cg2dMaxIters=200,
(PID.TID 0000.0001) >#cg2dTargetResidual=1.E-9,
(PID.TID 0000.0001) > cg2dTargetResWunit=1.E-14,
(PID.TID 0000.0001) > &
(PID.TID 0000.0001) >
(PID.TID 0000.0001) ># Time stepping parameters
(PID.TID 0000.0001) > &PARM03
(PID.TID 0000.0001) > nIter0=72000,
(PID.TID 0000.0001) > nTimeSteps=20,
(PID.TID 0000.0001) > deltaTmom   =1200.,
(PID.TID 0000.0001) > deltaTtracer=86400.,
(PID.TID 0000.0001) > deltaTfreesurf=86400.,
(PID.TID 0000.0001) > deltaTClock =86400.,
(PID.TID 0000.0001) > abEps = 0.1,
(PID.TID 0000.0001) > forcing_In_AB=.FALSE.,
(PID.TID 0000.0001) > pChkptFreq  =1728000.,
(PID.TID 0000.0001) >#chkptFreq   =311040000.,
(PID.TID 0000.0001) > taveFreq    =1244160000.,
(PID.TID 0000.0001) > dumpFreq    =622080000.,
(PID.TID 0000.0001) > monitorFreq =31104000.,
(PID.TID 0000.0001) > periodicExternalForcing=.TRUE.,
(PID.TID 0000.0001) > externForcingPeriod=2592000.,
(PID.TID 0000.0001) > externForcingCycle=31104000.,
(PID.TID 0000.0001) ># 2 months restoring timescale for temperature
(PID.TID 0000.0001) > tauThetaClimRelax = 5184000.,
(PID.TID 0000.0001) ># 2yrs restoring timescale for salinity
(PID.TID 0000.0001) > tauSaltClimRelax = 62208000.,
(PID.TID 0000.0001) > monitorFreq =1.,
(PID.TID 0000.0001) > &
(PID.TID 0000.0001) >
(PID.TID 0000.0001) ># Gridding parameters
(PID.TID 0000.0001) > &PARM04
(PID.TID 0000.0001) > usingCartesianGrid=.FALSE.,
(PID.TID 0000.0001) > usingSphericalPolarGrid=.FALSE.,
(PID.TID 0000.0001) > usingCurvilinearGrid=.TRUE.,
(PID.TID 0000.0001) > delR= 50., 70., 100., 140., 190.,
(PID.TID 0000.0001) >       240., 290., 340., 390., 440.,
(PID.TID 0000.0001) >       490., 540., 590., 640., 690.,
(PID.TID 0000.0001) > &
(PID.TID 0000.0001) >
(PID.TID 0000.0001) ># Input datasets
(PID.TID 0000.0001) > &PARM05
(PID.TID 0000.0001) > bathyFile      ='bathy_Hmin50.bin',
(PID.TID 0000.0001) > hydrogThetaFile='lev_T_cs_15k.bin',
(PID.TID 0000.0001) > hydrogSaltFile ='lev_S_cs_15k.bin',
(PID.TID 0000.0001) > zonalWindFile  ='trenberth_taux.bin',
(PID.TID 0000.0001) > meridWindFile  ='trenberth_tauy.bin',
(PID.TID 0000.0001) > thetaClimFile  ='lev_surfT_cs_12m.bin',
(PID.TID 0000.0001) > saltClimFile   ='lev_surfS_cs_12m.bin',
(PID.TID 0000.0001) > surfQFile      ='shiQnet_cs32.bin',
(PID.TID 0000.0001) > EmPmRFile      ='shiEmPR_cs32.bin',
(PID.TID 0000.0001) > &
(PID.TID 0000.0001) 
(PID.TID 0000.0001) S/R INI_PARMS ; read PARM01 : OK
(PID.TID 0000.0001) S/R INI_PARMS ; read PARM02 : OK
(PID.TID 0000.0001) S/R INI_PARMS ; read PARM03 : OK
(PID.TID 0000.0001) S/R INI_PARMS ; read PARM04 : OK
(PID.TID 0000.0001) S/R INI_PARMS ; read PARM05 : OK
(PID.TID 0000.0001) tile:   1 ; Read from file tile001.mitgrid
(PID.TID 0000.0001)   => XC YC DXF DYF RA XG YG DXV DYU RAZ DXC DYC RAW RAS DXG DYG
(PID.TID 0000.0001) tile:   2 ; Read from file tile001.mitgrid
(PID.TID 0000.0001)   => XC YC DXF DYF RA XG YG DXV DYU RAZ DXC DYC RAW RAS DXG DYG
(PID.TID 0000.0001) tile:   3 ; Read from file tile002.mitgrid
(PID.TID 0000.0001)   => XC YC DXF DYF RA XG YG DXV DYU RAZ DXC DYC RAW RAS DXG DYG
(PID.TID 0000.0001) tile:   4 ; Read from file tile002.mitgrid
(PID.TID 0000.0001)   => XC YC DXF DYF RA XG YG DXV DYU RAZ DXC DYC RAW RAS DXG DYG
(PID.TID 0000.0001) tile:   5 ; Read from file tile003.mitgrid
(PID.TID 0000.0001)   => XC YC DXF DYF RA XG YG DXV DYU RAZ DXC DYC RAW RAS DXG DYG
(PID.TID 0000.0001) tile:   6 ; Read from file tile003.mitgrid
(PID.TID 0000.0001)   => XC YC DXF DYF RA XG YG DXV DYU RAZ DXC DYC RAW RAS DXG DYG
(PID.TID 0000.0001) tile:   7 ; Read from file tile004.mitgrid
(PID.TID 0000.0001)   => XC YC DXF DYF RA XG YG DXV DYU RAZ DXC DYC RAW RAS DXG DYG
(PID.TID 0000.0001) tile:   8 ; Read from file tile004.mitgrid
(PID.TID 0000.0001)   => XC YC DXF DYF RA XG YG DXV DYU RAZ DXC DYC RAW RAS DXG DYG
(PID.TID 0000.0001) tile:   9 ; Read from file tile005.mitgrid
(PID.TID 0000.0001)   => XC YC DXF DYF RA XG YG DXV DYU RAZ DXC DYC RAW RAS DXG DYG
(PID.TID 0000.0001) tile:  10 ; Read from file tile005.mitgrid
(PID.TID 0000.0001)   => XC YC DXF DYF RA XG YG DXV DYU RAZ DXC DYC RAW RAS DXG DYG
(PID.TID 0000.0001) tile:  11 ; Read from file tile006.mitgrid
(PID.TID 0000.0001)   => XC YC DXF DYF RA XG YG DXV DYU RAZ DXC DYC RAW RAS DXG DYG
(PID.TID 0000.0001) tile:  12 ; Read from file tile006.mitgrid
(PID.TID 0000.0001)   => XC YC DXF DYF RA XG YG DXV DYU RAZ DXC DYC RAW RAS DXG DYG
(PID.TID 0000.0001) %MON XC_max                       =   1.7854351589505E+02
(PID.TID 0000.0001) %MON XC_min                       =  -1.7854351589505E+02
(PID.TID 0000.0001) %MON XC_mean                      =   4.2789845740761E-16
(PID.TID 0000.0001) %MON XC_sd                        =   1.0355545336287E+02
(PID.TID 0000.0001) %MON XG_max                       =   1.8000000000000E+02
(PID.TID 0000.0001) %MON XG_min                       =  -1.7708797161002E+02
(PID.TID 0000.0001) %MON XG_mean                      =   1.8796250616675E+00
(PID.TID 0000.0001) %MON XG_sd                        =   1.0410625309932E+02
(PID.TID 0000.0001) %MON DXC_max                      =   3.2375185836900E+05
(PID.TID 0000.0001) %MON DXC_min                      =   1.1142031410131E+05
(PID.TID 0000.0001) %MON DXC_mean                     =   2.8605689051214E+05
(PID.TID 0000.0001) %MON DXC_sd                       =   3.4042087138252E+04
(PID.TID 0000.0001) %MON DXF_max                      =   3.2369947500827E+05
(PID.TID 0000.0001) %MON DXF_min                      =   1.2020820513318E+05
(PID.TID 0000.0001) %MON DXF_mean                     =   2.8605437324820E+05
(PID.TID 0000.0001) %MON DXF_sd                       =   3.4050524252539E+04
(PID.TID 0000.0001) %MON DXG_max                      =   3.2375195872773E+05
(PID.TID 0000.0001) %MON DXG_min                      =   1.0098378008791E+05
(PID.TID 0000.0001) %MON DXG_mean                     =   2.8603818508931E+05
(PID.TID 0000.0001) %MON DXG_sd                       =   3.4140406908005E+04
(PID.TID 0000.0001) %MON DXV_max                      =   3.2380418162750E+05
(PID.TID 0000.0001) %MON DXV_min                      =   8.0152299824136E+04
(PID.TID 0000.0001) %MON DXV_mean                     =   2.8603970633619E+05
(PID.TID 0000.0001) %MON DXV_sd                       =   3.4145142117723E+04
(PID.TID 0000.0001) %MON YC_max                       =   8.7940663871962E+01
(PID.TID 0000.0001) %MON YC_min                       =  -8.7940663871962E+01
(PID.TID 0000.0001) %MON YC_mean                      =   1.2490009027033E-16
(PID.TID 0000.0001) %MON YC_sd                        =   3.8676242969072E+01
(PID.TID 0000.0001) %MON YG_max                       =   9.0000000000000E+01
(PID.TID 0000.0001) %MON YG_min                       =  -9.0000000000000E+01
(PID.TID 0000.0001) %MON YG_mean                      =   1.6676967135859E-15
(PID.TID 0000.0001) %MON YG_sd                        =   3.9086186579984E+01
(PID.TID 0000.0001) %MON DYC_max                      =   3.2375185836900E+05
(PID.TID 0000.0001) %MON DYC_min                      =   1.1142031410131E+05
(PID.TID 0000.0001) %MON DYC_mean                     =   2.8605689051214E+05
(PID.TID 0000.0001) %MON DYC_sd                       =   3.4042087138252E+04
(PID.TID 0000.0001) %MON DYF_max                      =   3.2369947500827E+05
(PID.TID 0000.0001) %MON DYF_min                      =   1.2020820513318E+05
(PID.TID 0000.0001) %MON DYF_mean                     =   2.8605437324820E+05
(PID.TID 0000.0001) %MON DYF_sd                       =   3.4050524252539E+04
(PID.TID 0000.0001) %MON DYG_max                      =   3.2375195872773E+05
(PID.TID 0000.0001) %MON DYG_min                      =   1.0098378008791E+05
(PID.TID 0000.0001) %MON DYG_mean                     =   2.8603818508931E+05
(PID.TID 0000.0001) %MON DYG_sd                       =   3.4140406908005E+04
(PID.TID 0000.0001) %MON DYU_max                      =   3.2380418162750E+05
(PID.TID 0000.0001) %MON DYU_min                      =   8.0152299824136E+04
(PID.TID 0000.0001) %MON DYU_mean                     =   2.8603970633619E+05
(PID.TID 0000.0001) %MON DYU_sd                       =   3.4145142117723E+04
(PID.TID 0000.0001) %MON RA_max                       =   1.0479260248419E+11
(PID.TID 0000.0001) %MON RA_min                       =   1.4019007022556E+10
(PID.TID 0000.0001) %MON RA_mean                      =   8.2992246709265E+10
(PID.TID 0000.0001) %MON RA_sd                        =   1.7509089299457E+10
(PID.TID 0000.0001) %MON RAW_max                      =   1.0480965274559E+11
(PID.TID 0000.0001) %MON RAW_min                      =   1.2166903467143E+10
(PID.TID 0000.0001) %MON RAW_mean                     =   8.2992246709235E+10
(PID.TID 0000.0001) %MON RAW_sd                       =   1.7481917919656E+10
(PID.TID 0000.0001) %MON RAS_max                      =   1.0480965274559E+11
(PID.TID 0000.0001) %MON RAS_min                      =   1.2166903467143E+10
(PID.TID 0000.0001) %MON RAS_mean                     =   8.2992246709235E+10
(PID.TID 0000.0001) %MON RAS_sd                       =   1.7481917919656E+10
(PID.TID 0000.0001) %MON RAZ_max                      =   1.0484349334619E+11
(PID.TID 0000.0001) %MON RAZ_min                      =   8.8317900612505E+09
(PID.TID 0000.0001) %MON RAZ_mean                     =   8.2992246709235E+10
(PID.TID 0000.0001) %MON RAZ_sd                       =   1.7482297311044E+10
(PID.TID 0000.0001)  MDSREADFIELD: opening global file: bathy_Hmin50.bin
(PID.TID 0000.0001) // =======================================================
(PID.TID 0000.0001) // Field Model R_low (ini_masks_etc) at iteration          1
(PID.TID 0000.0001) // CMIN =         -5.200000000000000E+03
(PID.TID 0000.0001) // CMAX =         -5.000000000000000E+01
(PID.TID 0000.0001) // CINT =          1.907407407407407E+02
(PID.TID 0000.0001) // SYMBOLS (CMIN->CMAX): -abcdefghijklmnopqrstuvwxyz+
(PID.TID 0000.0001) //                  0.0: .
(PID.TID 0000.0001) // RANGE I (Lo:Hi:Step):(  -1: 386:   1)
(PID.TID 0000.0001) // RANGE J (Lo:Hi:Step):(  18:  -1:  -1)
(PID.TID 0000.0001) // RANGE K (Lo:Hi:Step):(   1:   1:   1)
(PID.TID 0000.0001) // =======================================================
(PID.TID 0000.0001) K =   1
(PID.TID 0000.0001) //                I=8       I=18      I=28      I=34      I=44      I=54      I=64      I=70      I=80      I=90      I=96      I=106     I=116     I=126     I=132     I=142     I=152     I=162     I=168     I=178     I=188     I=194     I=204     I=214     I=224     I=230     I=240     I=250     I=256     I=266     I=276     I=286     I=292     I=302     I=312     I=322     I=328     I=338     I=348     I=354     I=364     I=374     I=384
(PID.TID 0000.0001) // |--J--|*01234567|901234567|901234567|901234123|567890123|567890123|567890123|563456789|123456789|123456789|123456785|789012345|789012345|789012345|789078901|345678901|345678901|345678901|901234567|901234567|901234567|901234123|567890123|567890123|567890123|563456789|123456789|123456789|123456785|789012345|789012345|789012345|789078901|345678901|345678901|345678901|901234567|901234567|901234567|901234123|567890123|567890123|567890123|56
(PID.TID 0000.0001) //     18 wifedfkhfegbbcivlqfoz..............j..a-abcehjnldcclz+........spps.........jaacfihggokeeffgt..++++..hhlfdedd.............................vkqn+...qcz+.zwxtsttz..ysrkhot++++++zig----..cbba--aabfu+..............hcbaaa..--------b--f---------egqqqaa----frb-..aaccdccbaaabbddddccdffffghfeeeee.........+kkrhw.vqmlnieddcdehgggffgige..efilhfcaaaacgceei.......zomggfca..gigedbaaceiy.............zilrddefikk..ecbbccddefilihecbaacbaajfega-aes..
(PID.TID 0000.0001) //     17 +wfeefikhgcbbccaaacgn.............ic..bbccceiomkfdbbc+.......+s...........icaaccfihfoedddeedy..++...nnqwgfee.............................xsrxz...z++..+zsjjllllljllpjos+++.+zhhi----..db-----adu+...............hcbaa-..-----e-----ea--------foqqoqqo--hlwge..-accddba--bbbddddccdfffhhgfeeddc.........+nk+..xiioonhfefddegihhghigfd..dfgikhfffdfgccffw........zohhgeb..igfdbaaabdgx..............nheddefikl..baaaaaccdfhlhfefdcccaabjefbaaafo..
(PID.TID 0000.0001) //     16 ..wiheddeccdfhfbabdfl............jdbbddefhhkqqlgfaakqz..v.+..+...........jdbaddddgifkccccdccd+.++..++ynvz.tk...........................++..u+...u....++zyslllllkhggkmpy++...ihhi----fdba----adu+................kdcaaa-a-----ea---feb-----a-acnoohfghknvmwnuaa-accdcb---bbbcdddddefffggfeeedcccc........qhu..hhhkojgffgeefghihhiieedbbdcdfgghhiihcbeiw.........+ynjgebaaieedbaaabcdy..............ygddeghiljebaaaa-aacccfikkhecccbbbaaabaadfklnq
(PID.TID 0000.0001) //     15 ....ylea--acfihebcbbes..........sfcbbcffijnpnqneaaat..umrr+s.z..........sfcbbngfffigcaaabdbcac+.+++++zgmpx.............................+++++.ztsm....++..zslwz.yhhhhnz+++...rhgc----feb--dfdfu+................+lkdca--a----ab----ige----acaaalllkddfiy..yswa--abcccb---bbbbddddeffflhfeeeecbbbb........thk.xgghiligfghfefhhhhiiheed-abbacbcdceffbbfw+..........++ujfbaaheedcdbbabdmz.............zfdeghikkifbaaa----aacffiljgfffcca--adfikkiihh
(PID.TID 0000.0001) //     14 ......c---acgkhdcc--di..........ofddadgillkkkifcadcx.ymmqzqikvnnps......ofddchohffikaaaaabaaa-aw+.+ysnggox++...........................+++++wmegrv..........yzzzzrjil+++....qhgd----ifcacdlqx+++...............mligea--------a-----i---cccdeabkklldinqssy..xa---abbbb---abaaddddeedkmeddefdbbbaa.........+y.uhghikihgfghefgihhhgeeee---b--aaaaabaabm..............+viba-eeeeeddbaadhw.............nedeghjjhfiba-------acdefinmlgiieb-chnnnmlmlgf
(PID.TID 0000.0001) //     13 .....+b----cfkhec---afz.........nhfdcfiljigfjd--efdozy...+ximpnnuz......nhfdffholghkaaaaaba-a---flkkuswyy+++............................+++yqddhr...........zzzzz++ry++......yd-----jhcbbchz+......++.........+mmhffc----------------aeecdeidfkkqnqlmqquukqqc----aaba------acdddcbcineddgdbaaa--............iihiijjhfefgefhjihiffgggd--a------aa-bfz...............+qe--fgggffecaabelx...........zjecehijhfeqe---aa---aedeegknmlgiigcdfhpokkimlf
(PID.TID 0000.0001) //     12 .....ec----chjhec---ag..........skiqbgkhfcccea-bdei........t............skiqddeiiiifaaabae--a---dd--iu+++.++............................++zwgfcf++..........+z+++++.+++....++.s-----nhccbbhwwy.....+++........+njfeed--------------a-ceccdejhlllkqlkklssiccdd-----aa-------abddcabcnfddegcaaa---...........wjkkkjjjigeefffgjiiighiiif------------dk+................+ja-hiiihhhdaabdffghtxx......mfccehjiffd+ja------bffdddehfd--bedaacfhpnligii
(PID.TID 0000.0001) //     11 ....pdca--achlheba--ai..........nkn.cghfbaaaa-achmy.....................nkn.fdemijidaaaabi-------a--q+....++.....+++....................++vnbbbcs...........+++++..........+yyza----pkeeecflmqxy....++........+lhfeecc------b-----a--ccccddkhieekkossssfbbbbcc------------aaadcbabcfhddccba-----..........njjijhhihijhgggggjjjjijkkkd-----------irw.................++e-jkkkkjjhcaacddeegpy.....xfdccdhjgfdd++e-----mhmijddda--------ahhfiokhede
(PID.TID 0000.0001) //     10 ....wfdb--achlhea---an.........uos..dhfca-----bfiv......................os..dcemikkfdcaabi-------equ+............++sy...................+tq-fdbb...........................zyvuq----nqiheddefhiksz++++........zkhfdccb------cc----a---dcfhkopqjeissrnpfbbccccb------------aabdcaaaacfddbca------........zslihhigghgijjihhhhkllkkkkkkfa-abb-----vvv...................+wakkkkjkkkedccdeeeeipz..zwhccbcdhgfddc.+wa---mlmkijhc----------cjjffiheb-a
(PID.TID 0000.0001) //      9 ....vgec---bfikca--cjl+.......+nnv.+chfa------ch+..................w....nv.+ccffhkkiddaadha-----as++...............njo+................+x-----bcz++........................zxuuk----qqojfefiiiijmy.++.........zkhfdbaa--------a---a----djmqrrnlllsoiddcccccdaa-------daa---acccaaaacccca--------.......+zjijhfgfggffhjkkkiillljihhghudaabbb----tei...................++qhhghgihighdeeffgghimnnjgecbbcdgfeccb.++qdeqnghiljcaaaaidaa----beedeeca--
(PID.TID 0000.0001) //      8 ...zleca---afjfca--hdfz.......vkky.jeifa--acbcei...................w....ky.jceddefijffdddhb--a-afv.................likn+.....++.....++znpa----bb..ss.........................+yku---nlmnjhinlksssw............qhfeca----u--------------ejnpqqnninnritqdccchk--------addc--aeffaaaaaaccb-a----a--......wihgghgeffffeefhijkjkljiigeeff+udbbaba---ven....................++eeffefffhjhhikkklljklmhffeeeggfdcbaa..++xywnfgllcbbabegkecba----ddddcaac
(PID.TID 0000.0001) //      7 .+zohec--abcfkhecbchbdx.......qiht.ffida-aabchjk...................zz...ht.faaaabdgijgfededcdcb-f+..........z.....nhhijz....tqq.....+ujgzgd---ab...pz.........................+zu---egklkkknols..xuu..........zgfdba----u--------------edefqgqddsz+......+yu--------bcd---affaaadffabbb-----aa-b+....tiggfggfeeeefeeefiiiijkiihheddd.+ufb-----l.gx...........s.........+eddddddddjjllliijhfkmmkkjjhijgdcba--...++zzkfilfccccoz..ulkcd---bccnfddd
(PID.TID 0000.0001) //      6 +yomfddcaabefkifdchaadt......uqdeiscfhfaa---bfgi....................zz..eisc----dfefgifffkklldc--v..........zz..rnjffggm...nlmn+....+sffzya--aab...pp.........................v.x---affdfhimrmp...yuu.++.......zudba----x---------a----fbbpqgzenx+........zd--------adc---dda-adffe-aa--------aalkhhfffffffgfeeeeeeeefhhhhijihhffddc..+ufc-baaqvhh..........dcfeeh......fddcbbbbdhhiihedddb-cfhhhjjjieca----....++zggqvifefhz......zobbaccfwuffe
(PID.TID 0000.0001) //      5 +nhgffkghccfhkhffgdaackz....uoibcimlbcgca----abe.....................ysscimlaaacfbddfjjhijeehf-a-c...........ysstlgeeeeoz..ijklt+....lfjzzf---ad...su.........................qk.yi-aadcehllotq....yy+++zzs.....+zcba---.yi-------gha-fjddqs+xkrz.........q-a-------cdd--aaa----df------------aakdccdeeeeeeedddedddddgghhhhjhhgffcbb...+upjdcy.vohq.......+idcdfeeefwz..fcbbaaaaddfegecca----dfeefhfgdb-----wz....+hhn.vklox.........gdccfjwrigf
(PID.TID 0000.0001) //      4 ujhgfllfhdffhkfffca-aady...llnabdopfbbcgfcaa-aae+.......................dopfcbdgdbcdehlihgfddc--ms..............lcgfdddhq.+hiilnz++.+oquxyz--adg..............................okn.zdaabcfmtooyxz......+yuiiy....++gb----n.zd---eciiiicfkeeqy.ysz..........n---------ddcca-a-----acbaa------bbaaadcbbdeddedcdcccdddcddffggghiggfffdba......ywxy.lulo.lv...kcdgddffefffilyfdbaa---acdcccba--abvfedeffdcca----bfilyx+fffk.+xyyy.........mgeimvskjkl
(PID.TID 0000.0001) //      3 jggfcceeffffjlkjgaa---bfvheeln-aesphfeccdghfeegcbt......................esphfdhgabddeflihhgfecbaaayq+++++.......aafifccgnrzgghjry.+++sr+lq.--edf..............................kqnz.vtkblwnnsp.vv......skhggt...+++t-----nz.vtpkllgdccfkkkkk..++..........+g---------bdaf---------edd-------adlaacaaadcdddcbbbbcdddcccdffffghgffffdca.........vnhzy.tllqiedccdhggfggffiigfdcaa----abcaaaa-acxxmecdjmdbba----rfiiggfcbdgy..yz..........xigqophijkk
(PID.TID 0000.0001) //      2 feecbbccddefilihecbaacbaajfega-aesqhwifedfkhfegbbcivlqfoz..............jesqhffiea-cdeflkkljifeddcba---bry+.....jaacfihggokeeffgt..++++..hhlfdedd.............................vkqn+.s.qcz+.zwxtsttz..ysrkhot++++++zig----n+.sghfcbcbbbdgfdek.++++.........+l---------b--f---------egqqqaa----frb-aaaaccdccbaaabbddddccdffffghfeeeeecb.......+kkrhw.vqmlnieddcdehgggffgigeeecba------baaaa-euwxqdbcdkud-----sygigedbaaceiy.............zilrddefikk
(PID.TID 0000.0001) //      1 bbbaaaaaccdfhlhfefdcccaabjefbaaafonh+wfeefikhgcbbccaaacgn.............icfonhglid--adfgkkkklkhffddca-----s+++..icaaccfihfoedddeedy..++...nnqwgfee.............................xsrxz.t.z++..+zsjjllllljllpjos+++.+zhhi----xz.tedcbbbbaaadddet.++++.........+l------e-----ea--------foqqoqqo--hlwge-a-accddba--bbbddddccdfffhhgfeeddccb.......+nk+..xiioonhfefddegihhghigfddccba-------aaaabgns.qcbcchyzqngll++igfdbaaabdgx..............nheddefikl
(PID.TID 0000.0001) //      0 ..aaaa-aacccfikkhecccbbbaaabaadfkl....wiheddeccdfhfbabdfl............jdb..lilmgebaadfijjiiikjhffdcba-----l...jdbaddddgifkccccdccd+.++..++ynvz.tk...........................++..u+...u....++zyslllllkhggkmpy++...ihhi----...zmdfbd---a-aeef.xx+..........++..-----ea---feb-----a-acnoohfghknvmwnu..-accdcb---bbbcdddddefffggfeeedcc..........qhu..hhhkojgffgeefghihhiieed..cbba----aa--alrwwy.kcbccc+...+++..ieedbaaabcdy..............ygddeghilj
(PID.TID 0000.0001) //     -1 ..aaa----aacffiljgfffcca--adfikkii......ylea--acfihebcbbes..........sfcb..kimiiheccfurkiffhijjigfecb-----l..sfcbbngfffigcaaabdbcac+.+++++zgmpx.............................+++++.z..m....++..zslwz.yhhhhnz+++...rhgc----..+.wqgbf-------dgzpoy+........+ys..----ab----ige----acaaalllkddfiy..ysw..-abcccb---bbbbddddeffflhfeeeecbb..........thk.xgghiligfghfefhhhhiiheed..cbbaa----a--bdflm.yuibbcc.........heedcdbbabdmz.............zfdeghikki
(PID.TID 0000.0001) // =======================================================
(PID.TID 0000.0001) // END OF FIELD                                          =
(PID.TID 0000.0001) // =======================================================
(PID.TID 0000.0001) 
(PID.TID 0000.0001) // =======================================================
(PID.TID 0000.0001) // Field Model Ro_surf (ini_masks_etc) at iteration          1
(PID.TID 0000.0001) // CMIN =         -7.105427357601002E-15
(PID.TID 0000.0001) // CMAX =         -7.105427357601002E-15
(PID.TID 0000.0001) // CINT =          0.000000000000000E+00
(PID.TID 0000.0001) // SYMBOLS (CMIN->CMAX): -abcdefghijklmnopqrstuvwxyz+
(PID.TID 0000.0001) //                  0.0: .
(PID.TID 0000.0001) // RANGE I (Lo:Hi:Step):(  -1: 386:   1)
(PID.TID 0000.0001) // RANGE J (Lo:Hi:Step):(  18:  -1:  -1)
(PID.TID 0000.0001) // RANGE K (Lo:Hi:Step):(   1:   1:   1)
(PID.TID 0000.0001) // =======================================================
(PID.TID 0000.0001) // =======================================================
(PID.TID 0000.0001) // END OF FIELD                                          =
(PID.TID 0000.0001) // =======================================================
(PID.TID 0000.0001) 
(PID.TID 0000.0001) // =======================================================
(PID.TID 0000.0001) // Field hFacC at iteration          1
(PID.TID 0000.0001) // CMIN =          1.000000000000000E+00
(PID.TID 0000.0001) // CMAX =          1.000000000000000E+00
(PID.TID 0000.0001) // CINT =          0.000000000000000E+00
(PID.TID 0000.0001) // SYMBOLS (CMIN->CMAX): -abcdefghijklmnopqrstuvwxyz+
(PID.TID 0000.0001) //                  0.0: .
(PID.TID 0000.0001) // RANGE I (Lo:Hi:Step):(  -1: 386:   1)
(PID.TID 0000.0001) // RANGE J (Lo:Hi:Step):(  18:  -1:  -1)
(PID.TID 0000.0001) // RANGE K (Lo:Hi:Step):(   1:   1:   1)
(PID.TID 0000.0001) // =======================================================
(PID.TID 0000.0001) // =======================================================
(PID.TID 0000.0001) // END OF FIELD                                          =
(PID.TID 0000.0001) // =======================================================
(PID.TID 0000.0001) 
(PID.TID 0000.0001) // =======================================================
(PID.TID 0000.0001) // Field hFacW at iteration          1
(PID.TID 0000.0001) // CMIN =          1.000000000000000E+00
(PID.TID 0000.0001) // CMAX =          1.000000000000000E+00
(PID.TID 0000.0001) // CINT =          0.000000000000000E+00
(PID.TID 0000.0001) // SYMBOLS (CMIN->CMAX): -abcdefghijklmnopqrstuvwxyz+
(PID.TID 0000.0001) //                  0.0: .
(PID.TID 0000.0001) // RANGE I (Lo:Hi:Step):(  -1: 386:   1)
(PID.TID 0000.0001) // RANGE J (Lo:Hi:Step):(  18:  -1:  -1)
(PID.TID 0000.0001) // RANGE K (Lo:Hi:Step):(   1:   1:   1)
(PID.TID 0000.0001) // =======================================================
(PID.TID 0000.0001) // =======================================================
(PID.TID 0000.0001) // END OF FIELD                                          =
(PID.TID 0000.0001) // =======================================================
(PID.TID 0000.0001) 
(PID.TID 0000.0001) // =======================================================
(PID.TID 0000.0001) // Field hFacS at iteration          1
(PID.TID 0000.0001) // CMIN =          1.000000000000000E+00
(PID.TID 0000.0001) // CMAX =          1.000000000000000E+00
(PID.TID 0000.0001) // CINT =          0.000000000000000E+00
(PID.TID 0000.0001) // SYMBOLS (CMIN->CMAX): -abcdefghijklmnopqrstuvwxyz+
(PID.TID 0000.0001) //                  0.0: .
(PID.TID 0000.0001) // RANGE I (Lo:Hi:Step):(  -1: 386:   1)
(PID.TID 0000.0001) // RANGE J (Lo:Hi:Step):(  18:  -1:  -1)
(PID.TID 0000.0001) // RANGE K (Lo:Hi:Step):(   1:   1:   1)
(PID.TID 0000.0001) // =======================================================
(PID.TID 0000.0001) // =======================================================
(PID.TID 0000.0001) // END OF FIELD                                          =
(PID.TID 0000.0001) // =======================================================
(PID.TID 0000.0001) 
(PID.TID 0000.0001)  PACKAGES_BOOT: opening data.pkg
(PID.TID 0000.0001)  OPEN_COPY_DATA_FILE: opening file data.pkg
(PID.TID 0000.0001) // =======================================================
(PID.TID 0000.0001) // Parameter file "data.pkg"
(PID.TID 0000.0001) // =======================================================
(PID.TID 0000.0001) ># Packages
(PID.TID 0000.0001) > &PACKAGES
(PID.TID 0000.0001) > useGMRedi=.TRUE.,
(PID.TID 0000.0001) >#useBulkforce=.TRUE.,
(PID.TID 0000.0001) >#useThermSeaIce=.TRUE.,
(PID.TID 0000.0001) > &
(PID.TID 0000.0001) 
(PID.TID 0000.0001)  PACKAGES_BOOT: finished reading data.pkg
(PID.TID 0000.0001)  GM_READPARMS: opening data.gmredi
(PID.TID 0000.0001)  OPEN_COPY_DATA_FILE: opening file data.gmredi
(PID.TID 0000.0001) // =======================================================
(PID.TID 0000.0001) // Parameter file "data.gmredi"
(PID.TID 0000.0001) // =======================================================
(PID.TID 0000.0001) ># GM+Redi package parameters:
(PID.TID 0000.0001) >
(PID.TID 0000.0001) >#-from MOM :
(PID.TID 0000.0001) ># GM_background_K: 	G & Mc.W  diffusion coefficient
(PID.TID 0000.0001) ># GM_maxSlope    :	max slope of isopycnals
(PID.TID 0000.0001) ># GM_Scrit       :	transition for scaling diffusion coefficient
(PID.TID 0000.0001) ># GM_Sd          :	half width scaling for diffusion coefficient
(PID.TID 0000.0001) ># GM_taper_scheme:	slope clipping or one of the tapering schemes
(PID.TID 0000.0001) ># GM_Kmin_horiz  :	horizontal diffusion minimum value
(PID.TID 0000.0001) >
(PID.TID 0000.0001) >#-Option parameters (needs to "define" options in GMREDI_OPTIONS.h")
(PID.TID 0000.0001) ># GM_isopycK     :	isopycnal diffusion coefficient (default=GM_background_K)
(PID.TID 0000.0001) ># GM_AdvForm     :	turn on GM Advective form       (default=Skew flux form)
(PID.TID 0000.0001) >
(PID.TID 0000.0001) > &GM_PARM01
(PID.TID 0000.0001) >  GM_background_K    = 800.,
(PID.TID 0000.0001) >  GM_taper_scheme    = 'gkw91',
(PID.TID 0000.0001) >  GM_maxSlope        = 1.e-2,
(PID.TID 0000.0001) >  GM_Kmin_horiz      = 50.,
(PID.TID 0000.0001) >  GM_Scrit           = 4.e-3,
(PID.TID 0000.0001) >  GM_Sd              = 1.e-3,
(PID.TID 0000.0001) ># GM_Visbeck_alpha   = 0.,
(PID.TID 0000.0001) ># GM_Visbeck_length  = 2.e+5,
(PID.TID 0000.0001) ># GM_Visbeck_depth   = 1.e+3,
(PID.TID 0000.0001) ># GM_Visbeck_maxval_K= 2.5e+3,
(PID.TID 0000.0001) > &end
(PID.TID 0000.0001) >
(PID.TID 0000.0001) >
(PID.TID 0000.0001) 
(PID.TID 0000.0001)  GM_READPARMS: finished reading data.gmredi
(PID.TID 0000.0001) 
(PID.TID 0000.0001) // ===================================
(PID.TID 0000.0001) // GAD parameters :
(PID.TID 0000.0001) // ===================================
(PID.TID 0000.0001) tempAdvScheme =   /* Temp. advection scheme selector */
(PID.TID 0000.0001)                       2
(PID.TID 0000.0001)     ;
(PID.TID 0000.0001) tempMultiDimAdvec =   /* use Muti-Dim Advec method for Temp */
(PID.TID 0000.0001)                   F
(PID.TID 0000.0001)     ;
(PID.TID 0000.0001) tempAdamsBashforth =   /* use Adams-Bashforth time-stepping for Temp */
(PID.TID 0000.0001)                   T
(PID.TID 0000.0001)     ;
(PID.TID 0000.0001) saltAdvScheme =   /* Salt. advection scheme selector */
(PID.TID 0000.0001)                       2
(PID.TID 0000.0001)     ;
(PID.TID 0000.0001) saltMultiDimAdvec =   /* use Muti-Dim Advec method for Salt */
(PID.TID 0000.0001)                   F
(PID.TID 0000.0001)     ;
(PID.TID 0000.0001) saltAdamsBashforth =   /* use Adams-Bashforth time-stepping for Salt */
(PID.TID 0000.0001)                   T
(PID.TID 0000.0001)     ;
(PID.TID 0000.0001) // ===================================
(PID.TID 0000.0001) GMREDI_CHECK: #define GMREDI
(PID.TID 0000.0001) GM_AdvForm =  /* if FALSE => use SkewFlux Form */
(PID.TID 0000.0001)                   F
(PID.TID 0000.0001)     ;
(PID.TID 0000.0001) GM_AdvSeparate = /* Calc Bolus & Euler Adv. separately */
(PID.TID 0000.0001)                   F
(PID.TID 0000.0001)     ;
(PID.TID 0000.0001) GM_ExtraDiag =  /* Tensor Extra Diag (line 1&2) non 0 */
(PID.TID 0000.0001)                   F
(PID.TID 0000.0001)     ;
(PID.TID 0000.0001) GM_isopycK =   /* Background Isopyc. Diffusivity ( m^2/s ) */
(PID.TID 0000.0001)                 8.000000000000000E+02
(PID.TID 0000.0001)     ;
(PID.TID 0000.0001)  GM_skewflx*K =   /* Background GM_SkewFlx Diffusivity ( m^2/s ) */
(PID.TID 0000.0001)                 8.000000000000000E+02
(PID.TID 0000.0001)     ;
(PID.TID 0000.0001)  GM_advec*K =   /* Backg. GM-Advec(=Bolus) Diffusivity ( m^2/s ) */
(PID.TID 0000.0001)                 0.000000000000000E+00
(PID.TID 0000.0001)     ;
(PID.TID 0000.0001)  GM_Visbeck_alpha =   /* Visbeck alpha coeff. ( ) */
(PID.TID 0000.0001)                 0.000000000000000E+00
(PID.TID 0000.0001)     ;
(PID.TID 0000.0001)  Tapering/Cliping : gkw91
(PID.TID 0000.0001)  GM_Small_Number =  /* epsilon used in slope calc */
(PID.TID 0000.0001)                 1.000000000000000E-12
(PID.TID 0000.0001)     ;
(PID.TID 0000.0001)  GM_slopeSqCutoff =  /* Slope^2 cut-off value */
(PID.TID 0000.0001)                 1.000000000000000E+48
(PID.TID 0000.0001)     ;
(PID.TID 0000.0001) %MON fCori_max                    =   1.4535016908525E-04
(PID.TID 0000.0001) %MON fCori_min                    =  -1.4535016908525E-04
(PID.TID 0000.0001) %MON fCori_mean                   =  -2.3381638648166E-22
(PID.TID 0000.0001) %MON fCori_sd                     =   8.3972192788621E-05
(PID.TID 0000.0001) %MON fCoriG_max                   =   1.4544410433286E-04
(PID.TID 0000.0001) %MON fCoriG_min                   =  -1.4544410433286E-04
(PID.TID 0000.0001) %MON fCoriG_mean                  =  -8.3126371685329E-22
(PID.TID 0000.0001) %MON fCoriG_sd                    =   8.4860812167727E-05
(PID.TID 0000.0001) %MON fCoriCos_max                 =   1.4540341538469E-04
(PID.TID 0000.0001) %MON fCoriCos_min                 =   5.2264550201501E-06
(PID.TID 0000.0001) %MON fCoriCos_mean                =   1.1482595466044E-04
(PID.TID 0000.0001) %MON fCoriCos_sd                  =   3.0292878037194E-05
(PID.TID 0000.0001) // CG2D normalisation factor =          0.1915656415494955617292300E-03
(PID.TID 0000.0001) 
 ini_cg2d: sumArea,cg2dTolerance =  3.63886737508160E+14  5.80901636017529E-07
(PID.TID 0000.0001) CONFIG_CHECK: OK
(PID.TID 0000.0001) // =======================================================
(PID.TID 0000.0001) // Model configuration
(PID.TID 0000.0001) // =======================================================
(PID.TID 0000.0001) //
(PID.TID 0000.0001) // "Physical" paramters ( PARM01 in namelist )
(PID.TID 0000.0001) //
(PID.TID 0000.0001) buoyancyRelation = OCEANIC
(PID.TID 0000.0001) tRef =   /* Reference temperature profile ( oC or oK ) */
(PID.TID 0000.0001)    15 @  2.000000000000000E+01              /* K =  1: 15 */
(PID.TID 0000.0001)     ;
(PID.TID 0000.0001) sRef =   /* Reference salinity profile ( ppt ) */
(PID.TID 0000.0001)    15 @  3.500000000000000E+01              /* K =  1: 15 */
(PID.TID 0000.0001)     ;
(PID.TID 0000.0001) viscAh =   /* Lateral eddy viscosity ( m^2/s ) */
(PID.TID 0000.0001)                 3.000000000000000E+05
(PID.TID 0000.0001)     ;
(PID.TID 0000.0001) viscAhMax =   /* Maximum lateral eddy viscosity ( m^2/s ) */
(PID.TID 0000.0001)                 1.000000000000000E+21
(PID.TID 0000.0001)     ;
(PID.TID 0000.0001) viscAhGrid =   /* Grid dependent lateral eddy viscosity ( non-dim. ) */
(PID.TID 0000.0001)                 0.000000000000000E+00
(PID.TID 0000.0001)     ;
(PID.TID 0000.0001) viscA4 =   /* Lateral biharmonic viscosity ( m^4/s ) */
(PID.TID 0000.0001)                 0.000000000000000E+00
(PID.TID 0000.0001)     ;
(PID.TID 0000.0001) viscA4Max =   /* Maximum biharmonic viscosity ( m^2/s ) */
(PID.TID 0000.0001)                 1.000000000000000E+21
(PID.TID 0000.0001)     ;
(PID.TID 0000.0001) viscA4Grid =   /* Grid dependent biharmonic viscosity ( non-dim. ) */
(PID.TID 0000.0001)                 0.000000000000000E+00
(PID.TID 0000.0001)     ;
(PID.TID 0000.0001) no_slip_sides =  /* Viscous BCs: No-slip sides */
(PID.TID 0000.0001)                   T
(PID.TID 0000.0001)     ;
(PID.TID 0000.0001) viscAr =   /* Vertical eddy viscosity ( units of r^2/s ) */
(PID.TID 0000.0001)                 1.000000000000000E-03
(PID.TID 0000.0001)     ;
(PID.TID 0000.0001) diffKhT =   /* Laplacian diffusion of heat laterally ( m^2/s ) */
(PID.TID 0000.0001)                 0.000000000000000E+00
(PID.TID 0000.0001)     ;
(PID.TID 0000.0001) diffK4T =   /* Bihaarmonic diffusion of heat laterally ( m^4/s ) */
(PID.TID 0000.0001)                 0.000000000000000E+00
(PID.TID 0000.0001)     ;
(PID.TID 0000.0001) diffKrT =   /* Laplacian diffusion of heat vertically ( m^2/s ) */
(PID.TID 0000.0001)                 3.000000000000000E-05
(PID.TID 0000.0001)     ;
(PID.TID 0000.0001) diffKhS =   /* Laplacian diffusion of salt laterally ( m^2/s ) */
(PID.TID 0000.0001)                 0.000000000000000E+00
(PID.TID 0000.0001)     ;
(PID.TID 0000.0001) diffK4S =   /* Bihaarmonic diffusion of salt laterally ( m^4/s ) */
(PID.TID 0000.0001)                 0.000000000000000E+00
(PID.TID 0000.0001)     ;
(PID.TID 0000.0001) diffKrS =   /* Laplacian diffusion of salt vertically ( m^2/s ) */
(PID.TID 0000.0001)                 3.000000000000000E-05
(PID.TID 0000.0001)     ;
(PID.TID 0000.0001)  Equation of State : eosType = JMD95Z
(PID.TID 0000.0001) tAlpha =   /* Linear EOS thermal expansion coefficient ( 1/degree ) */
(PID.TID 0000.0001)                 1.234567000000000E+05
(PID.TID 0000.0001)     ;
(PID.TID 0000.0001) sBeta =   /* Linear EOS haline contraction coefficient ( 1/ppt ) */
(PID.TID 0000.0001)                 1.234567000000000E+05
(PID.TID 0000.0001)     ;
(PID.TID 0000.0001) rhonil =   /* Reference density ( kg/m^3 ) */
(PID.TID 0000.0001)                 1.035000000000000E+03
(PID.TID 0000.0001)     ;
(PID.TID 0000.0001) rhoConst =   /* Reference density ( kg/m^3 ) */
(PID.TID 0000.0001)                 1.035000000000000E+03
(PID.TID 0000.0001)     ;
(PID.TID 0000.0001) rhoConstFresh =   /* Reference density ( kg/m^3 ) */
(PID.TID 0000.0001)                 1.035000000000000E+03
(PID.TID 0000.0001)     ;
(PID.TID 0000.0001) gravity =   /* Gravitational acceleration ( m/s^2 ) */
(PID.TID 0000.0001)                 9.810000000000000E+00
(PID.TID 0000.0001)     ;
(PID.TID 0000.0001) gBaro =   /* Barotropic gravity ( m/s^2 ) */
(PID.TID 0000.0001)                 9.810000000000000E+00
(PID.TID 0000.0001)     ;
(PID.TID 0000.0001) rotationPeriod =   /* Rotation Period ( s ) */
(PID.TID 0000.0001)                 8.640000000000000E+04
(PID.TID 0000.0001)     ;
(PID.TID 0000.0001) omega =   /* Angular velocity ( rad/s ) */
(PID.TID 0000.0001)                 7.272205216643040E-05
(PID.TID 0000.0001)     ;
(PID.TID 0000.0001) f0 =   /* Reference coriolis parameter ( 1/s ) */
(PID.TID 0000.0001)                 1.000000000000000E-04
(PID.TID 0000.0001)     ;
(PID.TID 0000.0001) beta =   /* Beta ( 1/(m.s) ) */
(PID.TID 0000.0001)                 9.999999999999999E-12
(PID.TID 0000.0001)     ;
(PID.TID 0000.0001) freeSurfFac =   /* Implicit free surface factor */
(PID.TID 0000.0001)                 1.000000000000000E+00
(PID.TID 0000.0001)     ;
(PID.TID 0000.0001) implicitFreeSurface =   /* Implicit free surface on/off flag */
(PID.TID 0000.0001)                   T
(PID.TID 0000.0001)     ;
(PID.TID 0000.0001) rigidLid =   /* Rigid lid on/off flag */
(PID.TID 0000.0001)                   F
(PID.TID 0000.0001)     ;
(PID.TID 0000.0001) implicSurfPress =   /* Surface Pressure implicit factor (0-1)*/
(PID.TID 0000.0001)                 1.000000000000000E+00
(PID.TID 0000.0001)     ;
(PID.TID 0000.0001) implicDiv2Dflow =   /* Barot. Flow Div. implicit factor (0-1)*/
(PID.TID 0000.0001)                 1.000000000000000E+00
(PID.TID 0000.0001)     ;
(PID.TID 0000.0001) exactConserv =   /* Exact Volume Conservation on/off flag*/
(PID.TID 0000.0001)                   T
(PID.TID 0000.0001)     ;
(PID.TID 0000.0001) uniformLin_PhiSurf =   /* use uniform Bo_surf on/off flag*/
(PID.TID 0000.0001)                   T
(PID.TID 0000.0001)     ;
(PID.TID 0000.0001) nonlinFreeSurf =   /* Non-linear Free Surf. options (-1,0,1,2,3)*/
(PID.TID 0000.0001)                       4
(PID.TID 0000.0001)     ;
(PID.TID 0000.0001)      -1,0= Off ; 1,2,3= On, 2=+rescale gU,gV, 3=+update cg2d solv.
(PID.TID 0000.0001) hFacInf =   /* lower threshold for hFac (nonlinFreeSurf only)*/
(PID.TID 0000.0001)                 2.000000000000000E-01
(PID.TID 0000.0001)     ;
(PID.TID 0000.0001) hFacSup =   /* upper threshold for hFac (nonlinFreeSurf only)*/
(PID.TID 0000.0001)                 2.000000000000000E+00
(PID.TID 0000.0001)     ;
(PID.TID 0000.0001) select_rStar =   /* r* Coordinate options (not yet implemented)*/
(PID.TID 0000.0001)                       2
(PID.TID 0000.0001)     ;
(PID.TID 0000.0001) useRealFreshWaterFlux =   /* Real Fresh Water Flux on/off flag*/
(PID.TID 0000.0001)                   T
(PID.TID 0000.0001)     ;
(PID.TID 0000.0001) temp_EvPrRn = /* Temp. of Evap/Prec/R (UNSET=use local T)(oC)*/
(PID.TID 0000.0001)                 1.234567000000000E+05
(PID.TID 0000.0001)     ;
(PID.TID 0000.0001) salt_EvPrRn = /* Salin. of Evap/Prec/R (UNSET=use local S)(ppt)*/
(PID.TID 0000.0001)                 0.000000000000000E+00
(PID.TID 0000.0001)     ;
(PID.TID 0000.0001) trac_EvPrRn = /* Tracer in Evap/Prec/R (UNSET=use local Tr)*/
(PID.TID 0000.0001)                 1.234567000000000E+05
(PID.TID 0000.0001)     ;
(PID.TID 0000.0001) nonHydrostatic =  /* Non-Hydrostatic on/off flag */
(PID.TID 0000.0001)                   F
(PID.TID 0000.0001)     ;
(PID.TID 0000.0001) momStepping =  /* Momentum equation on/off flag */
(PID.TID 0000.0001)                   T
(PID.TID 0000.0001)     ;
(PID.TID 0000.0001) momAdvection =  /* Momentum advection on/off flag */
(PID.TID 0000.0001)                   T
(PID.TID 0000.0001)     ;
(PID.TID 0000.0001) momViscosity =  /* Momentum viscosity on/off flag */
(PID.TID 0000.0001)                   T
(PID.TID 0000.0001)     ;
(PID.TID 0000.0001) momImplVertAdv =/* Momentum implicit vert. advection on/off*/
(PID.TID 0000.0001)                   F
(PID.TID 0000.0001)     ;
(PID.TID 0000.0001) implicitViscosity = /* Implicit viscosity on/off flag */
(PID.TID 0000.0001)                   F
(PID.TID 0000.0001)     ;
(PID.TID 0000.0001) useCoriolis =  /* Coriolis on/off flag */
(PID.TID 0000.0001)                   T
(PID.TID 0000.0001)     ;
(PID.TID 0000.0001) useCDscheme =  /* CD scheme on/off flag */
(PID.TID 0000.0001)                   F
(PID.TID 0000.0001)     ;
(PID.TID 0000.0001) useJamartWetPoints= /* Coriolis WetPoints method flag */
(PID.TID 0000.0001)                   F
(PID.TID 0000.0001)     ;
(PID.TID 0000.0001) momForcing =  /* Momentum forcing on/off flag */
(PID.TID 0000.0001)                   T
(PID.TID 0000.0001)     ;
(PID.TID 0000.0001) momPressureForcing =  /* Momentum pressure term on/off flag */
(PID.TID 0000.0001)                   T
(PID.TID 0000.0001)     ;
(PID.TID 0000.0001) staggerTimeStep =   /* Stagger time stepping on/off flag */
(PID.TID 0000.0001)                   F
(PID.TID 0000.0001)     ;
(PID.TID 0000.0001) multiDimAdvection =   /* enable/disable Multi-Dim Advection */
(PID.TID 0000.0001)                   T
(PID.TID 0000.0001)     ;
(PID.TID 0000.0001) implicitDiffusion =/* Implicit Diffusion on/off flag */
(PID.TID 0000.0001)                   T
(PID.TID 0000.0001)     ;
(PID.TID 0000.0001) tempStepping =  /* Temperature equation on/off flag */
(PID.TID 0000.0001)                   T
(PID.TID 0000.0001)     ;
(PID.TID 0000.0001) tempAdvection=  /* Temperature advection on/off flag */
(PID.TID 0000.0001)                   T
(PID.TID 0000.0001)     ;
(PID.TID 0000.0001) tempImplVertAdv =/* Temp. implicit vert. advection on/off */
(PID.TID 0000.0001)                   F
(PID.TID 0000.0001)     ;
(PID.TID 0000.0001) tempForcing  =  /* Temperature forcing on/off flag */
(PID.TID 0000.0001)                   T
(PID.TID 0000.0001)     ;
(PID.TID 0000.0001) saltStepping =  /* Salinity equation on/off flag */
(PID.TID 0000.0001)                   T
(PID.TID 0000.0001)     ;
(PID.TID 0000.0001) saltAdvection=  /* Salinity advection on/off flag */
(PID.TID 0000.0001)                   T
(PID.TID 0000.0001)     ;
(PID.TID 0000.0001) saltImplVertAdv =/* Sali. implicit vert. advection on/off */
(PID.TID 0000.0001)                   F
(PID.TID 0000.0001)     ;
(PID.TID 0000.0001) saltForcing  =  /* Salinity forcing on/off flag */
(PID.TID 0000.0001)                   T
(PID.TID 0000.0001)     ;
(PID.TID 0000.0001) //
(PID.TID 0000.0001) // Elliptic solver(s) paramters ( PARM02 in namelist )
(PID.TID 0000.0001) //
(PID.TID 0000.0001) cg2dMaxIters =   /* Upper limit on 2d con. grad iterations  */
(PID.TID 0000.0001)                     200
(PID.TID 0000.0001)     ;
(PID.TID 0000.0001) cg2dChkResFreq =   /* 2d con. grad convergence test frequency */
(PID.TID 0000.0001)                       1
(PID.TID 0000.0001)     ;
(PID.TID 0000.0001) cg2dTargetResidual =   /* 2d con. grad target residual  */
(PID.TID 0000.0001)                 1.000000000000000E-07
(PID.TID 0000.0001)     ;
(PID.TID 0000.0001) //
(PID.TID 0000.0001) // Time stepping paramters ( PARM03 in namelist )
(PID.TID 0000.0001) //
(PID.TID 0000.0001) nIter0 =   /* Base timestep number  */
(PID.TID 0000.0001)                   72000
(PID.TID 0000.0001)     ;
(PID.TID 0000.0001) nTimeSteps =   /* Number of timesteps */
(PID.TID 0000.0001)                      20
(PID.TID 0000.0001)     ;
(PID.TID 0000.0001) deltatTmom =   /* Momentum equation timestep ( s ) */
(PID.TID 0000.0001)                 1.200000000000000E+03
(PID.TID 0000.0001)     ;
(PID.TID 0000.0001) deltaTfreesurf =   /* FreeSurface equation timestep ( s ) */
(PID.TID 0000.0001)                 8.640000000000000E+04
(PID.TID 0000.0001)     ;
(PID.TID 0000.0001) deltatTtracer =   /* Tracer equation timestep ( s ) */
(PID.TID 0000.0001)                 8.640000000000000E+04
(PID.TID 0000.0001)     ;
(PID.TID 0000.0001) deltatTClock  =   /* Model clock timestep ( s ) */
(PID.TID 0000.0001)                 8.640000000000000E+04
(PID.TID 0000.0001)     ;
(PID.TID 0000.0001) cAdjFreq =   /* Convective adjustment interval ( s ) */
(PID.TID 0000.0001)                 0.000000000000000E+00
(PID.TID 0000.0001)     ;
(PID.TID 0000.0001) forcing_In_AB =   /* put T,S Forcing in Adams-Bash. stepping */
(PID.TID 0000.0001)                   F
(PID.TID 0000.0001)     ;
(PID.TID 0000.0001) abeps =   /* Adams-Bashforth stabilizing weight */
(PID.TID 0000.0001)                 1.000000000000000E-01
(PID.TID 0000.0001)     ;
(PID.TID 0000.0001) startTime =   /* Run start time ( s ). */
(PID.TID 0000.0001)                 6.220800000000000E+09
(PID.TID 0000.0001)     ;
(PID.TID 0000.0001) endTime =   /* Integration ending time ( s ). */
(PID.TID 0000.0001)                 6.222528000000000E+09
(PID.TID 0000.0001)     ;
(PID.TID 0000.0001) pChkPtFreq =   /* Permanent restart/checkpoint file interval ( s ). */
(PID.TID 0000.0001)                 1.728000000000000E+06
(PID.TID 0000.0001)     ;
(PID.TID 0000.0001) chkPtFreq =   /* Rolling restart/checkpoint file interval ( s ). */
(PID.TID 0000.0001)                 0.000000000000000E+00
(PID.TID 0000.0001)     ;
(PID.TID 0000.0001) dumpFreq =   /* Model state write out interval ( s ). */
(PID.TID 0000.0001)                 6.220800000000000E+08
(PID.TID 0000.0001)     ;
(PID.TID 0000.0001) externForcingPeriod =   /* forcing period (s) */
(PID.TID 0000.0001)                 2.592000000000000E+06
(PID.TID 0000.0001)     ;
(PID.TID 0000.0001) externForcingCycle =   /* period of the cyle (s). */
(PID.TID 0000.0001)                 3.110400000000000E+07
(PID.TID 0000.0001)     ;
(PID.TID 0000.0001) tauThetaClimRelax =   /* relaxation time scale (s) */
(PID.TID 0000.0001)                 5.184000000000000E+06
(PID.TID 0000.0001)     ;
(PID.TID 0000.0001) tauSaltClimRelax =   /* relaxation time scale (s) */
(PID.TID 0000.0001)                 6.220800000000000E+07
(PID.TID 0000.0001)     ;
(PID.TID 0000.0001) latBandClimRelax =   /* max. Lat. where relaxation */
(PID.TID 0000.0001)                 1.800000000000000E+02
(PID.TID 0000.0001)     ;
(PID.TID 0000.0001) //
(PID.TID 0000.0001) // Gridding paramters ( PARM04 in namelist )
(PID.TID 0000.0001) //
(PID.TID 0000.0001) usingCartesianGrid =   /* Cartesian coordinates flag ( True / False ) */
(PID.TID 0000.0001)                   F
(PID.TID 0000.0001)     ;
(PID.TID 0000.0001) usingSphericalPolarGrid =   /* Spherical coordinates flag ( True / False ) */
(PID.TID 0000.0001)                   F
(PID.TID 0000.0001)     ;
(PID.TID 0000.0001) groundAtK1 =   /* Lower Boundary (ground) at the surface(k=1) ( T / F ) */
(PID.TID 0000.0001)                   F
(PID.TID 0000.0001)     ;
(PID.TID 0000.0001) Ro_SeaLevel =   /* r(1) ( units of r ) */
(PID.TID 0000.0001)                 0.000000000000000E+00
(PID.TID 0000.0001)     ;
(PID.TID 0000.0001) rkFac =   /* minus Vertical index orientation  */
(PID.TID 0000.0001)                 1.000000000000000E+00
(PID.TID 0000.0001)     ;
(PID.TID 0000.0001) horiVertRatio =   /* Ratio on units : Horiz - Vertical */
(PID.TID 0000.0001)                 1.000000000000000E+00
(PID.TID 0000.0001)     ;
(PID.TID 0000.0001) drC =   /* C spacing ( units of r ) */
(PID.TID 0000.0001)                 2.500000000000000E+01,      /* K =  1 */
(PID.TID 0000.0001)                 6.000000000000000E+01,      /* K =  2 */
(PID.TID 0000.0001)                 8.500000000000000E+01,      /* K =  3 */
(PID.TID 0000.0001)                 1.200000000000000E+02,      /* K =  4 */
(PID.TID 0000.0001)                 1.650000000000000E+02,      /* K =  5 */
(PID.TID 0000.0001)                 2.150000000000000E+02,      /* K =  6 */
(PID.TID 0000.0001)                 2.650000000000000E+02,      /* K =  7 */
(PID.TID 0000.0001)                 3.150000000000000E+02,      /* K =  8 */
(PID.TID 0000.0001)                 3.650000000000000E+02,      /* K =  9 */
(PID.TID 0000.0001)                 4.150000000000000E+02,      /* K = 10 */
(PID.TID 0000.0001)                 4.650000000000000E+02,      /* K = 11 */
(PID.TID 0000.0001)                 5.150000000000000E+02,      /* K = 12 */
(PID.TID 0000.0001)                 5.650000000000000E+02,      /* K = 13 */
(PID.TID 0000.0001)                 6.150000000000000E+02,      /* K = 14 */
(PID.TID 0000.0001)                 6.650000000000000E+02       /* K = 15 */
(PID.TID 0000.0001)     ;
(PID.TID 0000.0001) drF =   /* W spacing ( units of r ) */
(PID.TID 0000.0001)                 5.000000000000000E+01,      /* K =  1 */
(PID.TID 0000.0001)                 7.000000000000000E+01,      /* K =  2 */
(PID.TID 0000.0001)                 1.000000000000000E+02,      /* K =  3 */
(PID.TID 0000.0001)                 1.400000000000000E+02,      /* K =  4 */
(PID.TID 0000.0001)                 1.900000000000000E+02,      /* K =  5 */
(PID.TID 0000.0001)                 2.400000000000000E+02,      /* K =  6 */
(PID.TID 0000.0001)                 2.900000000000000E+02,      /* K =  7 */
(PID.TID 0000.0001)                 3.400000000000000E+02,      /* K =  8 */
(PID.TID 0000.0001)                 3.900000000000000E+02,      /* K =  9 */
(PID.TID 0000.0001)                 4.400000000000000E+02,      /* K = 10 */
(PID.TID 0000.0001)                 4.900000000000000E+02,      /* K = 11 */
(PID.TID 0000.0001)                 5.400000000000000E+02,      /* K = 12 */
(PID.TID 0000.0001)                 5.900000000000000E+02,      /* K = 13 */
(PID.TID 0000.0001)                 6.400000000000000E+02,      /* K = 14 */
(PID.TID 0000.0001)                 6.900000000000000E+02       /* K = 15 */
(PID.TID 0000.0001)     ;
(PID.TID 0000.0001) delX =   /* U spacing ( m - cartesian, degrees - spherical ) */
(PID.TID 0000.0001)   384 @  1.234567000000000E+05              /* I =  1:384 */
(PID.TID 0000.0001)     ;
(PID.TID 0000.0001) delY =   /* V spacing ( m - cartesian, degrees - spherical ) */
(PID.TID 0000.0001)    16 @  1.234567000000000E+05              /* J =  1: 16 */
(PID.TID 0000.0001)     ;
(PID.TID 0000.0001) phiMin =    /* South edge (ignored - cartesian, degrees - spherical ) */
(PID.TID 0000.0001)                 0.000000000000000E+00
(PID.TID 0000.0001)     ;
(PID.TID 0000.0001) thetaMin =    /* West edge ( ignored - cartesian, degrees - spherical ) */
(PID.TID 0000.0001)                 0.000000000000000E+00
(PID.TID 0000.0001)     ;
(PID.TID 0000.0001) rSphere =    /* Radius ( ignored - cartesian, m - spherical ) */
(PID.TID 0000.0001)                 6.370000000000000E+06
(PID.TID 0000.0001)     ;
(PID.TID 0000.0001) xcoord =   /* P-point X coord ( m - cartesian, degrees - spherical ) */
(PID.TID 0000.0001)                -4.439521994760536E+01,      /* I =  1 */
(PID.TID 0000.0001)                -4.295641272275883E+01,      /* I =  2 */
(PID.TID 0000.0001)                -4.122055553388957E+01,      /* I =  3 */
(PID.TID 0000.0001)                -3.923446288487304E+01,      /* I =  4 */
(PID.TID 0000.0001)                -3.702585158682200E+01,      /* I =  5 */
(PID.TID 0000.0001)                -3.461179367094151E+01,      /* I =  6 */
(PID.TID 0000.0001)                -3.200434569041793E+01,      /* I =  7 */
(PID.TID 0000.0001)                -2.921355965632675E+01,      /* I =  8 */
(PID.TID 0000.0001)                -2.624932223028290E+01,      /* I =  9 */
(PID.TID 0000.0001)                -2.312261250426344E+01,      /* I = 10 */
(PID.TID 0000.0001)                -1.984640717127058E+01,      /* I = 11 */
(PID.TID 0000.0001)                -1.643630800555134E+01,      /* I = 12 */
(PID.TID 0000.0001)                -1.291089806302069E+01,      /* I = 13 */
(PID.TID 0000.0001)                -9.291807802719402E+00,      /* I = 14 */
(PID.TID 0000.0001)                -5.603475335822332E+00,      /* I = 15 */
(PID.TID 0000.0001)                -1.872608513033445E+00,      /* I = 16 */
(PID.TID 0000.0001)                 1.872608513033445E+00,      /* I = 17 */
(PID.TID 0000.0001)                 5.603475335822332E+00,      /* I = 18 */
(PID.TID 0000.0001)                 9.291807802719402E+00,      /* I = 19 */
(PID.TID 0000.0001)                 1.291089806302069E+01,      /* I = 20 */
(PID.TID 0000.0001)                 1.643630800555134E+01,      /* I = 21 */
(PID.TID 0000.0001)                 1.984640717127058E+01,      /* I = 22 */
(PID.TID 0000.0001)                 2.312261250426344E+01,      /* I = 23 */
(PID.TID 0000.0001)                 2.624932223028290E+01,      /* I = 24 */
(PID.TID 0000.0001)                 2.921355965632675E+01,      /* I = 25 */
(PID.TID 0000.0001)                 3.200434569041793E+01,      /* I = 26 */
(PID.TID 0000.0001)                 3.461179367094151E+01,      /* I = 27 */
(PID.TID 0000.0001)                 3.702585158682200E+01,      /* I = 28 */
(PID.TID 0000.0001)                 3.923446288487304E+01,      /* I = 29 */
(PID.TID 0000.0001)                 4.122055553388957E+01,      /* I = 30 */
(PID.TID 0000.0001)                 4.295641272275883E+01,      /* I = 31 */
(PID.TID 0000.0001)                 4.439521994760536E+01,      /* I = 32 */
(PID.TID 0000.0001)                -4.364490324992833E+01,      /* I = 33 */
(PID.TID 0000.0001)                -4.093268771156353E+01,      /* I = 34 */
(PID.TID 0000.0001)                -3.821449311785297E+01,      /* I = 35 */
(PID.TID 0000.0001)                -3.548661856694081E+01,      /* I = 36 */
(PID.TID 0000.0001)                -3.274577371214319E+01,      /* I = 37 */
(PID.TID 0000.0001)                -2.998921061819286E+01,      /* I = 38 */
(PID.TID 0000.0001)                -2.721482732194908E+01,      /* I = 39 */
(PID.TID 0000.0001)                -2.442123987207341E+01,      /* I = 40 */
(PID.TID 0000.0001)                -2.160782193728863E+01,      /* I = 41 */
(PID.TID 0000.0001)                -1.877471294668040E+01,      /* I = 42 */
(PID.TID 0000.0001)                -1.592279705047260E+01,      /* I = 43 */
(PID.TID 0000.0001)                -1.305365599512185E+01,      /* I = 44 */
(PID.TID 0000.0001)                -1.016949940404567E+01,      /* I = 45 */
(PID.TID 0000.0001)                -7.273076082698362E+00,      /* I = 46 */
(PID.TID 0000.0001)                -4.367569947789942E+00,      /* I = 47 */
(PID.TID 0000.0001)                -1.456484104946475E+00,      /* I = 48 */
(PID.TID 0000.0001)                 1.456484104946475E+00,      /* I = 49 */
(PID.TID 0000.0001)                 4.367569947789942E+00,      /* I = 50 */
(PID.TID 0000.0001)                 7.273076082698362E+00,      /* I = 51 */
(PID.TID 0000.0001)                 1.016949940404567E+01,      /* I = 52 */
(PID.TID 0000.0001)                 1.305365599512185E+01,      /* I = 53 */
(PID.TID 0000.0001)                 1.592279705047260E+01,      /* I = 54 */
(PID.TID 0000.0001)                 1.877471294668040E+01,      /* I = 55 */
(PID.TID 0000.0001)                 2.160782193728863E+01,      /* I = 56 */
(PID.TID 0000.0001)                 2.442123987207341E+01,      /* I = 57 */
(PID.TID 0000.0001)                 2.721482732194908E+01,      /* I = 58 */
(PID.TID 0000.0001)                 2.998921061819286E+01,      /* I = 59 */
(PID.TID 0000.0001)                 3.274577371214319E+01,      /* I = 60 */
(PID.TID 0000.0001)                 3.548661856694081E+01,      /* I = 61 */
(PID.TID 0000.0001)                 3.821449311785297E+01,      /* I = 62 */
(PID.TID 0000.0001)                 4.093268771156353E+01,      /* I = 63 */
(PID.TID 0000.0001)                 4.364490324992833E+01,      /* I = 64 */
(PID.TID 0000.0001)                 4.560478005239464E+01,      /* I = 65 */
(PID.TID 0000.0001)                 4.704358727724117E+01,      /* I = 66 */
(PID.TID 0000.0001)                 4.877944446611043E+01,      /* I = 67 */
(PID.TID 0000.0001)                 5.076553711512697E+01,      /* I = 68 */
(PID.TID 0000.0001)                 5.297414841317801E+01,      /* I = 69 */
(PID.TID 0000.0001)                 5.538820632905850E+01,      /* I = 70 */
(PID.TID 0000.0001)                 5.799565430958209E+01,      /* I = 71 */
(PID.TID 0000.0001)                 6.078644034367325E+01,      /* I = 72 */
(PID.TID 0000.0001)                 6.375067776971711E+01,      /* I = 73 */
(PID.TID 0000.0001)                 6.687738749573657E+01,      /* I = 74 */
(PID.TID 0000.0001)                 7.015359282872943E+01,      /* I = 75 */
(PID.TID 0000.0001)                 7.356369199444866E+01,      /* I = 76 */
(PID.TID 0000.0001)                 7.708910193697932E+01,      /* I = 77 */
(PID.TID 0000.0001)                 8.070819219728060E+01,      /* I = 78 */
(PID.TID 0000.0001)                 8.439652466417766E+01,      /* I = 79 */
(PID.TID 0000.0001)                 8.812739148696656E+01,      /* I = 80 */
(PID.TID 0000.0001)                 9.187260851303344E+01,      /* I = 81 */
(PID.TID 0000.0001)                 9.560347533582234E+01,      /* I = 82 */
(PID.TID 0000.0001)                 9.929180780271940E+01,      /* I = 83 */
(PID.TID 0000.0001)                 1.029108980630207E+02,      /* I = 84 */
(PID.TID 0000.0001)                 1.064363080055513E+02,      /* I = 85 */
(PID.TID 0000.0001)                 1.098464071712706E+02,      /* I = 86 */
(PID.TID 0000.0001)                 1.131226125042634E+02,      /* I = 87 */
(PID.TID 0000.0001)                 1.162493222302829E+02,      /* I = 88 */
(PID.TID 0000.0001)                 1.192135596563268E+02,      /* I = 89 */
(PID.TID 0000.0001)                 1.220043456904179E+02,      /* I = 90 */
(PID.TID 0000.0001)                 1.246117936709415E+02,      /* I = 91 */
(PID.TID 0000.0001)                 1.270258515868220E+02,      /* I = 92 */
(PID.TID 0000.0001)                 1.292344628848730E+02,      /* I = 93 */
(PID.TID 0000.0001)                 1.312205555338896E+02,      /* I = 94 */
(PID.TID 0000.0001)                 1.329564127227588E+02,      /* I = 95 */
(PID.TID 0000.0001)                 1.343952199476053E+02,      /* I = 96 */
(PID.TID 0000.0001)                 4.635509675007168E+01,      /* I = 97 */
(PID.TID 0000.0001)                 4.906731228843647E+01,      /* I = 98 */
(PID.TID 0000.0001)                 5.178550688214704E+01,      /* I = 99 */
(PID.TID 0000.0001)                 5.451338143305920E+01,      /* I =100 */
(PID.TID 0000.0001)                 5.725422628785682E+01,      /* I =101 */
(PID.TID 0000.0001)                 6.001078938180714E+01,      /* I =102 */
(PID.TID 0000.0001)                 6.278517267805092E+01,      /* I =103 */
(PID.TID 0000.0001)                 6.557876012792660E+01,      /* I =104 */
(PID.TID 0000.0001)                 6.839217806271137E+01,      /* I =105 */
(PID.TID 0000.0001)                 7.122528705331960E+01,      /* I =106 */
(PID.TID 0000.0001)                 7.407720294952740E+01,      /* I =107 */
(PID.TID 0000.0001)                 7.694634400487816E+01,      /* I =108 */
(PID.TID 0000.0001)                 7.983050059595433E+01,      /* I =109 */
(PID.TID 0000.0001)                 8.272692391730165E+01,      /* I =110 */
(PID.TID 0000.0001)                 8.563243005221005E+01,      /* I =111 */
(PID.TID 0000.0001)                 8.854351589505353E+01,      /* I =112 */
(PID.TID 0000.0001)                 9.145648410494647E+01,      /* I =113 */
(PID.TID 0000.0001)                 9.436756994778995E+01,      /* I =114 */
(PID.TID 0000.0001)                 9.727307608269835E+01,      /* I =115 */
(PID.TID 0000.0001)                 1.001694994040457E+02,      /* I =116 */
(PID.TID 0000.0001)                 1.030536559951218E+02,      /* I =117 */
(PID.TID 0000.0001)                 1.059227970504726E+02,      /* I =118 */
(PID.TID 0000.0001)                 1.087747129466804E+02,      /* I =119 */
(PID.TID 0000.0001)                 1.116078219372886E+02,      /* I =120 */
(PID.TID 0000.0001)                 1.144212398720734E+02,      /* I =121 */
(PID.TID 0000.0001)                 1.172148273219491E+02,      /* I =122 */
(PID.TID 0000.0001)                 1.199892106181929E+02,      /* I =123 */
(PID.TID 0000.0001)                 1.227457737121432E+02,      /* I =124 */
(PID.TID 0000.0001)                 1.254866185669408E+02,      /* I =125 */
(PID.TID 0000.0001)                 1.282144931178530E+02,      /* I =126 */
(PID.TID 0000.0001)                 1.309326877115635E+02,      /* I =127 */
(PID.TID 0000.0001)                 1.336449032499283E+02,      /* I =128 */
(PID.TID 0000.0001)                 4.500000000000000E+01,      /* I =129 */
(PID.TID 0000.0001)                 4.620805468796297E+01,      /* I =130 */
(PID.TID 0000.0001)                 4.781369642513039E+01,      /* I =131 */
(PID.TID 0000.0001)                 4.971767671143929E+01,      /* I =132 */
(PID.TID 0000.0001)                 5.187738319787235E+01,      /* I =133 */
(PID.TID 0000.0001)                 5.427004371478710E+01,      /* I =134 */
(PID.TID 0000.0001)                 5.688128325334060E+01,      /* I =135 */
(PID.TID 0000.0001)                 5.970018167786760E+01,      /* I =136 */
(PID.TID 0000.0001)                 6.271654991792347E+01,      /* I =137 */
(PID.TID 0000.0001)                 6.591914604853015E+01,      /* I =138 */
(PID.TID 0000.0001)                 6.929439270484148E+01,      /* I =139 */
(PID.TID 0000.0001)                 7.282545807616151E+01,      /* I =140 */
(PID.TID 0000.0001)                 7.649168830618933E+01,      /* I =141 */
(PID.TID 0000.0001)                 8.026842803787176E+01,      /* I =142 */
(PID.TID 0000.0001)                 8.412726743124185E+01,      /* I =143 */
(PID.TID 0000.0001)                 8.803672008547504E+01,      /* I =144 */
(PID.TID 0000.0001)                 9.196327991452496E+01,      /* I =145 */
(PID.TID 0000.0001)                 9.587273256875815E+01,      /* I =146 */
(PID.TID 0000.0001)                 9.973157196212824E+01,      /* I =147 */
(PID.TID 0000.0001)                 1.035083116938107E+02,      /* I =148 */
(PID.TID 0000.0001)                 1.071745419238385E+02,      /* I =149 */
(PID.TID 0000.0001)                 1.107056072951585E+02,      /* I =150 */
(PID.TID 0000.0001)                 1.140808539514698E+02,      /* I =151 */
(PID.TID 0000.0001)                 1.172834500820765E+02,      /* I =152 */
(PID.TID 0000.0001)                 1.202998183221324E+02,      /* I =153 */
(PID.TID 0000.0001)                 1.231187167466594E+02,      /* I =154 */
(PID.TID 0000.0001)                 1.257299562852129E+02,      /* I =155 */
(PID.TID 0000.0001)                 1.281226168021277E+02,      /* I =156 */
(PID.TID 0000.0001)                 1.302823232885607E+02,      /* I =157 */
(PID.TID 0000.0001)                 1.321863035748696E+02,      /* I =158 */
(PID.TID 0000.0001)                 1.337919453120370E+02,      /* I =159 */
(PID.TID 0000.0001)                 1.350000000000000E+02,      /* I =160 */
(PID.TID 0000.0001)                -1.963279914524959E+00,      /* I =161 */
(PID.TID 0000.0001)                -2.071177432469201E+00,      /* I =162 */
(PID.TID 0000.0001)                -2.199828347428434E+00,      /* I =163 */
(PID.TID 0000.0001)                -2.353804611411069E+00,      /* I =164 */
(PID.TID 0000.0001)                -2.539195296987037E+00,      /* I =165 */
(PID.TID 0000.0001)                -2.764351427094884E+00,      /* I =166 */
(PID.TID 0000.0001)                -3.041099877515010E+00,      /* I =167 */
(PID.TID 0000.0001)                -3.386807206248865E+00,      /* I =168 */
(PID.TID 0000.0001)                -3.828077663918957E+00,      /* I =169 */
(PID.TID 0000.0001)                -4.407824753676410E+00,      /* I =170 */
(PID.TID 0000.0001)                -5.199947690700009E+00,      /* I =171 */
(PID.TID 0000.0001)                -6.343204738499006E+00,      /* I =172 */
(PID.TID 0000.0001)                -8.131509858941257E+00,      /* I =173 */
(PID.TID 0000.0001)                -1.131043662441223E+01,      /* I =174 */
(PID.TID 0000.0001)                -1.843505176017388E+01,      /* I =175 */
(PID.TID 0000.0001)                -4.500000000000001E+01,      /* I =176 */
(PID.TID 0000.0001)                -1.350000000000000E+02,      /* I =177 */
(PID.TID 0000.0001)                -1.615649482398261E+02,      /* I =178 */
(PID.TID 0000.0001)                -1.686895633755878E+02,      /* I =179 */
(PID.TID 0000.0001)                -1.718684901410587E+02,      /* I =180 */
(PID.TID 0000.0001)                -1.736567952615010E+02,      /* I =181 */
(PID.TID 0000.0001)                -1.748000523093000E+02,      /* I =182 */
(PID.TID 0000.0001)                -1.755921752463236E+02,      /* I =183 */
(PID.TID 0000.0001)                -1.761719223360811E+02,      /* I =184 */
(PID.TID 0000.0001)                -1.766131927937512E+02,      /* I =185 */
(PID.TID 0000.0001)                -1.769589001224850E+02,      /* I =186 */
(PID.TID 0000.0001)                -1.772356485729051E+02,      /* I =187 */
(PID.TID 0000.0001)                -1.774608047030130E+02,      /* I =188 */
(PID.TID 0000.0001)                -1.776461953885889E+02,      /* I =189 */
(PID.TID 0000.0001)                -1.778001716525716E+02,      /* I =190 */
(PID.TID 0000.0001)                -1.779288225675308E+02,      /* I =191 */
(PID.TID 0000.0001)                -1.780367200854751E+02,      /* I =192 */
(PID.TID 0000.0001)                 1.356047800523947E+02,      /* I =193 */
(PID.TID 0000.0001)                 1.358367907661329E+02,      /* I =194 */
(PID.TID 0000.0001)                 1.359720382181193E+02,      /* I =195 */
(PID.TID 0000.0001)                 1.360654656901789E+02,      /* I =196 */
(PID.TID 0000.0001)                 1.361344533147042E+02,      /* I =197 */
(PID.TID 0000.0001)                 1.361871219420981E+02,      /* I =198 */
(PID.TID 0000.0001)                 1.362280794509603E+02,      /* I =199 */
(PID.TID 0000.0001)                 1.362602511071934E+02,      /* I =200 */
(PID.TID 0000.0001)                 1.362856280326734E+02,      /* I =201 */
(PID.TID 0000.0001)                 1.363056266270901E+02,      /* I =202 */
(PID.TID 0000.0001)                 1.363212817739446E+02,      /* I =203 */
(PID.TID 0000.0001)                 1.363333595910255E+02,      /* I =204 */
(PID.TID 0000.0001)                 1.363424272425760E+02,      /* I =205 */
(PID.TID 0000.0001)                 1.363488978790713E+02,      /* I =206 */
(PID.TID 0000.0001)                 1.363530600590580E+02,      /* I =207 */
(PID.TID 0000.0001)     2 @  1.363550967500717E+02,             /* I =208:209 */
(PID.TID 0000.0001)                 1.363530600590580E+02,      /* I =210 */
(PID.TID 0000.0001)                 1.363488978790713E+02,      /* I =211 */
(PID.TID 0000.0001)                 1.363424272425760E+02,      /* I =212 */
(PID.TID 0000.0001)                 1.363333595910255E+02,      /* I =213 */
(PID.TID 0000.0001)                 1.363212817739446E+02,      /* I =214 */
(PID.TID 0000.0001)                 1.363056266270901E+02,      /* I =215 */
(PID.TID 0000.0001)                 1.362856280326734E+02,      /* I =216 */
(PID.TID 0000.0001)                 1.362602511071934E+02,      /* I =217 */
(PID.TID 0000.0001)                 1.362280794509603E+02,      /* I =218 */
(PID.TID 0000.0001)                 1.361871219420981E+02,      /* I =219 */
(PID.TID 0000.0001)                 1.361344533147042E+02,      /* I =220 */
(PID.TID 0000.0001)                 1.360654656901789E+02,      /* I =221 */
(PID.TID 0000.0001)                 1.359720382181193E+02,      /* I =222 */
(PID.TID 0000.0001)                 1.358367907661329E+02,      /* I =223 */
(PID.TID 0000.0001)                 1.356047800523947E+02,      /* I =224 */
(PID.TID 0000.0001)                -1.781273914869666E+02,      /* I =225 */
(PID.TID 0000.0001)                -1.782036265972133E+02,      /* I =226 */
(PID.TID 0000.0001)                -1.782676810694432E+02,      /* I =227 */
(PID.TID 0000.0001)                -1.783214124948809E+02,      /* I =228 */
(PID.TID 0000.0001)                -1.783663723812381E+02,      /* I =229 */
(PID.TID 0000.0001)                -1.784038689895125E+02,      /* I =230 */
(PID.TID 0000.0001)                -1.784350110143507E+02,      /* I =231 */
(PID.TID 0000.0001)                -1.784607387968721E+02,      /* I =232 */
(PID.TID 0000.0001)                -1.784818474899759E+02,      /* I =233 */
(PID.TID 0000.0001)                -1.784990050063338E+02,      /* I =234 */
(PID.TID 0000.0001)                -1.785127664769845E+02,      /* I =235 */
(PID.TID 0000.0001)                -1.785235862099515E+02,      /* I =236 */
(PID.TID 0000.0001)                -1.785318276688965E+02,      /* I =237 */
(PID.TID 0000.0001)                -1.785377717132608E+02,      /* I =238 */
(PID.TID 0000.0001)                -1.785416231900660E+02,      /* I =239 */
(PID.TID 0000.0001)     2 @ -1.785435158950535E+02,             /* I =240:241 */
(PID.TID 0000.0001)                -1.785416231900660E+02,      /* I =242 */
(PID.TID 0000.0001)                -1.785377717132608E+02,      /* I =243 */
(PID.TID 0000.0001)                -1.785318276688965E+02,      /* I =244 */
(PID.TID 0000.0001)                -1.785235862099515E+02,      /* I =245 */
(PID.TID 0000.0001)                -1.785127664769845E+02,      /* I =246 */
(PID.TID 0000.0001)                -1.784990050063338E+02,      /* I =247 */
(PID.TID 0000.0001)                -1.784818474899759E+02,      /* I =248 */
(PID.TID 0000.0001)                -1.784607387968721E+02,      /* I =249 */
(PID.TID 0000.0001)                -1.784350110143507E+02,      /* I =250 */
(PID.TID 0000.0001)                -1.784038689895125E+02,      /* I =251 */
(PID.TID 0000.0001)                -1.783663723812381E+02,      /* I =252 */
(PID.TID 0000.0001)                -1.783214124948809E+02,      /* I =253 */
(PID.TID 0000.0001)                -1.782676810694432E+02,      /* I =254 */
(PID.TID 0000.0001)                -1.782036265972133E+02,      /* I =255 */
(PID.TID 0000.0001)                -1.781273914869666E+02,      /* I =256 */
(PID.TID 0000.0001)                -1.343952199476053E+02,      /* I =257 */
(PID.TID 0000.0001)                -1.341632092338671E+02,      /* I =258 */
(PID.TID 0000.0001)                -1.340279617818807E+02,      /* I =259 */
(PID.TID 0000.0001)                -1.339345343098211E+02,      /* I =260 */
(PID.TID 0000.0001)                -1.338655466852958E+02,      /* I =261 */
(PID.TID 0000.0001)                -1.338128780579019E+02,      /* I =262 */
(PID.TID 0000.0001)                -1.337719205490397E+02,      /* I =263 */
(PID.TID 0000.0001)                -1.337397488928066E+02,      /* I =264 */
(PID.TID 0000.0001)                -1.337143719673266E+02,      /* I =265 */
(PID.TID 0000.0001)                -1.336943733729099E+02,      /* I =266 */
(PID.TID 0000.0001)                -1.336787182260554E+02,      /* I =267 */
(PID.TID 0000.0001)                -1.336666404089745E+02,      /* I =268 */
(PID.TID 0000.0001)                -1.336575727574240E+02,      /* I =269 */
(PID.TID 0000.0001)                -1.336511021209287E+02,      /* I =270 */
(PID.TID 0000.0001)                -1.336469399409420E+02,      /* I =271 */
(PID.TID 0000.0001)     2 @ -1.336449032499283E+02,             /* I =272:273 */
(PID.TID 0000.0001)                -1.336469399409420E+02,      /* I =274 */
(PID.TID 0000.0001)                -1.336511021209287E+02,      /* I =275 */
(PID.TID 0000.0001)                -1.336575727574240E+02,      /* I =276 */
(PID.TID 0000.0001)                -1.336666404089745E+02,      /* I =277 */
(PID.TID 0000.0001)                -1.336787182260554E+02,      /* I =278 */
(PID.TID 0000.0001)                -1.336943733729099E+02,      /* I =279 */
(PID.TID 0000.0001)                -1.337143719673266E+02,      /* I =280 */
(PID.TID 0000.0001)                -1.337397488928066E+02,      /* I =281 */
(PID.TID 0000.0001)                -1.337719205490397E+02,      /* I =282 */
(PID.TID 0000.0001)                -1.338128780579019E+02,      /* I =283 */
(PID.TID 0000.0001)                -1.338655466852958E+02,      /* I =284 */
(PID.TID 0000.0001)                -1.339345343098211E+02,      /* I =285 */
(PID.TID 0000.0001)                -1.340279617818807E+02,      /* I =286 */
(PID.TID 0000.0001)                -1.341632092338671E+02,      /* I =287 */
(PID.TID 0000.0001)                -1.343952199476053E+02,      /* I =288 */
(PID.TID 0000.0001)                -8.812739148696656E+01,      /* I =289 */
(PID.TID 0000.0001)                -8.820362659721324E+01,      /* I =290 */
(PID.TID 0000.0001)                -8.826768106944316E+01,      /* I =291 */
(PID.TID 0000.0001)                -8.832141249488093E+01,      /* I =292 */
(PID.TID 0000.0001)                -8.836637238123808E+01,      /* I =293 */
(PID.TID 0000.0001)                -8.840386898951252E+01,      /* I =294 */
(PID.TID 0000.0001)                -8.843501101435068E+01,      /* I =295 */
(PID.TID 0000.0001)                -8.846073879687214E+01,      /* I =296 */
(PID.TID 0000.0001)                -8.848184748997595E+01,      /* I =297 */
(PID.TID 0000.0001)                -8.849900500633379E+01,      /* I =298 */
(PID.TID 0000.0001)                -8.851276647698448E+01,      /* I =299 */
(PID.TID 0000.0001)                -8.852358620995153E+01,      /* I =300 */
(PID.TID 0000.0001)                -8.853182766889645E+01,      /* I =301 */
(PID.TID 0000.0001)                -8.853777171326072E+01,      /* I =302 */
(PID.TID 0000.0001)                -8.854162319006606E+01,      /* I =303 */
(PID.TID 0000.0001)     2 @ -8.854351589505353E+01,             /* I =304:305 */
(PID.TID 0000.0001)                -8.854162319006606E+01,      /* I =306 */
(PID.TID 0000.0001)                -8.853777171326072E+01,      /* I =307 */
(PID.TID 0000.0001)                -8.853182766889645E+01,      /* I =308 */
(PID.TID 0000.0001)                -8.852358620995153E+01,      /* I =309 */
(PID.TID 0000.0001)                -8.851276647698448E+01,      /* I =310 */
(PID.TID 0000.0001)                -8.849900500633379E+01,      /* I =311 */
(PID.TID 0000.0001)                -8.848184748997595E+01,      /* I =312 */
(PID.TID 0000.0001)                -8.846073879687214E+01,      /* I =313 */
(PID.TID 0000.0001)                -8.843501101435068E+01,      /* I =314 */
(PID.TID 0000.0001)                -8.840386898951252E+01,      /* I =315 */
(PID.TID 0000.0001)                -8.836637238123808E+01,      /* I =316 */
(PID.TID 0000.0001)                -8.832141249488093E+01,      /* I =317 */
(PID.TID 0000.0001)                -8.826768106944316E+01,      /* I =318 */
(PID.TID 0000.0001)                -8.820362659721324E+01,      /* I =319 */
(PID.TID 0000.0001)                -8.812739148696656E+01,      /* I =320 */
(PID.TID 0000.0001)                -1.350000000000000E+02,      /* I =321 */
(PID.TID 0000.0001)                -1.362080546879630E+02,      /* I =322 */
(PID.TID 0000.0001)                -1.378136964251304E+02,      /* I =323 */
(PID.TID 0000.0001)                -1.397176767114393E+02,      /* I =324 */
(PID.TID 0000.0001)                -1.418773831978723E+02,      /* I =325 */
(PID.TID 0000.0001)                -1.442700437147871E+02,      /* I =326 */
(PID.TID 0000.0001)                -1.468812832533406E+02,      /* I =327 */
(PID.TID 0000.0001)                -1.497001816778676E+02,      /* I =328 */
(PID.TID 0000.0001)                -1.527165499179235E+02,      /* I =329 */
(PID.TID 0000.0001)                -1.559191460485302E+02,      /* I =330 */
(PID.TID 0000.0001)                -1.592943927048415E+02,      /* I =331 */
(PID.TID 0000.0001)                -1.628254580761615E+02,      /* I =332 */
(PID.TID 0000.0001)                -1.664916883061893E+02,      /* I =333 */
(PID.TID 0000.0001)                -1.702684280378718E+02,      /* I =334 */
(PID.TID 0000.0001)                -1.741272674312418E+02,      /* I =335 */
(PID.TID 0000.0001)                -1.780367200854751E+02,      /* I =336 */
(PID.TID 0000.0001)                 1.780367200854751E+02,      /* I =337 */
(PID.TID 0000.0001)                 1.741272674312418E+02,      /* I =338 */
(PID.TID 0000.0001)                 1.702684280378718E+02,      /* I =339 */
(PID.TID 0000.0001)                 1.664916883061893E+02,      /* I =340 */
(PID.TID 0000.0001)                 1.628254580761615E+02,      /* I =341 */
(PID.TID 0000.0001)                 1.592943927048415E+02,      /* I =342 */
(PID.TID 0000.0001)                 1.559191460485302E+02,      /* I =343 */
(PID.TID 0000.0001)                 1.527165499179235E+02,      /* I =344 */
(PID.TID 0000.0001)                 1.497001816778676E+02,      /* I =345 */
(PID.TID 0000.0001)                 1.468812832533406E+02,      /* I =346 */
(PID.TID 0000.0001)                 1.442700437147871E+02,      /* I =347 */
(PID.TID 0000.0001)                 1.418773831978723E+02,      /* I =348 */
(PID.TID 0000.0001)                 1.397176767114393E+02,      /* I =349 */
(PID.TID 0000.0001)                 1.378136964251304E+02,      /* I =350 */
(PID.TID 0000.0001)                 1.362080546879630E+02,      /* I =351 */
(PID.TID 0000.0001)                 1.350000000000000E+02,      /* I =352 */
(PID.TID 0000.0001)                -8.803672008547504E+01,      /* I =353 */
(PID.TID 0000.0001)                -8.792882256753080E+01,      /* I =354 */
(PID.TID 0000.0001)                -8.780017165257156E+01,      /* I =355 */
(PID.TID 0000.0001)                -8.764619538858894E+01,      /* I =356 */
(PID.TID 0000.0001)                -8.746080470301297E+01,      /* I =357 */
(PID.TID 0000.0001)                -8.723564857290512E+01,      /* I =358 */
(PID.TID 0000.0001)                -8.695890012248499E+01,      /* I =359 */
(PID.TID 0000.0001)                -8.661319279375114E+01,      /* I =360 */
(PID.TID 0000.0001)                -8.617192233608105E+01,      /* I =361 */
(PID.TID 0000.0001)                -8.559217524632359E+01,      /* I =362 */
(PID.TID 0000.0001)                -8.480005230930000E+01,      /* I =363 */
(PID.TID 0000.0001)                -8.365679526150099E+01,      /* I =364 */
(PID.TID 0000.0001)                -8.186849014105876E+01,      /* I =365 */
(PID.TID 0000.0001)                -7.868956337558778E+01,      /* I =366 */
(PID.TID 0000.0001)                -7.156494823982612E+01,      /* I =367 */
(PID.TID 0000.0001)                -4.500000000000000E+01,      /* I =368 */
(PID.TID 0000.0001)                 4.500000000000000E+01,      /* I =369 */
(PID.TID 0000.0001)                 7.156494823982612E+01,      /* I =370 */
(PID.TID 0000.0001)                 7.868956337558778E+01,      /* I =371 */
(PID.TID 0000.0001)                 8.186849014105876E+01,      /* I =372 */
(PID.TID 0000.0001)                 8.365679526150099E+01,      /* I =373 */
(PID.TID 0000.0001)                 8.480005230930000E+01,      /* I =374 */
(PID.TID 0000.0001)                 8.559217524632359E+01,      /* I =375 */
(PID.TID 0000.0001)                 8.617192233608105E+01,      /* I =376 */
(PID.TID 0000.0001)                 8.661319279375114E+01,      /* I =377 */
(PID.TID 0000.0001)                 8.695890012248499E+01,      /* I =378 */
(PID.TID 0000.0001)                 8.723564857290512E+01,      /* I =379 */
(PID.TID 0000.0001)                 8.746080470301297E+01,      /* I =380 */
(PID.TID 0000.0001)                 8.764619538858894E+01,      /* I =381 */
(PID.TID 0000.0001)                 8.780017165257156E+01,      /* I =382 */
(PID.TID 0000.0001)                 8.792882256753080E+01,      /* I =383 */
(PID.TID 0000.0001)                 8.803672008547504E+01       /* I =384 */
(PID.TID 0000.0001)     ;
(PID.TID 0000.0001) ycoord =   /* P-point Y coord ( m - cartesian, degrees - spherical ) */
(PID.TID 0000.0001)                -3.497677942598243E+01,      /* J =  1 */
(PID.TID 0000.0001)                -3.374005967394886E+01,      /* J =  2 */
(PID.TID 0000.0001)                -3.220655175667454E+01,      /* J =  3 */
(PID.TID 0000.0001)                -3.045756348838641E+01,      /* J =  4 */
(PID.TID 0000.0001)                -2.853728129852918E+01,      /* J =  5 */
(PID.TID 0000.0001)                -2.647426640173173E+01,      /* J =  6 */
(PID.TID 0000.0001)                -2.428936657094636E+01,      /* J =  7 */
(PID.TID 0000.0001)                -2.199915808312262E+01,      /* J =  8 */
(PID.TID 0000.0001)                -1.961768597440146E+01,      /* J =  9 */
(PID.TID 0000.0001)                -1.715743888281371E+01,      /* J = 10 */
(PID.TID 0000.0001)                -1.462993396899330E+01,      /* J = 11 */
(PID.TID 0000.0001)                -1.204608340464756E+01,      /* J = 12 */
(PID.TID 0000.0001)                -9.416429130284818E+00,      /* J = 13 */
(PID.TID 0000.0001)                -6.751293662992216E+00,      /* J = 14 */
(PID.TID 0000.0001)                -4.060875511835959E+00,      /* J = 15 */
(PID.TID 0000.0001)                -1.355307764409121E+00       /* J = 16 */
(PID.TID 0000.0001)     ;
(PID.TID 0000.0001) rcoord =   /* P-point R coordinate (  units of r ) */
(PID.TID 0000.0001)                -2.500000000000000E+01,      /* K =  1 */
(PID.TID 0000.0001)                -8.500000000000000E+01,      /* K =  2 */
(PID.TID 0000.0001)                -1.700000000000000E+02,      /* K =  3 */
(PID.TID 0000.0001)                -2.900000000000000E+02,      /* K =  4 */
(PID.TID 0000.0001)                -4.550000000000000E+02,      /* K =  5 */
(PID.TID 0000.0001)                -6.700000000000000E+02,      /* K =  6 */
(PID.TID 0000.0001)                -9.350000000000000E+02,      /* K =  7 */
(PID.TID 0000.0001)                -1.250000000000000E+03,      /* K =  8 */
(PID.TID 0000.0001)                -1.615000000000000E+03,      /* K =  9 */
(PID.TID 0000.0001)                -2.030000000000000E+03,      /* K = 10 */
(PID.TID 0000.0001)                -2.495000000000000E+03,      /* K = 11 */
(PID.TID 0000.0001)                -3.010000000000000E+03,      /* K = 12 */
(PID.TID 0000.0001)                -3.575000000000000E+03,      /* K = 13 */
(PID.TID 0000.0001)                -4.190000000000000E+03,      /* K = 14 */
(PID.TID 0000.0001)                -4.855000000000000E+03       /* K = 15 */
(PID.TID 0000.0001)     ;
(PID.TID 0000.0001) rF =   /* W-Interf. R coordinate (  units of r ) */
(PID.TID 0000.0001)                 0.000000000000000E+00,      /* K =  1 */
(PID.TID 0000.0001)                -5.000000000000000E+01,      /* K =  2 */
(PID.TID 0000.0001)                -1.200000000000000E+02,      /* K =  3 */
(PID.TID 0000.0001)                -2.200000000000000E+02,      /* K =  4 */
(PID.TID 0000.0001)                -3.600000000000000E+02,      /* K =  5 */
(PID.TID 0000.0001)                -5.500000000000000E+02,      /* K =  6 */
(PID.TID 0000.0001)                -7.900000000000000E+02,      /* K =  7 */
(PID.TID 0000.0001)                -1.080000000000000E+03,      /* K =  8 */
(PID.TID 0000.0001)                -1.420000000000000E+03,      /* K =  9 */
(PID.TID 0000.0001)                -1.810000000000000E+03,      /* K = 10 */
(PID.TID 0000.0001)                -2.250000000000000E+03,      /* K = 11 */
(PID.TID 0000.0001)                -2.740000000000000E+03,      /* K = 12 */
(PID.TID 0000.0001)                -3.280000000000000E+03,      /* K = 13 */
(PID.TID 0000.0001)                -3.870000000000000E+03,      /* K = 14 */
(PID.TID 0000.0001)                -4.510000000000000E+03,      /* K = 15 */
(PID.TID 0000.0001)                -5.200000000000000E+03       /* K = 16 */
(PID.TID 0000.0001)     ;
(PID.TID 0000.0001) dxF =  /* dxF(:,1,:,1) ( m - cartesian, degrees - spherical ) */
(PID.TID 0000.0001)                 1.202082051331828E+05,      /* I =  1 */
(PID.TID 0000.0001)                 1.563594089971120E+05,      /* I =  2 */
(PID.TID 0000.0001)                 1.835530058121492E+05,      /* I =  3 */
(PID.TID 0000.0001)                 2.045883481718707E+05,      /* I =  4 */
(PID.TID 0000.0001)                 2.218350349844185E+05,      /* I =  5 */
(PID.TID 0000.0001)                 2.364352994647058E+05,      /* I =  6 */
(PID.TID 0000.0001)                 2.490022710862746E+05,      /* I =  7 */
(PID.TID 0000.0001)                 2.598919724358304E+05,      /* I =  8 */
(PID.TID 0000.0001)                 2.693210245495156E+05,      /* I =  9 */
(PID.TID 0000.0001)                 2.774243179696503E+05,      /* I = 10 */
(PID.TID 0000.0001)                 2.842862532064524E+05,      /* I = 11 */
(PID.TID 0000.0001)                 2.899590699694043E+05,      /* I = 12 */
(PID.TID 0000.0001)                 2.944742915095688E+05,      /* I = 13 */
(PID.TID 0000.0001)                 2.978501920522794E+05,      /* I = 14 */
(PID.TID 0000.0001)                 3.000967749619962E+05,      /* I = 15 */
(PID.TID 0000.0001)     2 @  3.012190981969055E+05,             /* I = 16: 17 */
(PID.TID 0000.0001)                 3.000967749619962E+05,      /* I = 18 */
(PID.TID 0000.0001)                 2.978501920522794E+05,      /* I = 19 */
(PID.TID 0000.0001)                 2.944742915095688E+05,      /* I = 20 */
(PID.TID 0000.0001)                 2.899590699694043E+05,      /* I = 21 */
(PID.TID 0000.0001)                 2.842862532064524E+05,      /* I = 22 */
(PID.TID 0000.0001)                 2.774243179696503E+05,      /* I = 23 */
(PID.TID 0000.0001)                 2.693210245495156E+05,      /* I = 24 */
(PID.TID 0000.0001)                 2.598919724358304E+05,      /* I = 25 */
(PID.TID 0000.0001)                 2.490022710862746E+05,      /* I = 26 */
(PID.TID 0000.0001)                 2.364352994647058E+05,      /* I = 27 */
(PID.TID 0000.0001)                 2.218350349844185E+05,      /* I = 28 */
(PID.TID 0000.0001)                 2.045883481718707E+05,      /* I = 29 */
(PID.TID 0000.0001)                 1.835530058121492E+05,      /* I = 30 */
(PID.TID 0000.0001)                 1.563594089971120E+05,      /* I = 31 */
(PID.TID 0000.0001)                 1.202082051331828E+05,      /* I = 32 */
(PID.TID 0000.0001)                 3.012844832048790E+05,      /* I = 33 */
(PID.TID 0000.0001)                 3.017314519159184E+05,      /* I = 34 */
(PID.TID 0000.0001)                 3.026061571839506E+05,      /* I = 35 */
(PID.TID 0000.0001)                 3.038712499122208E+05,      /* I = 36 */
(PID.TID 0000.0001)                 3.054733694195115E+05,      /* I = 37 */
(PID.TID 0000.0001)                 3.073460170047538E+05,      /* I = 38 */
(PID.TID 0000.0001)                 3.094129252024922E+05,      /* I = 39 */
(PID.TID 0000.0001)                 3.115916488673079E+05,      /* I = 40 */
(PID.TID 0000.0001)                 3.137971415338805E+05,      /* I = 41 */
(PID.TID 0000.0001)                 3.159451387866950E+05,      /* I = 42 */
(PID.TID 0000.0001)                 3.179552321069062E+05,      /* I = 43 */
(PID.TID 0000.0001)                 3.197535693737994E+05,      /* I = 44 */
(PID.TID 0000.0001)                 3.212751560265627E+05,      /* I = 45 */
(PID.TID 0000.0001)                 3.224657535572011E+05,      /* I = 46 */
(PID.TID 0000.0001)                 3.232833825614068E+05,      /* I = 47 */
(PID.TID 0000.0001)     2 @  3.236994750082736E+05,             /* I = 48: 49 */
(PID.TID 0000.0001)                 3.232833825614068E+05,      /* I = 50 */
(PID.TID 0000.0001)                 3.224657535572011E+05,      /* I = 51 */
(PID.TID 0000.0001)                 3.212751560265627E+05,      /* I = 52 */
(PID.TID 0000.0001)                 3.197535693737994E+05,      /* I = 53 */
(PID.TID 0000.0001)                 3.179552321069062E+05,      /* I = 54 */
(PID.TID 0000.0001)                 3.159451387866950E+05,      /* I = 55 */
(PID.TID 0000.0001)                 3.137971415338805E+05,      /* I = 56 */
(PID.TID 0000.0001)                 3.115916488673079E+05,      /* I = 57 */
(PID.TID 0000.0001)                 3.094129252024922E+05,      /* I = 58 */
(PID.TID 0000.0001)                 3.073460170047538E+05,      /* I = 59 */
(PID.TID 0000.0001)                 3.054733694195115E+05,      /* I = 60 */
(PID.TID 0000.0001)                 3.038712499122208E+05,      /* I = 61 */
(PID.TID 0000.0001)                 3.026061571839506E+05,      /* I = 62 */
(PID.TID 0000.0001)                 3.017314519159184E+05,      /* I = 63 */
(PID.TID 0000.0001)                 3.012844832048790E+05,      /* I = 64 */
(PID.TID 0000.0001)                 1.202082051331828E+05,      /* I = 65 */
(PID.TID 0000.0001)                 1.563594089971120E+05,      /* I = 66 */
(PID.TID 0000.0001)                 1.835530058121492E+05,      /* I = 67 */
(PID.TID 0000.0001)                 2.045883481718707E+05,      /* I = 68 */
(PID.TID 0000.0001)                 2.218350349844185E+05,      /* I = 69 */
(PID.TID 0000.0001)                 2.364352994647058E+05,      /* I = 70 */
(PID.TID 0000.0001)                 2.490022710862746E+05,      /* I = 71 */
(PID.TID 0000.0001)                 2.598919724358304E+05,      /* I = 72 */
(PID.TID 0000.0001)                 2.693210245495156E+05,      /* I = 73 */
(PID.TID 0000.0001)                 2.774243179696503E+05,      /* I = 74 */
(PID.TID 0000.0001)                 2.842862532064524E+05,      /* I = 75 */
(PID.TID 0000.0001)                 2.899590699694043E+05,      /* I = 76 */
(PID.TID 0000.0001)                 2.944742915095688E+05,      /* I = 77 */
(PID.TID 0000.0001)                 2.978501920522794E+05,      /* I = 78 */
(PID.TID 0000.0001)                 3.000967749619962E+05,      /* I = 79 */
(PID.TID 0000.0001)     2 @  3.012190981969055E+05,             /* I = 80: 81 */
(PID.TID 0000.0001)                 3.000967749619962E+05,      /* I = 82 */
(PID.TID 0000.0001)                 2.978501920522794E+05,      /* I = 83 */
(PID.TID 0000.0001)                 2.944742915095688E+05,      /* I = 84 */
(PID.TID 0000.0001)                 2.899590699694043E+05,      /* I = 85 */
(PID.TID 0000.0001)                 2.842862532064524E+05,      /* I = 86 */
(PID.TID 0000.0001)                 2.774243179696503E+05,      /* I = 87 */
(PID.TID 0000.0001)                 2.693210245495156E+05,      /* I = 88 */
(PID.TID 0000.0001)                 2.598919724358304E+05,      /* I = 89 */
(PID.TID 0000.0001)                 2.490022710862746E+05,      /* I = 90 */
(PID.TID 0000.0001)                 2.364352994647058E+05,      /* I = 91 */
(PID.TID 0000.0001)                 2.218350349844185E+05,      /* I = 92 */
(PID.TID 0000.0001)                 2.045883481718707E+05,      /* I = 93 */
(PID.TID 0000.0001)                 1.835530058121492E+05,      /* I = 94 */
(PID.TID 0000.0001)                 1.563594089971120E+05,      /* I = 95 */
(PID.TID 0000.0001)                 1.202082051331828E+05,      /* I = 96 */
(PID.TID 0000.0001)                 3.012844832048790E+05,      /* I = 97 */
(PID.TID 0000.0001)                 3.017314519159184E+05,      /* I = 98 */
(PID.TID 0000.0001)                 3.026061571839506E+05,      /* I = 99 */
(PID.TID 0000.0001)                 3.038712499122208E+05,      /* I =100 */
(PID.TID 0000.0001)                 3.054733694195115E+05,      /* I =101 */
(PID.TID 0000.0001)                 3.073460170047538E+05,      /* I =102 */
(PID.TID 0000.0001)                 3.094129252024922E+05,      /* I =103 */
(PID.TID 0000.0001)                 3.115916488673079E+05,      /* I =104 */
(PID.TID 0000.0001)                 3.137971415338805E+05,      /* I =105 */
(PID.TID 0000.0001)                 3.159451387866950E+05,      /* I =106 */
(PID.TID 0000.0001)                 3.179552321069062E+05,      /* I =107 */
(PID.TID 0000.0001)                 3.197535693737994E+05,      /* I =108 */
(PID.TID 0000.0001)                 3.212751560265627E+05,      /* I =109 */
(PID.TID 0000.0001)                 3.224657535572011E+05,      /* I =110 */
(PID.TID 0000.0001)                 3.232833825614068E+05,      /* I =111 */
(PID.TID 0000.0001)     2 @  3.236994750082736E+05,             /* I =112:113 */
(PID.TID 0000.0001)                 3.232833825614068E+05,      /* I =114 */
(PID.TID 0000.0001)                 3.224657535572011E+05,      /* I =115 */
(PID.TID 0000.0001)                 3.212751560265627E+05,      /* I =116 */
(PID.TID 0000.0001)                 3.197535693737994E+05,      /* I =117 */
(PID.TID 0000.0001)                 3.179552321069062E+05,      /* I =118 */
(PID.TID 0000.0001)                 3.159451387866950E+05,      /* I =119 */
(PID.TID 0000.0001)                 3.137971415338805E+05,      /* I =120 */
(PID.TID 0000.0001)                 3.115916488673079E+05,      /* I =121 */
(PID.TID 0000.0001)                 3.094129252024922E+05,      /* I =122 */
(PID.TID 0000.0001)                 3.073460170047538E+05,      /* I =123 */
(PID.TID 0000.0001)                 3.054733694195115E+05,      /* I =124 */
(PID.TID 0000.0001)                 3.038712499122208E+05,      /* I =125 */
(PID.TID 0000.0001)                 3.026061571839506E+05,      /* I =126 */
(PID.TID 0000.0001)                 3.017314519159184E+05,      /* I =127 */
(PID.TID 0000.0001)                 3.012844832048790E+05,      /* I =128 */
(PID.TID 0000.0001)                 1.202082051331828E+05,      /* I =129 */
(PID.TID 0000.0001)                 1.563594089971120E+05,      /* I =130 */
(PID.TID 0000.0001)                 1.835530058121492E+05,      /* I =131 */
(PID.TID 0000.0001)                 2.045883481718707E+05,      /* I =132 */
(PID.TID 0000.0001)                 2.218350349844185E+05,      /* I =133 */
(PID.TID 0000.0001)                 2.364352994647058E+05,      /* I =134 */
(PID.TID 0000.0001)                 2.490022710862746E+05,      /* I =135 */
(PID.TID 0000.0001)                 2.598919724358304E+05,      /* I =136 */
(PID.TID 0000.0001)                 2.693210245495156E+05,      /* I =137 */
(PID.TID 0000.0001)                 2.774243179696503E+05,      /* I =138 */
(PID.TID 0000.0001)                 2.842862532064524E+05,      /* I =139 */
(PID.TID 0000.0001)                 2.899590699694043E+05,      /* I =140 */
(PID.TID 0000.0001)                 2.944742915095688E+05,      /* I =141 */
(PID.TID 0000.0001)                 2.978501920522794E+05,      /* I =142 */
(PID.TID 0000.0001)                 3.000967749619962E+05,      /* I =143 */
(PID.TID 0000.0001)     2 @  3.012190981969055E+05,             /* I =144:145 */
(PID.TID 0000.0001)                 3.000967749619962E+05,      /* I =146 */
(PID.TID 0000.0001)                 2.978501920522794E+05,      /* I =147 */
(PID.TID 0000.0001)                 2.944742915095688E+05,      /* I =148 */
(PID.TID 0000.0001)                 2.899590699694043E+05,      /* I =149 */
(PID.TID 0000.0001)                 2.842862532064524E+05,      /* I =150 */
(PID.TID 0000.0001)                 2.774243179696503E+05,      /* I =151 */
(PID.TID 0000.0001)                 2.693210245495156E+05,      /* I =152 */
(PID.TID 0000.0001)                 2.598919724358304E+05,      /* I =153 */
(PID.TID 0000.0001)                 2.490022710862746E+05,      /* I =154 */
(PID.TID 0000.0001)                 2.364352994647058E+05,      /* I =155 */
(PID.TID 0000.0001)                 2.218350349844185E+05,      /* I =156 */
(PID.TID 0000.0001)                 2.045883481718707E+05,      /* I =157 */
(PID.TID 0000.0001)                 1.835530058121492E+05,      /* I =158 */
(PID.TID 0000.0001)                 1.563594089971120E+05,      /* I =159 */
(PID.TID 0000.0001)                 1.202082051331828E+05,      /* I =160 */
(PID.TID 0000.0001)                 3.012844832048790E+05,      /* I =161 */
(PID.TID 0000.0001)                 3.017314519159184E+05,      /* I =162 */
(PID.TID 0000.0001)                 3.026061571839506E+05,      /* I =163 */
(PID.TID 0000.0001)                 3.038712499122208E+05,      /* I =164 */
(PID.TID 0000.0001)                 3.054733694195115E+05,      /* I =165 */
(PID.TID 0000.0001)                 3.073460170047538E+05,      /* I =166 */
(PID.TID 0000.0001)                 3.094129252024922E+05,      /* I =167 */
(PID.TID 0000.0001)                 3.115916488673079E+05,      /* I =168 */
(PID.TID 0000.0001)                 3.137971415338805E+05,      /* I =169 */
(PID.TID 0000.0001)                 3.159451387866950E+05,      /* I =170 */
(PID.TID 0000.0001)                 3.179552321069062E+05,      /* I =171 */
(PID.TID 0000.0001)                 3.197535693737994E+05,      /* I =172 */
(PID.TID 0000.0001)                 3.212751560265627E+05,      /* I =173 */
(PID.TID 0000.0001)                 3.224657535572011E+05,      /* I =174 */
(PID.TID 0000.0001)                 3.232833825614068E+05,      /* I =175 */
(PID.TID 0000.0001)     2 @  3.236994750082736E+05,             /* I =176:177 */
(PID.TID 0000.0001)                 3.232833825614068E+05,      /* I =178 */
(PID.TID 0000.0001)                 3.224657535572011E+05,      /* I =179 */
(PID.TID 0000.0001)                 3.212751560265627E+05,      /* I =180 */
(PID.TID 0000.0001)                 3.197535693737994E+05,      /* I =181 */
(PID.TID 0000.0001)                 3.179552321069062E+05,      /* I =182 */
(PID.TID 0000.0001)                 3.159451387866950E+05,      /* I =183 */
(PID.TID 0000.0001)                 3.137971415338805E+05,      /* I =184 */
(PID.TID 0000.0001)                 3.115916488673079E+05,      /* I =185 */
(PID.TID 0000.0001)                 3.094129252024922E+05,      /* I =186 */
(PID.TID 0000.0001)                 3.073460170047538E+05,      /* I =187 */
(PID.TID 0000.0001)                 3.054733694195115E+05,      /* I =188 */
(PID.TID 0000.0001)                 3.038712499122208E+05,      /* I =189 */
(PID.TID 0000.0001)                 3.026061571839506E+05,      /* I =190 */
(PID.TID 0000.0001)                 3.017314519159184E+05,      /* I =191 */
(PID.TID 0000.0001)                 3.012844832048790E+05,      /* I =192 */
(PID.TID 0000.0001)                 1.202082051331828E+05,      /* I =193 */
(PID.TID 0000.0001)                 1.563594089971120E+05,      /* I =194 */
(PID.TID 0000.0001)                 1.835530058121492E+05,      /* I =195 */
(PID.TID 0000.0001)                 2.045883481718707E+05,      /* I =196 */
(PID.TID 0000.0001)                 2.218350349844185E+05,      /* I =197 */
(PID.TID 0000.0001)                 2.364352994647058E+05,      /* I =198 */
(PID.TID 0000.0001)                 2.490022710862746E+05,      /* I =199 */
(PID.TID 0000.0001)                 2.598919724358304E+05,      /* I =200 */
(PID.TID 0000.0001)                 2.693210245495156E+05,      /* I =201 */
(PID.TID 0000.0001)                 2.774243179696503E+05,      /* I =202 */
(PID.TID 0000.0001)                 2.842862532064524E+05,      /* I =203 */
(PID.TID 0000.0001)                 2.899590699694043E+05,      /* I =204 */
(PID.TID 0000.0001)                 2.944742915095688E+05,      /* I =205 */
(PID.TID 0000.0001)                 2.978501920522794E+05,      /* I =206 */
(PID.TID 0000.0001)                 3.000967749619962E+05,      /* I =207 */
(PID.TID 0000.0001)     2 @  3.012190981969055E+05,             /* I =208:209 */
(PID.TID 0000.0001)                 3.000967749619962E+05,      /* I =210 */
(PID.TID 0000.0001)                 2.978501920522794E+05,      /* I =211 */
(PID.TID 0000.0001)                 2.944742915095688E+05,      /* I =212 */
(PID.TID 0000.0001)                 2.899590699694043E+05,      /* I =213 */
(PID.TID 0000.0001)                 2.842862532064524E+05,      /* I =214 */
(PID.TID 0000.0001)                 2.774243179696503E+05,      /* I =215 */
(PID.TID 0000.0001)                 2.693210245495156E+05,      /* I =216 */
(PID.TID 0000.0001)                 2.598919724358304E+05,      /* I =217 */
(PID.TID 0000.0001)                 2.490022710862746E+05,      /* I =218 */
(PID.TID 0000.0001)                 2.364352994647058E+05,      /* I =219 */
(PID.TID 0000.0001)                 2.218350349844185E+05,      /* I =220 */
(PID.TID 0000.0001)                 2.045883481718707E+05,      /* I =221 */
(PID.TID 0000.0001)                 1.835530058121492E+05,      /* I =222 */
(PID.TID 0000.0001)                 1.563594089971120E+05,      /* I =223 */
(PID.TID 0000.0001)                 1.202082051331828E+05,      /* I =224 */
(PID.TID 0000.0001)                 3.012844832048790E+05,      /* I =225 */
(PID.TID 0000.0001)                 3.017314519159184E+05,      /* I =226 */
(PID.TID 0000.0001)                 3.026061571839506E+05,      /* I =227 */
(PID.TID 0000.0001)                 3.038712499122208E+05,      /* I =228 */
(PID.TID 0000.0001)                 3.054733694195115E+05,      /* I =229 */
(PID.TID 0000.0001)                 3.073460170047538E+05,      /* I =230 */
(PID.TID 0000.0001)                 3.094129252024922E+05,      /* I =231 */
(PID.TID 0000.0001)                 3.115916488673079E+05,      /* I =232 */
(PID.TID 0000.0001)                 3.137971415338805E+05,      /* I =233 */
(PID.TID 0000.0001)                 3.159451387866950E+05,      /* I =234 */
(PID.TID 0000.0001)                 3.179552321069062E+05,      /* I =235 */
(PID.TID 0000.0001)                 3.197535693737994E+05,      /* I =236 */
(PID.TID 0000.0001)                 3.212751560265627E+05,      /* I =237 */
(PID.TID 0000.0001)                 3.224657535572011E+05,      /* I =238 */
(PID.TID 0000.0001)                 3.232833825614068E+05,      /* I =239 */
(PID.TID 0000.0001)     2 @  3.236994750082736E+05,             /* I =240:241 */
(PID.TID 0000.0001)                 3.232833825614068E+05,      /* I =242 */
(PID.TID 0000.0001)                 3.224657535572011E+05,      /* I =243 */
(PID.TID 0000.0001)                 3.212751560265627E+05,      /* I =244 */
(PID.TID 0000.0001)                 3.197535693737994E+05,      /* I =245 */
(PID.TID 0000.0001)                 3.179552321069062E+05,      /* I =246 */
(PID.TID 0000.0001)                 3.159451387866950E+05,      /* I =247 */
(PID.TID 0000.0001)                 3.137971415338805E+05,      /* I =248 */
(PID.TID 0000.0001)                 3.115916488673079E+05,      /* I =249 */
(PID.TID 0000.0001)                 3.094129252024922E+05,      /* I =250 */
(PID.TID 0000.0001)                 3.073460170047538E+05,      /* I =251 */
(PID.TID 0000.0001)                 3.054733694195115E+05,      /* I =252 */
(PID.TID 0000.0001)                 3.038712499122208E+05,      /* I =253 */
(PID.TID 0000.0001)                 3.026061571839506E+05,      /* I =254 */
(PID.TID 0000.0001)                 3.017314519159184E+05,      /* I =255 */
(PID.TID 0000.0001)                 3.012844832048790E+05,      /* I =256 */
(PID.TID 0000.0001)                 1.202082051331828E+05,      /* I =257 */
(PID.TID 0000.0001)                 1.563594089971120E+05,      /* I =258 */
(PID.TID 0000.0001)                 1.835530058121492E+05,      /* I =259 */
(PID.TID 0000.0001)                 2.045883481718707E+05,      /* I =260 */
(PID.TID 0000.0001)                 2.218350349844185E+05,      /* I =261 */
(PID.TID 0000.0001)                 2.364352994647058E+05,      /* I =262 */
(PID.TID 0000.0001)                 2.490022710862746E+05,      /* I =263 */
(PID.TID 0000.0001)                 2.598919724358304E+05,      /* I =264 */
(PID.TID 0000.0001)                 2.693210245495156E+05,      /* I =265 */
(PID.TID 0000.0001)                 2.774243179696503E+05,      /* I =266 */
(PID.TID 0000.0001)                 2.842862532064524E+05,      /* I =267 */
(PID.TID 0000.0001)                 2.899590699694043E+05,      /* I =268 */
(PID.TID 0000.0001)                 2.944742915095688E+05,      /* I =269 */
(PID.TID 0000.0001)                 2.978501920522794E+05,      /* I =270 */
(PID.TID 0000.0001)                 3.000967749619962E+05,      /* I =271 */
(PID.TID 0000.0001)     2 @  3.012190981969055E+05,             /* I =272:273 */
(PID.TID 0000.0001)                 3.000967749619962E+05,      /* I =274 */
(PID.TID 0000.0001)                 2.978501920522794E+05,      /* I =275 */
(PID.TID 0000.0001)                 2.944742915095688E+05,      /* I =276 */
(PID.TID 0000.0001)                 2.899590699694043E+05,      /* I =277 */
(PID.TID 0000.0001)                 2.842862532064524E+05,      /* I =278 */
(PID.TID 0000.0001)                 2.774243179696503E+05,      /* I =279 */
(PID.TID 0000.0001)                 2.693210245495156E+05,      /* I =280 */
(PID.TID 0000.0001)                 2.598919724358304E+05,      /* I =281 */
(PID.TID 0000.0001)                 2.490022710862746E+05,      /* I =282 */
(PID.TID 0000.0001)                 2.364352994647058E+05,      /* I =283 */
(PID.TID 0000.0001)                 2.218350349844185E+05,      /* I =284 */
(PID.TID 0000.0001)                 2.045883481718707E+05,      /* I =285 */
(PID.TID 0000.0001)                 1.835530058121492E+05,      /* I =286 */
(PID.TID 0000.0001)                 1.563594089971120E+05,      /* I =287 */
(PID.TID 0000.0001)                 1.202082051331828E+05,      /* I =288 */
(PID.TID 0000.0001)                 3.012844832048790E+05,      /* I =289 */
(PID.TID 0000.0001)                 3.017314519159184E+05,      /* I =290 */
(PID.TID 0000.0001)                 3.026061571839506E+05,      /* I =291 */
(PID.TID 0000.0001)                 3.038712499122208E+05,      /* I =292 */
(PID.TID 0000.0001)                 3.054733694195115E+05,      /* I =293 */
(PID.TID 0000.0001)                 3.073460170047538E+05,      /* I =294 */
(PID.TID 0000.0001)                 3.094129252024922E+05,      /* I =295 */
(PID.TID 0000.0001)                 3.115916488673079E+05,      /* I =296 */
(PID.TID 0000.0001)                 3.137971415338805E+05,      /* I =297 */
(PID.TID 0000.0001)                 3.159451387866950E+05,      /* I =298 */
(PID.TID 0000.0001)                 3.179552321069062E+05,      /* I =299 */
(PID.TID 0000.0001)                 3.197535693737994E+05,      /* I =300 */
(PID.TID 0000.0001)                 3.212751560265627E+05,      /* I =301 */
(PID.TID 0000.0001)                 3.224657535572011E+05,      /* I =302 */
(PID.TID 0000.0001)                 3.232833825614068E+05,      /* I =303 */
(PID.TID 0000.0001)     2 @  3.236994750082736E+05,             /* I =304:305 */
(PID.TID 0000.0001)                 3.232833825614068E+05,      /* I =306 */
(PID.TID 0000.0001)                 3.224657535572011E+05,      /* I =307 */
(PID.TID 0000.0001)                 3.212751560265627E+05,      /* I =308 */
(PID.TID 0000.0001)                 3.197535693737994E+05,      /* I =309 */
(PID.TID 0000.0001)                 3.179552321069062E+05,      /* I =310 */
(PID.TID 0000.0001)                 3.159451387866950E+05,      /* I =311 */
(PID.TID 0000.0001)                 3.137971415338805E+05,      /* I =312 */
(PID.TID 0000.0001)                 3.115916488673079E+05,      /* I =313 */
(PID.TID 0000.0001)                 3.094129252024922E+05,      /* I =314 */
(PID.TID 0000.0001)                 3.073460170047538E+05,      /* I =315 */
(PID.TID 0000.0001)                 3.054733694195115E+05,      /* I =316 */
(PID.TID 0000.0001)                 3.038712499122208E+05,      /* I =317 */
(PID.TID 0000.0001)                 3.026061571839506E+05,      /* I =318 */
(PID.TID 0000.0001)                 3.017314519159184E+05,      /* I =319 */
(PID.TID 0000.0001)                 3.012844832048790E+05,      /* I =320 */
(PID.TID 0000.0001)                 1.202082051331828E+05,      /* I =321 */
(PID.TID 0000.0001)                 1.563594089971120E+05,      /* I =322 */
(PID.TID 0000.0001)                 1.835530058121492E+05,      /* I =323 */
(PID.TID 0000.0001)                 2.045883481718707E+05,      /* I =324 */
(PID.TID 0000.0001)                 2.218350349844185E+05,      /* I =325 */
(PID.TID 0000.0001)                 2.364352994647058E+05,      /* I =326 */
(PID.TID 0000.0001)                 2.490022710862746E+05,      /* I =327 */
(PID.TID 0000.0001)                 2.598919724358304E+05,      /* I =328 */
(PID.TID 0000.0001)                 2.693210245495156E+05,      /* I =329 */
(PID.TID 0000.0001)                 2.774243179696503E+05,      /* I =330 */
(PID.TID 0000.0001)                 2.842862532064524E+05,      /* I =331 */
(PID.TID 0000.0001)                 2.899590699694043E+05,      /* I =332 */
(PID.TID 0000.0001)                 2.944742915095688E+05,      /* I =333 */
(PID.TID 0000.0001)                 2.978501920522794E+05,      /* I =334 */
(PID.TID 0000.0001)                 3.000967749619962E+05,      /* I =335 */
(PID.TID 0000.0001)     2 @  3.012190981969055E+05,             /* I =336:337 */
(PID.TID 0000.0001)                 3.000967749619962E+05,      /* I =338 */
(PID.TID 0000.0001)                 2.978501920522794E+05,      /* I =339 */
(PID.TID 0000.0001)                 2.944742915095688E+05,      /* I =340 */
(PID.TID 0000.0001)                 2.899590699694043E+05,      /* I =341 */
(PID.TID 0000.0001)                 2.842862532064524E+05,      /* I =342 */
(PID.TID 0000.0001)                 2.774243179696503E+05,      /* I =343 */
(PID.TID 0000.0001)                 2.693210245495156E+05,      /* I =344 */
(PID.TID 0000.0001)                 2.598919724358304E+05,      /* I =345 */
(PID.TID 0000.0001)                 2.490022710862746E+05,      /* I =346 */
(PID.TID 0000.0001)                 2.364352994647058E+05,      /* I =347 */
(PID.TID 0000.0001)                 2.218350349844185E+05,      /* I =348 */
(PID.TID 0000.0001)                 2.045883481718707E+05,      /* I =349 */
(PID.TID 0000.0001)                 1.835530058121492E+05,      /* I =350 */
(PID.TID 0000.0001)                 1.563594089971120E+05,      /* I =351 */
(PID.TID 0000.0001)                 1.202082051331828E+05,      /* I =352 */
(PID.TID 0000.0001)                 3.012844832048790E+05,      /* I =353 */
(PID.TID 0000.0001)                 3.017314519159184E+05,      /* I =354 */
(PID.TID 0000.0001)                 3.026061571839506E+05,      /* I =355 */
(PID.TID 0000.0001)                 3.038712499122208E+05,      /* I =356 */
(PID.TID 0000.0001)                 3.054733694195115E+05,      /* I =357 */
(PID.TID 0000.0001)                 3.073460170047538E+05,      /* I =358 */
(PID.TID 0000.0001)                 3.094129252024922E+05,      /* I =359 */
(PID.TID 0000.0001)                 3.115916488673079E+05,      /* I =360 */
(PID.TID 0000.0001)                 3.137971415338805E+05,      /* I =361 */
(PID.TID 0000.0001)                 3.159451387866950E+05,      /* I =362 */
(PID.TID 0000.0001)                 3.179552321069062E+05,      /* I =363 */
(PID.TID 0000.0001)                 3.197535693737994E+05,      /* I =364 */
(PID.TID 0000.0001)                 3.212751560265627E+05,      /* I =365 */
(PID.TID 0000.0001)                 3.224657535572011E+05,      /* I =366 */
(PID.TID 0000.0001)                 3.232833825614068E+05,      /* I =367 */
(PID.TID 0000.0001)     2 @  3.236994750082736E+05,             /* I =368:369 */
(PID.TID 0000.0001)                 3.232833825614068E+05,      /* I =370 */
(PID.TID 0000.0001)                 3.224657535572011E+05,      /* I =371 */
(PID.TID 0000.0001)                 3.212751560265627E+05,      /* I =372 */
(PID.TID 0000.0001)                 3.197535693737994E+05,      /* I =373 */
(PID.TID 0000.0001)                 3.179552321069062E+05,      /* I =374 */
(PID.TID 0000.0001)                 3.159451387866950E+05,      /* I =375 */
(PID.TID 0000.0001)                 3.137971415338805E+05,      /* I =376 */
(PID.TID 0000.0001)                 3.115916488673079E+05,      /* I =377 */
(PID.TID 0000.0001)                 3.094129252024922E+05,      /* I =378 */
(PID.TID 0000.0001)                 3.073460170047538E+05,      /* I =379 */
(PID.TID 0000.0001)                 3.054733694195115E+05,      /* I =380 */
(PID.TID 0000.0001)                 3.038712499122208E+05,      /* I =381 */
(PID.TID 0000.0001)                 3.026061571839506E+05,      /* I =382 */
(PID.TID 0000.0001)                 3.017314519159184E+05,      /* I =383 */
(PID.TID 0000.0001)                 3.012844832048790E+05       /* I =384 */
(PID.TID 0000.0001)     ;
(PID.TID 0000.0001) dxF =  /* dxF(1,:,1,:) ( m - cartesian, degrees - spherical ) */
(PID.TID 0000.0001)                 1.202082051331828E+05,      /* J =  1 */
(PID.TID 0000.0001)                 1.572908084538706E+05,      /* J =  2 */
(PID.TID 0000.0001)                 1.840412227747703E+05,      /* J =  3 */
(PID.TID 0000.0001)                 2.048868197919576E+05,      /* J =  4 */
(PID.TID 0000.0001)                 2.220405216043041E+05,      /* J =  5 */
(PID.TID 0000.0001)                 2.365892017348392E+05,      /* J =  6 */
(PID.TID 0000.0001)                 2.491250781852558E+05,      /* J =  7 */
(PID.TID 0000.0001)                 2.599949918261881E+05,      /* J =  8 */
(PID.TID 0000.0001)                 2.694110134598581E+05,      /* J =  9 */
(PID.TID 0000.0001)                 2.775055554645015E+05,      /* J = 10 */
(PID.TID 0000.0001)                 2.843615645344775E+05,      /* J = 11 */
(PID.TID 0000.0001)                 2.900303768613599E+05,      /* J = 12 */
(PID.TID 0000.0001)                 2.945429307892709E+05,      /* J = 13 */
(PID.TID 0000.0001)                 2.979171143158405E+05,      /* J = 14 */
(PID.TID 0000.0001)                 3.001626787528886E+05,      /* J = 15 */
(PID.TID 0000.0001)                 3.012844832048790E+05       /* J = 16 */
(PID.TID 0000.0001)     ;
(PID.TID 0000.0001) dyF =  /* dyF(:,1,:,1) ( m - cartesian, degrees - spherical ) */
(PID.TID 0000.0001)                 1.202082051331828E+05,      /* I =  1 */
(PID.TID 0000.0001)                 1.572908084538706E+05,      /* I =  2 */
(PID.TID 0000.0001)                 1.840412227747703E+05,      /* I =  3 */
(PID.TID 0000.0001)                 2.048868197919576E+05,      /* I =  4 */
(PID.TID 0000.0001)                 2.220405216043041E+05,      /* I =  5 */
(PID.TID 0000.0001)                 2.365892017348392E+05,      /* I =  6 */
(PID.TID 0000.0001)                 2.491250781852558E+05,      /* I =  7 */
(PID.TID 0000.0001)                 2.599949918261881E+05,      /* I =  8 */
(PID.TID 0000.0001)                 2.694110134598581E+05,      /* I =  9 */
(PID.TID 0000.0001)                 2.775055554645015E+05,      /* I = 10 */
(PID.TID 0000.0001)                 2.843615645344775E+05,      /* I = 11 */
(PID.TID 0000.0001)                 2.900303768613599E+05,      /* I = 12 */
(PID.TID 0000.0001)                 2.945429307892709E+05,      /* I = 13 */
(PID.TID 0000.0001)                 2.979171143158405E+05,      /* I = 14 */
(PID.TID 0000.0001)                 3.001626787528886E+05,      /* I = 15 */
(PID.TID 0000.0001)     2 @  3.012844832048790E+05,             /* I = 16: 17 */
(PID.TID 0000.0001)                 3.001626787528886E+05,      /* I = 18 */
(PID.TID 0000.0001)                 2.979171143158405E+05,      /* I = 19 */
(PID.TID 0000.0001)                 2.945429307892709E+05,      /* I = 20 */
(PID.TID 0000.0001)                 2.900303768613599E+05,      /* I = 21 */
(PID.TID 0000.0001)                 2.843615645344775E+05,      /* I = 22 */
(PID.TID 0000.0001)                 2.775055554645015E+05,      /* I = 23 */
(PID.TID 0000.0001)                 2.694110134598581E+05,      /* I = 24 */
(PID.TID 0000.0001)                 2.599949918261881E+05,      /* I = 25 */
(PID.TID 0000.0001)                 2.491250781852558E+05,      /* I = 26 */
(PID.TID 0000.0001)                 2.365892017348392E+05,      /* I = 27 */
(PID.TID 0000.0001)                 2.220405216043041E+05,      /* I = 28 */
(PID.TID 0000.0001)                 2.048868197919576E+05,      /* I = 29 */
(PID.TID 0000.0001)                 1.840412227747703E+05,      /* I = 30 */
(PID.TID 0000.0001)                 1.572908084538706E+05,      /* I = 31 */
(PID.TID 0000.0001)                 1.202082051331828E+05,      /* I = 32 */
(PID.TID 0000.0001)                 3.012190981969055E+05,      /* I = 33 */
(PID.TID 0000.0001)                 3.016675528553907E+05,      /* I = 34 */
(PID.TID 0000.0001)                 3.025451404065074E+05,      /* I = 35 */
(PID.TID 0000.0001)                 3.038143430929827E+05,      /* I = 36 */
(PID.TID 0000.0001)                 3.054215712079756E+05,      /* I = 37 */
(PID.TID 0000.0001)                 3.073000594641912E+05,      /* I = 38 */
(PID.TID 0000.0001)                 3.093732589453273E+05,      /* I = 39 */
(PID.TID 0000.0001)                 3.115584474900804E+05,      /* I = 40 */
(PID.TID 0000.0001)                 3.137703202065625E+05,      /* I = 41 */
(PID.TID 0000.0001)                 3.159243816151009E+05,      /* I = 42 */
(PID.TID 0000.0001)                 3.179400237154126E+05,      /* I = 43 */
(PID.TID 0000.0001)                 3.197432274745630E+05,      /* I = 44 */
(PID.TID 0000.0001)                 3.212688630823077E+05,      /* I = 45 */
(PID.TID 0000.0001)                 3.224625867238719E+05,      /* I = 46 */
(PID.TID 0000.0001)                 3.232823418193404E+05,      /* I = 47 */
(PID.TID 0000.0001)     2 @  3.236994750082736E+05,             /* I = 48: 49 */
(PID.TID 0000.0001)                 3.232823418193404E+05,      /* I = 50 */
(PID.TID 0000.0001)                 3.224625867238719E+05,      /* I = 51 */
(PID.TID 0000.0001)                 3.212688630823077E+05,      /* I = 52 */
(PID.TID 0000.0001)                 3.197432274745630E+05,      /* I = 53 */
(PID.TID 0000.0001)                 3.179400237154126E+05,      /* I = 54 */
(PID.TID 0000.0001)                 3.159243816151009E+05,      /* I = 55 */
(PID.TID 0000.0001)                 3.137703202065625E+05,      /* I = 56 */
(PID.TID 0000.0001)                 3.115584474900804E+05,      /* I = 57 */
(PID.TID 0000.0001)                 3.093732589453273E+05,      /* I = 58 */
(PID.TID 0000.0001)                 3.073000594641912E+05,      /* I = 59 */
(PID.TID 0000.0001)                 3.054215712079756E+05,      /* I = 60 */
(PID.TID 0000.0001)                 3.038143430929827E+05,      /* I = 61 */
(PID.TID 0000.0001)                 3.025451404065074E+05,      /* I = 62 */
(PID.TID 0000.0001)                 3.016675528553907E+05,      /* I = 63 */
(PID.TID 0000.0001)                 3.012190981969055E+05,      /* I = 64 */
(PID.TID 0000.0001)                 1.202082051331828E+05,      /* I = 65 */
(PID.TID 0000.0001)                 1.572908084538706E+05,      /* I = 66 */
(PID.TID 0000.0001)                 1.840412227747703E+05,      /* I = 67 */
(PID.TID 0000.0001)                 2.048868197919576E+05,      /* I = 68 */
(PID.TID 0000.0001)                 2.220405216043041E+05,      /* I = 69 */
(PID.TID 0000.0001)                 2.365892017348392E+05,      /* I = 70 */
(PID.TID 0000.0001)                 2.491250781852558E+05,      /* I = 71 */
(PID.TID 0000.0001)                 2.599949918261881E+05,      /* I = 72 */
(PID.TID 0000.0001)                 2.694110134598581E+05,      /* I = 73 */
(PID.TID 0000.0001)                 2.775055554645015E+05,      /* I = 74 */
(PID.TID 0000.0001)                 2.843615645344775E+05,      /* I = 75 */
(PID.TID 0000.0001)                 2.900303768613599E+05,      /* I = 76 */
(PID.TID 0000.0001)                 2.945429307892709E+05,      /* I = 77 */
(PID.TID 0000.0001)                 2.979171143158405E+05,      /* I = 78 */
(PID.TID 0000.0001)                 3.001626787528886E+05,      /* I = 79 */
(PID.TID 0000.0001)     2 @  3.012844832048790E+05,             /* I = 80: 81 */
(PID.TID 0000.0001)                 3.001626787528886E+05,      /* I = 82 */
(PID.TID 0000.0001)                 2.979171143158405E+05,      /* I = 83 */
(PID.TID 0000.0001)                 2.945429307892709E+05,      /* I = 84 */
(PID.TID 0000.0001)                 2.900303768613599E+05,      /* I = 85 */
(PID.TID 0000.0001)                 2.843615645344775E+05,      /* I = 86 */
(PID.TID 0000.0001)                 2.775055554645015E+05,      /* I = 87 */
(PID.TID 0000.0001)                 2.694110134598581E+05,      /* I = 88 */
(PID.TID 0000.0001)                 2.599949918261881E+05,      /* I = 89 */
(PID.TID 0000.0001)                 2.491250781852558E+05,      /* I = 90 */
(PID.TID 0000.0001)                 2.365892017348392E+05,      /* I = 91 */
(PID.TID 0000.0001)                 2.220405216043041E+05,      /* I = 92 */
(PID.TID 0000.0001)                 2.048868197919576E+05,      /* I = 93 */
(PID.TID 0000.0001)                 1.840412227747703E+05,      /* I = 94 */
(PID.TID 0000.0001)                 1.572908084538706E+05,      /* I = 95 */
(PID.TID 0000.0001)                 1.202082051331828E+05,      /* I = 96 */
(PID.TID 0000.0001)                 3.012190981969055E+05,      /* I = 97 */
(PID.TID 0000.0001)                 3.016675528553907E+05,      /* I = 98 */
(PID.TID 0000.0001)                 3.025451404065074E+05,      /* I = 99 */
(PID.TID 0000.0001)                 3.038143430929827E+05,      /* I =100 */
(PID.TID 0000.0001)                 3.054215712079756E+05,      /* I =101 */
(PID.TID 0000.0001)                 3.073000594641912E+05,      /* I =102 */
(PID.TID 0000.0001)                 3.093732589453273E+05,      /* I =103 */
(PID.TID 0000.0001)                 3.115584474900804E+05,      /* I =104 */
(PID.TID 0000.0001)                 3.137703202065625E+05,      /* I =105 */
(PID.TID 0000.0001)                 3.159243816151009E+05,      /* I =106 */
(PID.TID 0000.0001)                 3.179400237154126E+05,      /* I =107 */
(PID.TID 0000.0001)                 3.197432274745630E+05,      /* I =108 */
(PID.TID 0000.0001)                 3.212688630823077E+05,      /* I =109 */
(PID.TID 0000.0001)                 3.224625867238719E+05,      /* I =110 */
(PID.TID 0000.0001)                 3.232823418193404E+05,      /* I =111 */
(PID.TID 0000.0001)     2 @  3.236994750082736E+05,             /* I =112:113 */
(PID.TID 0000.0001)                 3.232823418193404E+05,      /* I =114 */
(PID.TID 0000.0001)                 3.224625867238719E+05,      /* I =115 */
(PID.TID 0000.0001)                 3.212688630823077E+05,      /* I =116 */
(PID.TID 0000.0001)                 3.197432274745630E+05,      /* I =117 */
(PID.TID 0000.0001)                 3.179400237154126E+05,      /* I =118 */
(PID.TID 0000.0001)                 3.159243816151009E+05,      /* I =119 */
(PID.TID 0000.0001)                 3.137703202065625E+05,      /* I =120 */
(PID.TID 0000.0001)                 3.115584474900804E+05,      /* I =121 */
(PID.TID 0000.0001)                 3.093732589453273E+05,      /* I =122 */
(PID.TID 0000.0001)                 3.073000594641912E+05,      /* I =123 */
(PID.TID 0000.0001)                 3.054215712079756E+05,      /* I =124 */
(PID.TID 0000.0001)                 3.038143430929827E+05,      /* I =125 */
(PID.TID 0000.0001)                 3.025451404065074E+05,      /* I =126 */
(PID.TID 0000.0001)                 3.016675528553907E+05,      /* I =127 */
(PID.TID 0000.0001)                 3.012190981969055E+05,      /* I =128 */
(PID.TID 0000.0001)                 1.202082051331828E+05,      /* I =129 */
(PID.TID 0000.0001)                 1.572908084538706E+05,      /* I =130 */
(PID.TID 0000.0001)                 1.840412227747703E+05,      /* I =131 */
(PID.TID 0000.0001)                 2.048868197919576E+05,      /* I =132 */
(PID.TID 0000.0001)                 2.220405216043041E+05,      /* I =133 */
(PID.TID 0000.0001)                 2.365892017348392E+05,      /* I =134 */
(PID.TID 0000.0001)                 2.491250781852558E+05,      /* I =135 */
(PID.TID 0000.0001)                 2.599949918261881E+05,      /* I =136 */
(PID.TID 0000.0001)                 2.694110134598581E+05,      /* I =137 */
(PID.TID 0000.0001)                 2.775055554645015E+05,      /* I =138 */
(PID.TID 0000.0001)                 2.843615645344775E+05,      /* I =139 */
(PID.TID 0000.0001)                 2.900303768613599E+05,      /* I =140 */
(PID.TID 0000.0001)                 2.945429307892709E+05,      /* I =141 */
(PID.TID 0000.0001)                 2.979171143158405E+05,      /* I =142 */
(PID.TID 0000.0001)                 3.001626787528886E+05,      /* I =143 */
(PID.TID 0000.0001)     2 @  3.012844832048790E+05,             /* I =144:145 */
(PID.TID 0000.0001)                 3.001626787528886E+05,      /* I =146 */
(PID.TID 0000.0001)                 2.979171143158405E+05,      /* I =147 */
(PID.TID 0000.0001)                 2.945429307892709E+05,      /* I =148 */
(PID.TID 0000.0001)                 2.900303768613599E+05,      /* I =149 */
(PID.TID 0000.0001)                 2.843615645344775E+05,      /* I =150 */
(PID.TID 0000.0001)                 2.775055554645015E+05,      /* I =151 */
(PID.TID 0000.0001)                 2.694110134598581E+05,      /* I =152 */
(PID.TID 0000.0001)                 2.599949918261881E+05,      /* I =153 */
(PID.TID 0000.0001)                 2.491250781852558E+05,      /* I =154 */
(PID.TID 0000.0001)                 2.365892017348392E+05,      /* I =155 */
(PID.TID 0000.0001)                 2.220405216043041E+05,      /* I =156 */
(PID.TID 0000.0001)                 2.048868197919576E+05,      /* I =157 */
(PID.TID 0000.0001)                 1.840412227747703E+05,      /* I =158 */
(PID.TID 0000.0001)                 1.572908084538706E+05,      /* I =159 */
(PID.TID 0000.0001)                 1.202082051331828E+05,      /* I =160 */
(PID.TID 0000.0001)                 3.012190981969055E+05,      /* I =161 */
(PID.TID 0000.0001)                 3.016675528553907E+05,      /* I =162 */
(PID.TID 0000.0001)                 3.025451404065074E+05,      /* I =163 */
(PID.TID 0000.0001)                 3.038143430929827E+05,      /* I =164 */
(PID.TID 0000.0001)                 3.054215712079756E+05,      /* I =165 */
(PID.TID 0000.0001)                 3.073000594641912E+05,      /* I =166 */
(PID.TID 0000.0001)                 3.093732589453273E+05,      /* I =167 */
(PID.TID 0000.0001)                 3.115584474900804E+05,      /* I =168 */
(PID.TID 0000.0001)                 3.137703202065625E+05,      /* I =169 */
(PID.TID 0000.0001)                 3.159243816151009E+05,      /* I =170 */
(PID.TID 0000.0001)                 3.179400237154126E+05,      /* I =171 */
(PID.TID 0000.0001)                 3.197432274745630E+05,      /* I =172 */
(PID.TID 0000.0001)                 3.212688630823077E+05,      /* I =173 */
(PID.TID 0000.0001)                 3.224625867238719E+05,      /* I =174 */
(PID.TID 0000.0001)                 3.232823418193404E+05,      /* I =175 */
(PID.TID 0000.0001)     2 @  3.236994750082736E+05,             /* I =176:177 */
(PID.TID 0000.0001)                 3.232823418193404E+05,      /* I =178 */
(PID.TID 0000.0001)                 3.224625867238719E+05,      /* I =179 */
(PID.TID 0000.0001)                 3.212688630823077E+05,      /* I =180 */
(PID.TID 0000.0001)                 3.197432274745630E+05,      /* I =181 */
(PID.TID 0000.0001)                 3.179400237154126E+05,      /* I =182 */
(PID.TID 0000.0001)                 3.159243816151009E+05,      /* I =183 */
(PID.TID 0000.0001)                 3.137703202065625E+05,      /* I =184 */
(PID.TID 0000.0001)                 3.115584474900804E+05,      /* I =185 */
(PID.TID 0000.0001)                 3.093732589453273E+05,      /* I =186 */
(PID.TID 0000.0001)                 3.073000594641912E+05,      /* I =187 */
(PID.TID 0000.0001)                 3.054215712079756E+05,      /* I =188 */
(PID.TID 0000.0001)                 3.038143430929827E+05,      /* I =189 */
(PID.TID 0000.0001)                 3.025451404065074E+05,      /* I =190 */
(PID.TID 0000.0001)                 3.016675528553907E+05,      /* I =191 */
(PID.TID 0000.0001)                 3.012190981969055E+05,      /* I =192 */
(PID.TID 0000.0001)                 1.202082051331828E+05,      /* I =193 */
(PID.TID 0000.0001)                 1.572908084538706E+05,      /* I =194 */
(PID.TID 0000.0001)                 1.840412227747703E+05,      /* I =195 */
(PID.TID 0000.0001)                 2.048868197919576E+05,      /* I =196 */
(PID.TID 0000.0001)                 2.220405216043041E+05,      /* I =197 */
(PID.TID 0000.0001)                 2.365892017348392E+05,      /* I =198 */
(PID.TID 0000.0001)                 2.491250781852558E+05,      /* I =199 */
(PID.TID 0000.0001)                 2.599949918261881E+05,      /* I =200 */
(PID.TID 0000.0001)                 2.694110134598581E+05,      /* I =201 */
(PID.TID 0000.0001)                 2.775055554645015E+05,      /* I =202 */
(PID.TID 0000.0001)                 2.843615645344775E+05,      /* I =203 */
(PID.TID 0000.0001)                 2.900303768613599E+05,      /* I =204 */
(PID.TID 0000.0001)                 2.945429307892709E+05,      /* I =205 */
(PID.TID 0000.0001)                 2.979171143158405E+05,      /* I =206 */
(PID.TID 0000.0001)                 3.001626787528886E+05,      /* I =207 */
(PID.TID 0000.0001)     2 @  3.012844832048790E+05,             /* I =208:209 */
(PID.TID 0000.0001)                 3.001626787528886E+05,      /* I =210 */
(PID.TID 0000.0001)                 2.979171143158405E+05,      /* I =211 */
(PID.TID 0000.0001)                 2.945429307892709E+05,      /* I =212 */
(PID.TID 0000.0001)                 2.900303768613599E+05,      /* I =213 */
(PID.TID 0000.0001)                 2.843615645344775E+05,      /* I =214 */
(PID.TID 0000.0001)                 2.775055554645015E+05,      /* I =215 */
(PID.TID 0000.0001)                 2.694110134598581E+05,      /* I =216 */
(PID.TID 0000.0001)                 2.599949918261881E+05,      /* I =217 */
(PID.TID 0000.0001)                 2.491250781852558E+05,      /* I =218 */
(PID.TID 0000.0001)                 2.365892017348392E+05,      /* I =219 */
(PID.TID 0000.0001)                 2.220405216043041E+05,      /* I =220 */
(PID.TID 0000.0001)                 2.048868197919576E+05,      /* I =221 */
(PID.TID 0000.0001)                 1.840412227747703E+05,      /* I =222 */
(PID.TID 0000.0001)                 1.572908084538706E+05,      /* I =223 */
(PID.TID 0000.0001)                 1.202082051331828E+05,      /* I =224 */
(PID.TID 0000.0001)                 3.012190981969055E+05,      /* I =225 */
(PID.TID 0000.0001)                 3.016675528553907E+05,      /* I =226 */
(PID.TID 0000.0001)                 3.025451404065074E+05,      /* I =227 */
(PID.TID 0000.0001)                 3.038143430929827E+05,      /* I =228 */
(PID.TID 0000.0001)                 3.054215712079756E+05,      /* I =229 */
(PID.TID 0000.0001)                 3.073000594641912E+05,      /* I =230 */
(PID.TID 0000.0001)                 3.093732589453273E+05,      /* I =231 */
(PID.TID 0000.0001)                 3.115584474900804E+05,      /* I =232 */
(PID.TID 0000.0001)                 3.137703202065625E+05,      /* I =233 */
(PID.TID 0000.0001)                 3.159243816151009E+05,      /* I =234 */
(PID.TID 0000.0001)                 3.179400237154126E+05,      /* I =235 */
(PID.TID 0000.0001)                 3.197432274745630E+05,      /* I =236 */
(PID.TID 0000.0001)                 3.212688630823077E+05,      /* I =237 */
(PID.TID 0000.0001)                 3.224625867238719E+05,      /* I =238 */
(PID.TID 0000.0001)                 3.232823418193404E+05,      /* I =239 */
(PID.TID 0000.0001)     2 @  3.236994750082736E+05,             /* I =240:241 */
(PID.TID 0000.0001)                 3.232823418193404E+05,      /* I =242 */
(PID.TID 0000.0001)                 3.224625867238719E+05,      /* I =243 */
(PID.TID 0000.0001)                 3.212688630823077E+05,      /* I =244 */
(PID.TID 0000.0001)                 3.197432274745630E+05,      /* I =245 */
(PID.TID 0000.0001)                 3.179400237154126E+05,      /* I =246 */
(PID.TID 0000.0001)                 3.159243816151009E+05,      /* I =247 */
(PID.TID 0000.0001)                 3.137703202065625E+05,      /* I =248 */
(PID.TID 0000.0001)                 3.115584474900804E+05,      /* I =249 */
(PID.TID 0000.0001)                 3.093732589453273E+05,      /* I =250 */
(PID.TID 0000.0001)                 3.073000594641912E+05,      /* I =251 */
(PID.TID 0000.0001)                 3.054215712079756E+05,      /* I =252 */
(PID.TID 0000.0001)                 3.038143430929827E+05,      /* I =253 */
(PID.TID 0000.0001)                 3.025451404065074E+05,      /* I =254 */
(PID.TID 0000.0001)                 3.016675528553907E+05,      /* I =255 */
(PID.TID 0000.0001)                 3.012190981969055E+05,      /* I =256 */
(PID.TID 0000.0001)                 1.202082051331828E+05,      /* I =257 */
(PID.TID 0000.0001)                 1.572908084538706E+05,      /* I =258 */
(PID.TID 0000.0001)                 1.840412227747703E+05,      /* I =259 */
(PID.TID 0000.0001)                 2.048868197919576E+05,      /* I =260 */
(PID.TID 0000.0001)                 2.220405216043041E+05,      /* I =261 */
(PID.TID 0000.0001)                 2.365892017348392E+05,      /* I =262 */
(PID.TID 0000.0001)                 2.491250781852558E+05,      /* I =263 */
(PID.TID 0000.0001)                 2.599949918261881E+05,      /* I =264 */
(PID.TID 0000.0001)                 2.694110134598581E+05,      /* I =265 */
(PID.TID 0000.0001)                 2.775055554645015E+05,      /* I =266 */
(PID.TID 0000.0001)                 2.843615645344775E+05,      /* I =267 */
(PID.TID 0000.0001)                 2.900303768613599E+05,      /* I =268 */
(PID.TID 0000.0001)                 2.945429307892709E+05,      /* I =269 */
(PID.TID 0000.0001)                 2.979171143158405E+05,      /* I =270 */
(PID.TID 0000.0001)                 3.001626787528886E+05,      /* I =271 */
(PID.TID 0000.0001)     2 @  3.012844832048790E+05,             /* I =272:273 */
(PID.TID 0000.0001)                 3.001626787528886E+05,      /* I =274 */
(PID.TID 0000.0001)                 2.979171143158405E+05,      /* I =275 */
(PID.TID 0000.0001)                 2.945429307892709E+05,      /* I =276 */
(PID.TID 0000.0001)                 2.900303768613599E+05,      /* I =277 */
(PID.TID 0000.0001)                 2.843615645344775E+05,      /* I =278 */
(PID.TID 0000.0001)                 2.775055554645015E+05,      /* I =279 */
(PID.TID 0000.0001)                 2.694110134598581E+05,      /* I =280 */
(PID.TID 0000.0001)                 2.599949918261881E+05,      /* I =281 */
(PID.TID 0000.0001)                 2.491250781852558E+05,      /* I =282 */
(PID.TID 0000.0001)                 2.365892017348392E+05,      /* I =283 */
(PID.TID 0000.0001)                 2.220405216043041E+05,      /* I =284 */
(PID.TID 0000.0001)                 2.048868197919576E+05,      /* I =285 */
(PID.TID 0000.0001)                 1.840412227747703E+05,      /* I =286 */
(PID.TID 0000.0001)                 1.572908084538706E+05,      /* I =287 */
(PID.TID 0000.0001)                 1.202082051331828E+05,      /* I =288 */
(PID.TID 0000.0001)                 3.012190981969055E+05,      /* I =289 */
(PID.TID 0000.0001)                 3.016675528553907E+05,      /* I =290 */
(PID.TID 0000.0001)                 3.025451404065074E+05,      /* I =291 */
(PID.TID 0000.0001)                 3.038143430929827E+05,      /* I =292 */
(PID.TID 0000.0001)                 3.054215712079756E+05,      /* I =293 */
(PID.TID 0000.0001)                 3.073000594641912E+05,      /* I =294 */
(PID.TID 0000.0001)                 3.093732589453273E+05,      /* I =295 */
(PID.TID 0000.0001)                 3.115584474900804E+05,      /* I =296 */
(PID.TID 0000.0001)                 3.137703202065625E+05,      /* I =297 */
(PID.TID 0000.0001)                 3.159243816151009E+05,      /* I =298 */
(PID.TID 0000.0001)                 3.179400237154126E+05,      /* I =299 */
(PID.TID 0000.0001)                 3.197432274745630E+05,      /* I =300 */
(PID.TID 0000.0001)                 3.212688630823077E+05,      /* I =301 */
(PID.TID 0000.0001)                 3.224625867238719E+05,      /* I =302 */
(PID.TID 0000.0001)                 3.232823418193404E+05,      /* I =303 */
(PID.TID 0000.0001)     2 @  3.236994750082736E+05,             /* I =304:305 */
(PID.TID 0000.0001)                 3.232823418193404E+05,      /* I =306 */
(PID.TID 0000.0001)                 3.224625867238719E+05,      /* I =307 */
(PID.TID 0000.0001)                 3.212688630823077E+05,      /* I =308 */
(PID.TID 0000.0001)                 3.197432274745630E+05,      /* I =309 */
(PID.TID 0000.0001)                 3.179400237154126E+05,      /* I =310 */
(PID.TID 0000.0001)                 3.159243816151009E+05,      /* I =311 */
(PID.TID 0000.0001)                 3.137703202065625E+05,      /* I =312 */
(PID.TID 0000.0001)                 3.115584474900804E+05,      /* I =313 */
(PID.TID 0000.0001)                 3.093732589453273E+05,      /* I =314 */
(PID.TID 0000.0001)                 3.073000594641912E+05,      /* I =315 */
(PID.TID 0000.0001)                 3.054215712079756E+05,      /* I =316 */
(PID.TID 0000.0001)                 3.038143430929827E+05,      /* I =317 */
(PID.TID 0000.0001)                 3.025451404065074E+05,      /* I =318 */
(PID.TID 0000.0001)                 3.016675528553907E+05,      /* I =319 */
(PID.TID 0000.0001)                 3.012190981969055E+05,      /* I =320 */
(PID.TID 0000.0001)                 1.202082051331828E+05,      /* I =321 */
(PID.TID 0000.0001)                 1.572908084538706E+05,      /* I =322 */
(PID.TID 0000.0001)                 1.840412227747703E+05,      /* I =323 */
(PID.TID 0000.0001)                 2.048868197919576E+05,      /* I =324 */
(PID.TID 0000.0001)                 2.220405216043041E+05,      /* I =325 */
(PID.TID 0000.0001)                 2.365892017348392E+05,      /* I =326 */
(PID.TID 0000.0001)                 2.491250781852558E+05,      /* I =327 */
(PID.TID 0000.0001)                 2.599949918261881E+05,      /* I =328 */
(PID.TID 0000.0001)                 2.694110134598581E+05,      /* I =329 */
(PID.TID 0000.0001)                 2.775055554645015E+05,      /* I =330 */
(PID.TID 0000.0001)                 2.843615645344775E+05,      /* I =331 */
(PID.TID 0000.0001)                 2.900303768613599E+05,      /* I =332 */
(PID.TID 0000.0001)                 2.945429307892709E+05,      /* I =333 */
(PID.TID 0000.0001)                 2.979171143158405E+05,      /* I =334 */
(PID.TID 0000.0001)                 3.001626787528886E+05,      /* I =335 */
(PID.TID 0000.0001)     2 @  3.012844832048790E+05,             /* I =336:337 */
(PID.TID 0000.0001)                 3.001626787528886E+05,      /* I =338 */
(PID.TID 0000.0001)                 2.979171143158405E+05,      /* I =339 */
(PID.TID 0000.0001)                 2.945429307892709E+05,      /* I =340 */
(PID.TID 0000.0001)                 2.900303768613599E+05,      /* I =341 */
(PID.TID 0000.0001)                 2.843615645344775E+05,      /* I =342 */
(PID.TID 0000.0001)                 2.775055554645015E+05,      /* I =343 */
(PID.TID 0000.0001)                 2.694110134598581E+05,      /* I =344 */
(PID.TID 0000.0001)                 2.599949918261881E+05,      /* I =345 */
(PID.TID 0000.0001)                 2.491250781852558E+05,      /* I =346 */
(PID.TID 0000.0001)                 2.365892017348392E+05,      /* I =347 */
(PID.TID 0000.0001)                 2.220405216043041E+05,      /* I =348 */
(PID.TID 0000.0001)                 2.048868197919576E+05,      /* I =349 */
(PID.TID 0000.0001)                 1.840412227747703E+05,      /* I =350 */
(PID.TID 0000.0001)                 1.572908084538706E+05,      /* I =351 */
(PID.TID 0000.0001)                 1.202082051331828E+05,      /* I =352 */
(PID.TID 0000.0001)                 3.012190981969055E+05,      /* I =353 */
(PID.TID 0000.0001)                 3.016675528553907E+05,      /* I =354 */
(PID.TID 0000.0001)                 3.025451404065074E+05,      /* I =355 */
(PID.TID 0000.0001)                 3.038143430929827E+05,      /* I =356 */
(PID.TID 0000.0001)                 3.054215712079756E+05,      /* I =357 */
(PID.TID 0000.0001)                 3.073000594641912E+05,      /* I =358 */
(PID.TID 0000.0001)                 3.093732589453273E+05,      /* I =359 */
(PID.TID 0000.0001)                 3.115584474900804E+05,      /* I =360 */
(PID.TID 0000.0001)                 3.137703202065625E+05,      /* I =361 */
(PID.TID 0000.0001)                 3.159243816151009E+05,      /* I =362 */
(PID.TID 0000.0001)                 3.179400237154126E+05,      /* I =363 */
(PID.TID 0000.0001)                 3.197432274745630E+05,      /* I =364 */
(PID.TID 0000.0001)                 3.212688630823077E+05,      /* I =365 */
(PID.TID 0000.0001)                 3.224625867238719E+05,      /* I =366 */
(PID.TID 0000.0001)                 3.232823418193404E+05,      /* I =367 */
(PID.TID 0000.0001)     2 @  3.236994750082736E+05,             /* I =368:369 */
(PID.TID 0000.0001)                 3.232823418193404E+05,      /* I =370 */
(PID.TID 0000.0001)                 3.224625867238719E+05,      /* I =371 */
(PID.TID 0000.0001)                 3.212688630823077E+05,      /* I =372 */
(PID.TID 0000.0001)                 3.197432274745630E+05,      /* I =373 */
(PID.TID 0000.0001)                 3.179400237154126E+05,      /* I =374 */
(PID.TID 0000.0001)                 3.159243816151009E+05,      /* I =375 */
(PID.TID 0000.0001)                 3.137703202065625E+05,      /* I =376 */
(PID.TID 0000.0001)                 3.115584474900804E+05,      /* I =377 */
(PID.TID 0000.0001)                 3.093732589453273E+05,      /* I =378 */
(PID.TID 0000.0001)                 3.073000594641912E+05,      /* I =379 */
(PID.TID 0000.0001)                 3.054215712079756E+05,      /* I =380 */
(PID.TID 0000.0001)                 3.038143430929827E+05,      /* I =381 */
(PID.TID 0000.0001)                 3.025451404065074E+05,      /* I =382 */
(PID.TID 0000.0001)                 3.016675528553907E+05,      /* I =383 */
(PID.TID 0000.0001)                 3.012190981969055E+05       /* I =384 */
(PID.TID 0000.0001)     ;
(PID.TID 0000.0001) dyF =  /* dyF(1,:,1,:) ( m - cartesian, degrees - spherical ) */
(PID.TID 0000.0001)                 1.202082051331828E+05,      /* J =  1 */
(PID.TID 0000.0001)                 1.563594089971120E+05,      /* J =  2 */
(PID.TID 0000.0001)                 1.835530058121492E+05,      /* J =  3 */
(PID.TID 0000.0001)                 2.045883481718707E+05,      /* J =  4 */
(PID.TID 0000.0001)                 2.218350349844185E+05,      /* J =  5 */
(PID.TID 0000.0001)                 2.364352994647058E+05,      /* J =  6 */
(PID.TID 0000.0001)                 2.490022710862746E+05,      /* J =  7 */
(PID.TID 0000.0001)                 2.598919724358304E+05,      /* J =  8 */
(PID.TID 0000.0001)                 2.693210245495156E+05,      /* J =  9 */
(PID.TID 0000.0001)                 2.774243179696503E+05,      /* J = 10 */
(PID.TID 0000.0001)                 2.842862532064524E+05,      /* J = 11 */
(PID.TID 0000.0001)                 2.899590699694043E+05,      /* J = 12 */
(PID.TID 0000.0001)                 2.944742915095688E+05,      /* J = 13 */
(PID.TID 0000.0001)                 2.978501920522794E+05,      /* J = 14 */
(PID.TID 0000.0001)                 3.000967749619962E+05,      /* J = 15 */
(PID.TID 0000.0001)                 3.012190981969055E+05       /* J = 16 */
(PID.TID 0000.0001)     ;
(PID.TID 0000.0001) dxG =  /* dxG(:,1,:,1) ( m - cartesian, degrees - spherical ) */
(PID.TID 0000.0001)                 1.009837800879055E+05,      /* I =  1 */
(PID.TID 0000.0001)                 1.534505834330338E+05,      /* I =  2 */
(PID.TID 0000.0001)                 1.823321598773926E+05,      /* I =  3 */
(PID.TID 0000.0001)                 2.038999045536999E+05,      /* I =  4 */
(PID.TID 0000.0001)                 2.213884732245467E+05,      /* I =  5 */
(PID.TID 0000.0001)                 2.361211699596122E+05,      /* I =  6 */
(PID.TID 0000.0001)                 2.487693460283865E+05,      /* I =  7 */
(PID.TID 0000.0001)                 2.597126963772147E+05,      /* I =  8 */
(PID.TID 0000.0001)                 2.691790288994575E+05,      /* I =  9 */
(PID.TID 0000.0001)                 2.773091043277394E+05,      /* I = 10 */
(PID.TID 0000.0001)                 2.841906470085516E+05,      /* I = 11 */
(PID.TID 0000.0001)                 2.898778860929753E+05,      /* I = 12 */
(PID.TID 0000.0001)                 2.944035815526416E+05,      /* I = 13 */
(PID.TID 0000.0001)                 2.977867909042096E+05,      /* I = 14 */
(PID.TID 0000.0001)                 3.000380090330854E+05,      /* I = 15 */
(PID.TID 0000.0001)     2 @  3.011625828699101E+05,             /* I = 16: 17 */
(PID.TID 0000.0001)                 3.000380090330854E+05,      /* I = 18 */
(PID.TID 0000.0001)                 2.977867909042096E+05,      /* I = 19 */
(PID.TID 0000.0001)                 2.944035815526416E+05,      /* I = 20 */
(PID.TID 0000.0001)                 2.898778860929753E+05,      /* I = 21 */
(PID.TID 0000.0001)                 2.841906470085516E+05,      /* I = 22 */
(PID.TID 0000.0001)                 2.773091043277394E+05,      /* I = 23 */
(PID.TID 0000.0001)                 2.691790288994575E+05,      /* I = 24 */
(PID.TID 0000.0001)                 2.597126963772147E+05,      /* I = 25 */
(PID.TID 0000.0001)                 2.487693460283865E+05,      /* I = 26 */
(PID.TID 0000.0001)                 2.361211699596122E+05,      /* I = 27 */
(PID.TID 0000.0001)                 2.213884732245467E+05,      /* I = 28 */
(PID.TID 0000.0001)                 2.038999045536999E+05,      /* I = 29 */
(PID.TID 0000.0001)                 1.823321598773926E+05,      /* I = 30 */
(PID.TID 0000.0001)                 1.534505834330338E+05,      /* I = 31 */
(PID.TID 0000.0001)                 1.009837800879055E+05,      /* I = 32 */
(PID.TID 0000.0001)                 3.014246674484008E+05,      /* I = 33 */
(PID.TID 0000.0001)                 3.018694497480782E+05,      /* I = 34 */
(PID.TID 0000.0001)                 3.027399364062562E+05,      /* I = 35 */
(PID.TID 0000.0001)                 3.039990657490951E+05,      /* I = 36 */
(PID.TID 0000.0001)                 3.055938607351786E+05,      /* I = 37 */
(PID.TID 0000.0001)                 3.074582577767738E+05,      /* I = 38 */
(PID.TID 0000.0001)                 3.095164322685570E+05,      /* I = 39 */
(PID.TID 0000.0001)                 3.116863538419811E+05,      /* I = 40 */
(PID.TID 0000.0001)                 3.138833384868975E+05,      /* I = 41 */
(PID.TID 0000.0001)                 3.160234197751047E+05,      /* I = 42 */
(PID.TID 0000.0001)                 3.180264208293543E+05,      /* I = 43 */
(PID.TID 0000.0001)                 3.198186602283748E+05,      /* I = 44 */
(PID.TID 0000.0001)                 3.213352627063766E+05,      /* I = 45 */
(PID.TID 0000.0001)                 3.225220686282585E+05,      /* I = 46 */
(PID.TID 0000.0001)                 3.233371474853745E+05,      /* I = 47 */
(PID.TID 0000.0001)     2 @  3.237519587277332E+05,             /* I = 48: 49 */
(PID.TID 0000.0001)                 3.233371474853745E+05,      /* I = 50 */
(PID.TID 0000.0001)                 3.225220686282585E+05,      /* I = 51 */
(PID.TID 0000.0001)                 3.213352627063766E+05,      /* I = 52 */
(PID.TID 0000.0001)                 3.198186602283748E+05,      /* I = 53 */
(PID.TID 0000.0001)                 3.180264208293543E+05,      /* I = 54 */
(PID.TID 0000.0001)                 3.160234197751047E+05,      /* I = 55 */
(PID.TID 0000.0001)                 3.138833384868975E+05,      /* I = 56 */
(PID.TID 0000.0001)                 3.116863538419811E+05,      /* I = 57 */
(PID.TID 0000.0001)                 3.095164322685570E+05,      /* I = 58 */
(PID.TID 0000.0001)                 3.074582577767738E+05,      /* I = 59 */
(PID.TID 0000.0001)                 3.055938607351786E+05,      /* I = 60 */
(PID.TID 0000.0001)                 3.039990657490951E+05,      /* I = 61 */
(PID.TID 0000.0001)                 3.027399364062562E+05,      /* I = 62 */
(PID.TID 0000.0001)                 3.018694497480782E+05,      /* I = 63 */
(PID.TID 0000.0001)                 3.014246674484008E+05,      /* I = 64 */
(PID.TID 0000.0001)                 1.009837800879055E+05,      /* I = 65 */
(PID.TID 0000.0001)                 1.534505834330338E+05,      /* I = 66 */
(PID.TID 0000.0001)                 1.823321598773926E+05,      /* I = 67 */
(PID.TID 0000.0001)                 2.038999045536999E+05,      /* I = 68 */
(PID.TID 0000.0001)                 2.213884732245467E+05,      /* I = 69 */
(PID.TID 0000.0001)                 2.361211699596122E+05,      /* I = 70 */
(PID.TID 0000.0001)                 2.487693460283865E+05,      /* I = 71 */
(PID.TID 0000.0001)                 2.597126963772147E+05,      /* I = 72 */
(PID.TID 0000.0001)                 2.691790288994575E+05,      /* I = 73 */
(PID.TID 0000.0001)                 2.773091043277394E+05,      /* I = 74 */
(PID.TID 0000.0001)                 2.841906470085516E+05,      /* I = 75 */
(PID.TID 0000.0001)                 2.898778860929753E+05,      /* I = 76 */
(PID.TID 0000.0001)                 2.944035815526416E+05,      /* I = 77 */
(PID.TID 0000.0001)                 2.977867909042096E+05,      /* I = 78 */
(PID.TID 0000.0001)                 3.000380090330854E+05,      /* I = 79 */
(PID.TID 0000.0001)     2 @  3.011625828699101E+05,             /* I = 80: 81 */
(PID.TID 0000.0001)                 3.000380090330854E+05,      /* I = 82 */
(PID.TID 0000.0001)                 2.977867909042096E+05,      /* I = 83 */
(PID.TID 0000.0001)                 2.944035815526416E+05,      /* I = 84 */
(PID.TID 0000.0001)                 2.898778860929753E+05,      /* I = 85 */
(PID.TID 0000.0001)                 2.841906470085516E+05,      /* I = 86 */
(PID.TID 0000.0001)                 2.773091043277394E+05,      /* I = 87 */
(PID.TID 0000.0001)                 2.691790288994575E+05,      /* I = 88 */
(PID.TID 0000.0001)                 2.597126963772147E+05,      /* I = 89 */
(PID.TID 0000.0001)                 2.487693460283865E+05,      /* I = 90 */
(PID.TID 0000.0001)                 2.361211699596122E+05,      /* I = 91 */
(PID.TID 0000.0001)                 2.213884732245467E+05,      /* I = 92 */
(PID.TID 0000.0001)                 2.038999045536999E+05,      /* I = 93 */
(PID.TID 0000.0001)                 1.823321598773926E+05,      /* I = 94 */
(PID.TID 0000.0001)                 1.534505834330338E+05,      /* I = 95 */
(PID.TID 0000.0001)                 1.009837800879055E+05,      /* I = 96 */
(PID.TID 0000.0001)                 3.014246674484008E+05,      /* I = 97 */
(PID.TID 0000.0001)                 3.018694497480782E+05,      /* I = 98 */
(PID.TID 0000.0001)                 3.027399364062562E+05,      /* I = 99 */
(PID.TID 0000.0001)                 3.039990657490951E+05,      /* I =100 */
(PID.TID 0000.0001)                 3.055938607351786E+05,      /* I =101 */
(PID.TID 0000.0001)                 3.074582577767738E+05,      /* I =102 */
(PID.TID 0000.0001)                 3.095164322685570E+05,      /* I =103 */
(PID.TID 0000.0001)                 3.116863538419811E+05,      /* I =104 */
(PID.TID 0000.0001)                 3.138833384868975E+05,      /* I =105 */
(PID.TID 0000.0001)                 3.160234197751047E+05,      /* I =106 */
(PID.TID 0000.0001)                 3.180264208293543E+05,      /* I =107 */
(PID.TID 0000.0001)                 3.198186602283748E+05,      /* I =108 */
(PID.TID 0000.0001)                 3.213352627063766E+05,      /* I =109 */
(PID.TID 0000.0001)                 3.225220686282585E+05,      /* I =110 */
(PID.TID 0000.0001)                 3.233371474853745E+05,      /* I =111 */
(PID.TID 0000.0001)     2 @  3.237519587277332E+05,             /* I =112:113 */
(PID.TID 0000.0001)                 3.233371474853745E+05,      /* I =114 */
(PID.TID 0000.0001)                 3.225220686282585E+05,      /* I =115 */
(PID.TID 0000.0001)                 3.213352627063766E+05,      /* I =116 */
(PID.TID 0000.0001)                 3.198186602283748E+05,      /* I =117 */
(PID.TID 0000.0001)                 3.180264208293543E+05,      /* I =118 */
(PID.TID 0000.0001)                 3.160234197751047E+05,      /* I =119 */
(PID.TID 0000.0001)                 3.138833384868975E+05,      /* I =120 */
(PID.TID 0000.0001)                 3.116863538419811E+05,      /* I =121 */
(PID.TID 0000.0001)                 3.095164322685570E+05,      /* I =122 */
(PID.TID 0000.0001)                 3.074582577767738E+05,      /* I =123 */
(PID.TID 0000.0001)                 3.055938607351786E+05,      /* I =124 */
(PID.TID 0000.0001)                 3.039990657490951E+05,      /* I =125 */
(PID.TID 0000.0001)                 3.027399364062562E+05,      /* I =126 */
(PID.TID 0000.0001)                 3.018694497480782E+05,      /* I =127 */
(PID.TID 0000.0001)                 3.014246674484008E+05,      /* I =128 */
(PID.TID 0000.0001)                 1.009837800879055E+05,      /* I =129 */
(PID.TID 0000.0001)                 1.534505834330338E+05,      /* I =130 */
(PID.TID 0000.0001)                 1.823321598773926E+05,      /* I =131 */
(PID.TID 0000.0001)                 2.038999045536999E+05,      /* I =132 */
(PID.TID 0000.0001)                 2.213884732245467E+05,      /* I =133 */
(PID.TID 0000.0001)                 2.361211699596122E+05,      /* I =134 */
(PID.TID 0000.0001)                 2.487693460283865E+05,      /* I =135 */
(PID.TID 0000.0001)                 2.597126963772147E+05,      /* I =136 */
(PID.TID 0000.0001)                 2.691790288994575E+05,      /* I =137 */
(PID.TID 0000.0001)                 2.773091043277394E+05,      /* I =138 */
(PID.TID 0000.0001)                 2.841906470085516E+05,      /* I =139 */
(PID.TID 0000.0001)                 2.898778860929753E+05,      /* I =140 */
(PID.TID 0000.0001)                 2.944035815526416E+05,      /* I =141 */
(PID.TID 0000.0001)                 2.977867909042096E+05,      /* I =142 */
(PID.TID 0000.0001)                 3.000380090330854E+05,      /* I =143 */
(PID.TID 0000.0001)     2 @  3.011625828699101E+05,             /* I =144:145 */
(PID.TID 0000.0001)                 3.000380090330854E+05,      /* I =146 */
(PID.TID 0000.0001)                 2.977867909042096E+05,      /* I =147 */
(PID.TID 0000.0001)                 2.944035815526416E+05,      /* I =148 */
(PID.TID 0000.0001)                 2.898778860929753E+05,      /* I =149 */
(PID.TID 0000.0001)                 2.841906470085516E+05,      /* I =150 */
(PID.TID 0000.0001)                 2.773091043277394E+05,      /* I =151 */
(PID.TID 0000.0001)                 2.691790288994575E+05,      /* I =152 */
(PID.TID 0000.0001)                 2.597126963772147E+05,      /* I =153 */
(PID.TID 0000.0001)                 2.487693460283865E+05,      /* I =154 */
(PID.TID 0000.0001)                 2.361211699596122E+05,      /* I =155 */
(PID.TID 0000.0001)                 2.213884732245467E+05,      /* I =156 */
(PID.TID 0000.0001)                 2.038999045536999E+05,      /* I =157 */
(PID.TID 0000.0001)                 1.823321598773926E+05,      /* I =158 */
(PID.TID 0000.0001)                 1.534505834330338E+05,      /* I =159 */
(PID.TID 0000.0001)                 1.009837800879055E+05,      /* I =160 */
(PID.TID 0000.0001)                 3.014246674484008E+05,      /* I =161 */
(PID.TID 0000.0001)                 3.018694497480782E+05,      /* I =162 */
(PID.TID 0000.0001)                 3.027399364062562E+05,      /* I =163 */
(PID.TID 0000.0001)                 3.039990657490951E+05,      /* I =164 */
(PID.TID 0000.0001)                 3.055938607351786E+05,      /* I =165 */
(PID.TID 0000.0001)                 3.074582577767738E+05,      /* I =166 */
(PID.TID 0000.0001)                 3.095164322685570E+05,      /* I =167 */
(PID.TID 0000.0001)                 3.116863538419811E+05,      /* I =168 */
(PID.TID 0000.0001)                 3.138833384868975E+05,      /* I =169 */
(PID.TID 0000.0001)                 3.160234197751047E+05,      /* I =170 */
(PID.TID 0000.0001)                 3.180264208293543E+05,      /* I =171 */
(PID.TID 0000.0001)                 3.198186602283748E+05,      /* I =172 */
(PID.TID 0000.0001)                 3.213352627063766E+05,      /* I =173 */
(PID.TID 0000.0001)                 3.225220686282585E+05,      /* I =174 */
(PID.TID 0000.0001)                 3.233371474853745E+05,      /* I =175 */
(PID.TID 0000.0001)     2 @  3.237519587277332E+05,             /* I =176:177 */
(PID.TID 0000.0001)                 3.233371474853745E+05,      /* I =178 */
(PID.TID 0000.0001)                 3.225220686282585E+05,      /* I =179 */
(PID.TID 0000.0001)                 3.213352627063766E+05,      /* I =180 */
(PID.TID 0000.0001)                 3.198186602283748E+05,      /* I =181 */
(PID.TID 0000.0001)                 3.180264208293543E+05,      /* I =182 */
(PID.TID 0000.0001)                 3.160234197751047E+05,      /* I =183 */
(PID.TID 0000.0001)                 3.138833384868975E+05,      /* I =184 */
(PID.TID 0000.0001)                 3.116863538419811E+05,      /* I =185 */
(PID.TID 0000.0001)                 3.095164322685570E+05,      /* I =186 */
(PID.TID 0000.0001)                 3.074582577767738E+05,      /* I =187 */
(PID.TID 0000.0001)                 3.055938607351786E+05,      /* I =188 */
(PID.TID 0000.0001)                 3.039990657490951E+05,      /* I =189 */
(PID.TID 0000.0001)                 3.027399364062562E+05,      /* I =190 */
(PID.TID 0000.0001)                 3.018694497480782E+05,      /* I =191 */
(PID.TID 0000.0001)                 3.014246674484008E+05,      /* I =192 */
(PID.TID 0000.0001)                 1.009837800879055E+05,      /* I =193 */
(PID.TID 0000.0001)                 1.534505834330338E+05,      /* I =194 */
(PID.TID 0000.0001)                 1.823321598773926E+05,      /* I =195 */
(PID.TID 0000.0001)                 2.038999045536999E+05,      /* I =196 */
(PID.TID 0000.0001)                 2.213884732245467E+05,      /* I =197 */
(PID.TID 0000.0001)                 2.361211699596122E+05,      /* I =198 */
(PID.TID 0000.0001)                 2.487693460283865E+05,      /* I =199 */
(PID.TID 0000.0001)                 2.597126963772147E+05,      /* I =200 */
(PID.TID 0000.0001)                 2.691790288994575E+05,      /* I =201 */
(PID.TID 0000.0001)                 2.773091043277394E+05,      /* I =202 */
(PID.TID 0000.0001)                 2.841906470085516E+05,      /* I =203 */
(PID.TID 0000.0001)                 2.898778860929753E+05,      /* I =204 */
(PID.TID 0000.0001)                 2.944035815526416E+05,      /* I =205 */
(PID.TID 0000.0001)                 2.977867909042096E+05,      /* I =206 */
(PID.TID 0000.0001)                 3.000380090330854E+05,      /* I =207 */
(PID.TID 0000.0001)     2 @  3.011625828699101E+05,             /* I =208:209 */
(PID.TID 0000.0001)                 3.000380090330854E+05,      /* I =210 */
(PID.TID 0000.0001)                 2.977867909042096E+05,      /* I =211 */
(PID.TID 0000.0001)                 2.944035815526416E+05,      /* I =212 */
(PID.TID 0000.0001)                 2.898778860929753E+05,      /* I =213 */
(PID.TID 0000.0001)                 2.841906470085516E+05,      /* I =214 */
(PID.TID 0000.0001)                 2.773091043277394E+05,      /* I =215 */
(PID.TID 0000.0001)                 2.691790288994575E+05,      /* I =216 */
(PID.TID 0000.0001)                 2.597126963772147E+05,      /* I =217 */
(PID.TID 0000.0001)                 2.487693460283865E+05,      /* I =218 */
(PID.TID 0000.0001)                 2.361211699596122E+05,      /* I =219 */
(PID.TID 0000.0001)                 2.213884732245467E+05,      /* I =220 */
(PID.TID 0000.0001)                 2.038999045536999E+05,      /* I =221 */
(PID.TID 0000.0001)                 1.823321598773926E+05,      /* I =222 */
(PID.TID 0000.0001)                 1.534505834330338E+05,      /* I =223 */
(PID.TID 0000.0001)                 1.009837800879055E+05,      /* I =224 */
(PID.TID 0000.0001)                 3.014246674484008E+05,      /* I =225 */
(PID.TID 0000.0001)                 3.018694497480782E+05,      /* I =226 */
(PID.TID 0000.0001)                 3.027399364062562E+05,      /* I =227 */
(PID.TID 0000.0001)                 3.039990657490951E+05,      /* I =228 */
(PID.TID 0000.0001)                 3.055938607351786E+05,      /* I =229 */
(PID.TID 0000.0001)                 3.074582577767738E+05,      /* I =230 */
(PID.TID 0000.0001)                 3.095164322685570E+05,      /* I =231 */
(PID.TID 0000.0001)                 3.116863538419811E+05,      /* I =232 */
(PID.TID 0000.0001)                 3.138833384868975E+05,      /* I =233 */
(PID.TID 0000.0001)                 3.160234197751047E+05,      /* I =234 */
(PID.TID 0000.0001)                 3.180264208293543E+05,      /* I =235 */
(PID.TID 0000.0001)                 3.198186602283748E+05,      /* I =236 */
(PID.TID 0000.0001)                 3.213352627063766E+05,      /* I =237 */
(PID.TID 0000.0001)                 3.225220686282585E+05,      /* I =238 */
(PID.TID 0000.0001)                 3.233371474853745E+05,      /* I =239 */
(PID.TID 0000.0001)     2 @  3.237519587277332E+05,             /* I =240:241 */
(PID.TID 0000.0001)                 3.233371474853745E+05,      /* I =242 */
(PID.TID 0000.0001)                 3.225220686282585E+05,      /* I =243 */
(PID.TID 0000.0001)                 3.213352627063766E+05,      /* I =244 */
(PID.TID 0000.0001)                 3.198186602283748E+05,      /* I =245 */
(PID.TID 0000.0001)                 3.180264208293543E+05,      /* I =246 */
(PID.TID 0000.0001)                 3.160234197751047E+05,      /* I =247 */
(PID.TID 0000.0001)                 3.138833384868975E+05,      /* I =248 */
(PID.TID 0000.0001)                 3.116863538419811E+05,      /* I =249 */
(PID.TID 0000.0001)                 3.095164322685570E+05,      /* I =250 */
(PID.TID 0000.0001)                 3.074582577767738E+05,      /* I =251 */
(PID.TID 0000.0001)                 3.055938607351786E+05,      /* I =252 */
(PID.TID 0000.0001)                 3.039990657490951E+05,      /* I =253 */
(PID.TID 0000.0001)                 3.027399364062562E+05,      /* I =254 */
(PID.TID 0000.0001)                 3.018694497480782E+05,      /* I =255 */
(PID.TID 0000.0001)                 3.014246674484008E+05,      /* I =256 */
(PID.TID 0000.0001)                 1.009837800879055E+05,      /* I =257 */
(PID.TID 0000.0001)                 1.534505834330338E+05,      /* I =258 */
(PID.TID 0000.0001)                 1.823321598773926E+05,      /* I =259 */
(PID.TID 0000.0001)                 2.038999045536999E+05,      /* I =260 */
(PID.TID 0000.0001)                 2.213884732245467E+05,      /* I =261 */
(PID.TID 0000.0001)                 2.361211699596122E+05,      /* I =262 */
(PID.TID 0000.0001)                 2.487693460283865E+05,      /* I =263 */
(PID.TID 0000.0001)                 2.597126963772147E+05,      /* I =264 */
(PID.TID 0000.0001)                 2.691790288994575E+05,      /* I =265 */
(PID.TID 0000.0001)                 2.773091043277394E+05,      /* I =266 */
(PID.TID 0000.0001)                 2.841906470085516E+05,      /* I =267 */
(PID.TID 0000.0001)                 2.898778860929753E+05,      /* I =268 */
(PID.TID 0000.0001)                 2.944035815526416E+05,      /* I =269 */
(PID.TID 0000.0001)                 2.977867909042096E+05,      /* I =270 */
(PID.TID 0000.0001)                 3.000380090330854E+05,      /* I =271 */
(PID.TID 0000.0001)     2 @  3.011625828699101E+05,             /* I =272:273 */
(PID.TID 0000.0001)                 3.000380090330854E+05,      /* I =274 */
(PID.TID 0000.0001)                 2.977867909042096E+05,      /* I =275 */
(PID.TID 0000.0001)                 2.944035815526416E+05,      /* I =276 */
(PID.TID 0000.0001)                 2.898778860929753E+05,      /* I =277 */
(PID.TID 0000.0001)                 2.841906470085516E+05,      /* I =278 */
(PID.TID 0000.0001)                 2.773091043277394E+05,      /* I =279 */
(PID.TID 0000.0001)                 2.691790288994575E+05,      /* I =280 */
(PID.TID 0000.0001)                 2.597126963772147E+05,      /* I =281 */
(PID.TID 0000.0001)                 2.487693460283865E+05,      /* I =282 */
(PID.TID 0000.0001)                 2.361211699596122E+05,      /* I =283 */
(PID.TID 0000.0001)                 2.213884732245467E+05,      /* I =284 */
(PID.TID 0000.0001)                 2.038999045536999E+05,      /* I =285 */
(PID.TID 0000.0001)                 1.823321598773926E+05,      /* I =286 */
(PID.TID 0000.0001)                 1.534505834330338E+05,      /* I =287 */
(PID.TID 0000.0001)                 1.009837800879055E+05,      /* I =288 */
(PID.TID 0000.0001)                 3.014246674484008E+05,      /* I =289 */
(PID.TID 0000.0001)                 3.018694497480782E+05,      /* I =290 */
(PID.TID 0000.0001)                 3.027399364062562E+05,      /* I =291 */
(PID.TID 0000.0001)                 3.039990657490951E+05,      /* I =292 */
(PID.TID 0000.0001)                 3.055938607351786E+05,      /* I =293 */
(PID.TID 0000.0001)                 3.074582577767738E+05,      /* I =294 */
(PID.TID 0000.0001)                 3.095164322685570E+05,      /* I =295 */
(PID.TID 0000.0001)                 3.116863538419811E+05,      /* I =296 */
(PID.TID 0000.0001)                 3.138833384868975E+05,      /* I =297 */
(PID.TID 0000.0001)                 3.160234197751047E+05,      /* I =298 */
(PID.TID 0000.0001)                 3.180264208293543E+05,      /* I =299 */
(PID.TID 0000.0001)                 3.198186602283748E+05,      /* I =300 */
(PID.TID 0000.0001)                 3.213352627063766E+05,      /* I =301 */
(PID.TID 0000.0001)                 3.225220686282585E+05,      /* I =302 */
(PID.TID 0000.0001)                 3.233371474853745E+05,      /* I =303 */
(PID.TID 0000.0001)     2 @  3.237519587277332E+05,             /* I =304:305 */
(PID.TID 0000.0001)                 3.233371474853745E+05,      /* I =306 */
(PID.TID 0000.0001)                 3.225220686282585E+05,      /* I =307 */
(PID.TID 0000.0001)                 3.213352627063766E+05,      /* I =308 */
(PID.TID 0000.0001)                 3.198186602283748E+05,      /* I =309 */
(PID.TID 0000.0001)                 3.180264208293543E+05,      /* I =310 */
(PID.TID 0000.0001)                 3.160234197751047E+05,      /* I =311 */
(PID.TID 0000.0001)                 3.138833384868975E+05,      /* I =312 */
(PID.TID 0000.0001)                 3.116863538419811E+05,      /* I =313 */
(PID.TID 0000.0001)                 3.095164322685570E+05,      /* I =314 */
(PID.TID 0000.0001)                 3.074582577767738E+05,      /* I =315 */
(PID.TID 0000.0001)                 3.055938607351786E+05,      /* I =316 */
(PID.TID 0000.0001)                 3.039990657490951E+05,      /* I =317 */
(PID.TID 0000.0001)                 3.027399364062562E+05,      /* I =318 */
(PID.TID 0000.0001)                 3.018694497480782E+05,      /* I =319 */
(PID.TID 0000.0001)                 3.014246674484008E+05,      /* I =320 */
(PID.TID 0000.0001)                 1.009837800879055E+05,      /* I =321 */
(PID.TID 0000.0001)                 1.534505834330338E+05,      /* I =322 */
(PID.TID 0000.0001)                 1.823321598773926E+05,      /* I =323 */
(PID.TID 0000.0001)                 2.038999045536999E+05,      /* I =324 */
(PID.TID 0000.0001)                 2.213884732245467E+05,      /* I =325 */
(PID.TID 0000.0001)                 2.361211699596122E+05,      /* I =326 */
(PID.TID 0000.0001)                 2.487693460283865E+05,      /* I =327 */
(PID.TID 0000.0001)                 2.597126963772147E+05,      /* I =328 */
(PID.TID 0000.0001)                 2.691790288994575E+05,      /* I =329 */
(PID.TID 0000.0001)                 2.773091043277394E+05,      /* I =330 */
(PID.TID 0000.0001)                 2.841906470085516E+05,      /* I =331 */
(PID.TID 0000.0001)                 2.898778860929753E+05,      /* I =332 */
(PID.TID 0000.0001)                 2.944035815526416E+05,      /* I =333 */
(PID.TID 0000.0001)                 2.977867909042096E+05,      /* I =334 */
(PID.TID 0000.0001)                 3.000380090330854E+05,      /* I =335 */
(PID.TID 0000.0001)     2 @  3.011625828699101E+05,             /* I =336:337 */
(PID.TID 0000.0001)                 3.000380090330854E+05,      /* I =338 */
(PID.TID 0000.0001)                 2.977867909042096E+05,      /* I =339 */
(PID.TID 0000.0001)                 2.944035815526416E+05,      /* I =340 */
(PID.TID 0000.0001)                 2.898778860929753E+05,      /* I =341 */
(PID.TID 0000.0001)                 2.841906470085516E+05,      /* I =342 */
(PID.TID 0000.0001)                 2.773091043277394E+05,      /* I =343 */
(PID.TID 0000.0001)                 2.691790288994575E+05,      /* I =344 */
(PID.TID 0000.0001)                 2.597126963772147E+05,      /* I =345 */
(PID.TID 0000.0001)                 2.487693460283865E+05,      /* I =346 */
(PID.TID 0000.0001)                 2.361211699596122E+05,      /* I =347 */
(PID.TID 0000.0001)                 2.213884732245467E+05,      /* I =348 */
(PID.TID 0000.0001)                 2.038999045536999E+05,      /* I =349 */
(PID.TID 0000.0001)                 1.823321598773926E+05,      /* I =350 */
(PID.TID 0000.0001)                 1.534505834330338E+05,      /* I =351 */
(PID.TID 0000.0001)                 1.009837800879055E+05,      /* I =352 */
(PID.TID 0000.0001)                 3.014246674484008E+05,      /* I =353 */
(PID.TID 0000.0001)                 3.018694497480782E+05,      /* I =354 */
(PID.TID 0000.0001)                 3.027399364062562E+05,      /* I =355 */
(PID.TID 0000.0001)                 3.039990657490951E+05,      /* I =356 */
(PID.TID 0000.0001)                 3.055938607351786E+05,      /* I =357 */
(PID.TID 0000.0001)                 3.074582577767738E+05,      /* I =358 */
(PID.TID 0000.0001)                 3.095164322685570E+05,      /* I =359 */
(PID.TID 0000.0001)                 3.116863538419811E+05,      /* I =360 */
(PID.TID 0000.0001)                 3.138833384868975E+05,      /* I =361 */
(PID.TID 0000.0001)                 3.160234197751047E+05,      /* I =362 */
(PID.TID 0000.0001)                 3.180264208293543E+05,      /* I =363 */
(PID.TID 0000.0001)                 3.198186602283748E+05,      /* I =364 */
(PID.TID 0000.0001)                 3.213352627063766E+05,      /* I =365 */
(PID.TID 0000.0001)                 3.225220686282585E+05,      /* I =366 */
(PID.TID 0000.0001)                 3.233371474853745E+05,      /* I =367 */
(PID.TID 0000.0001)     2 @  3.237519587277332E+05,             /* I =368:369 */
(PID.TID 0000.0001)                 3.233371474853745E+05,      /* I =370 */
(PID.TID 0000.0001)                 3.225220686282585E+05,      /* I =371 */
(PID.TID 0000.0001)                 3.213352627063766E+05,      /* I =372 */
(PID.TID 0000.0001)                 3.198186602283748E+05,      /* I =373 */
(PID.TID 0000.0001)                 3.180264208293543E+05,      /* I =374 */
(PID.TID 0000.0001)                 3.160234197751047E+05,      /* I =375 */
(PID.TID 0000.0001)                 3.138833384868975E+05,      /* I =376 */
(PID.TID 0000.0001)                 3.116863538419811E+05,      /* I =377 */
(PID.TID 0000.0001)                 3.095164322685570E+05,      /* I =378 */
(PID.TID 0000.0001)                 3.074582577767738E+05,      /* I =379 */
(PID.TID 0000.0001)                 3.055938607351786E+05,      /* I =380 */
(PID.TID 0000.0001)                 3.039990657490951E+05,      /* I =381 */
(PID.TID 0000.0001)                 3.027399364062562E+05,      /* I =382 */
(PID.TID 0000.0001)                 3.018694497480782E+05,      /* I =383 */
(PID.TID 0000.0001)                 3.014246674484008E+05       /* I =384 */
(PID.TID 0000.0001)     ;
(PID.TID 0000.0001) dxG =  /* dxG(1,:,1,:) ( m - cartesian, degrees - spherical ) */
(PID.TID 0000.0001)                 1.009837800879055E+05,      /* J =  1 */
(PID.TID 0000.0001)                 1.403701524205398E+05,      /* J =  2 */
(PID.TID 0000.0001)                 1.716197227386011E+05,      /* J =  3 */
(PID.TID 0000.0001)                 1.950254041626018E+05,      /* J =  4 */
(PID.TID 0000.0001)                 2.138410773065497E+05,      /* J =  5 */
(PID.TID 0000.0001)                 2.295958105911512E+05,      /* J =  6 */
(PID.TID 0000.0001)                 2.430829951739083E+05,      /* J =  7 */
(PID.TID 0000.0001)                 2.547526806712889E+05,      /* J =  8 */
(PID.TID 0000.0001)                 2.648750305193301E+05,      /* J =  9 */
(PID.TID 0000.0001)                 2.736173771018112E+05,      /* J = 10 */
(PID.TID 0000.0001)                 2.810845823202647E+05,      /* J = 11 */
(PID.TID 0000.0001)                 2.873420591008078E+05,      /* J = 12 */
(PID.TID 0000.0001)                 2.924298293668651E+05,      /* J = 13 */
(PID.TID 0000.0001)                 2.963715635865306E+05,      /* J = 14 */
(PID.TID 0000.0001)                 2.991805843171258E+05,      /* J = 15 */
(PID.TID 0000.0001)                 3.008638765647886E+05       /* J = 16 */
(PID.TID 0000.0001)     ;
(PID.TID 0000.0001) dyG =  /* dyG(:,1,:,1) ( m - cartesian, degrees - spherical ) */
(PID.TID 0000.0001)                 1.009837800879055E+05,      /* I =  1 */
(PID.TID 0000.0001)                 1.403701524205398E+05,      /* I =  2 */
(PID.TID 0000.0001)                 1.716197227386011E+05,      /* I =  3 */
(PID.TID 0000.0001)                 1.950254041626018E+05,      /* I =  4 */
(PID.TID 0000.0001)                 2.138410773065497E+05,      /* I =  5 */
(PID.TID 0000.0001)                 2.295958105911512E+05,      /* I =  6 */
(PID.TID 0000.0001)                 2.430829951739083E+05,      /* I =  7 */
(PID.TID 0000.0001)                 2.547526806712889E+05,      /* I =  8 */
(PID.TID 0000.0001)                 2.648750305193301E+05,      /* I =  9 */
(PID.TID 0000.0001)                 2.736173771018112E+05,      /* I = 10 */
(PID.TID 0000.0001)                 2.810845823202647E+05,      /* I = 11 */
(PID.TID 0000.0001)                 2.873420591008078E+05,      /* I = 12 */
(PID.TID 0000.0001)                 2.924298293668651E+05,      /* I = 13 */
(PID.TID 0000.0001)                 2.963715635865306E+05,      /* I = 14 */
(PID.TID 0000.0001)                 2.991805843171258E+05,      /* I = 15 */
(PID.TID 0000.0001)                 3.008638765647886E+05,      /* I = 16 */
(PID.TID 0000.0001)                 3.014246674484008E+05,      /* I = 17 */
(PID.TID 0000.0001)                 3.008638765647886E+05,      /* I = 18 */
(PID.TID 0000.0001)                 2.991805843171258E+05,      /* I = 19 */
(PID.TID 0000.0001)                 2.963715635865306E+05,      /* I = 20 */
(PID.TID 0000.0001)                 2.924298293668651E+05,      /* I = 21 */
(PID.TID 0000.0001)                 2.873420591008078E+05,      /* I = 22 */
(PID.TID 0000.0001)                 2.810845823202647E+05,      /* I = 23 */
(PID.TID 0000.0001)                 2.736173771018112E+05,      /* I = 24 */
(PID.TID 0000.0001)                 2.648750305193301E+05,      /* I = 25 */
(PID.TID 0000.0001)                 2.547526806712889E+05,      /* I = 26 */
(PID.TID 0000.0001)                 2.430829951739083E+05,      /* I = 27 */
(PID.TID 0000.0001)                 2.295958105911512E+05,      /* I = 28 */
(PID.TID 0000.0001)                 2.138410773065497E+05,      /* I = 29 */
(PID.TID 0000.0001)                 1.950254041626018E+05,      /* I = 30 */
(PID.TID 0000.0001)                 1.716197227386011E+05,      /* I = 31 */
(PID.TID 0000.0001)                 1.403701524205398E+05,      /* I = 32 */
(PID.TID 0000.0001)                 3.011625828699101E+05,      /* I = 33 */
(PID.TID 0000.0001)                 3.013880313304323E+05,      /* I = 34 */
(PID.TID 0000.0001)                 3.020546438966793E+05,      /* I = 35 */
(PID.TID 0000.0001)                 3.031337933484788E+05,      /* I = 36 */
(PID.TID 0000.0001)                 3.045796060304602E+05,      /* I = 37 */
(PID.TID 0000.0001)                 3.063315047037455E+05,      /* I = 38 */
(PID.TID 0000.0001)                 3.083173884297931E+05,      /* I = 39 */
(PID.TID 0000.0001)                 3.104571666747115E+05,      /* I = 40 */
(PID.TID 0000.0001)                 3.126663860714039E+05,      /* I = 41 */
(PID.TID 0000.0001)                 3.148597400258051E+05,      /* I = 42 */
(PID.TID 0000.0001)                 3.169543146344334E+05,      /* I = 43 */
(PID.TID 0000.0001)                 3.188724835261090E+05,      /* I = 44 */
(PID.TID 0000.0001)                 3.205444100809708E+05,      /* I = 45 */
(PID.TID 0000.0001)                 3.219101453522735E+05,      /* I = 46 */
(PID.TID 0000.0001)                 3.229213257990267E+05,      /* I = 47 */
(PID.TID 0000.0001)                 3.235424806617432E+05,      /* I = 48 */
(PID.TID 0000.0001)                 3.237519587277332E+05,      /* I = 49 */
(PID.TID 0000.0001)                 3.235424806617432E+05,      /* I = 50 */
(PID.TID 0000.0001)                 3.229213257990267E+05,      /* I = 51 */
(PID.TID 0000.0001)                 3.219101453522735E+05,      /* I = 52 */
(PID.TID 0000.0001)                 3.205444100809708E+05,      /* I = 53 */
(PID.TID 0000.0001)                 3.188724835261090E+05,      /* I = 54 */
(PID.TID 0000.0001)                 3.169543146344334E+05,      /* I = 55 */
(PID.TID 0000.0001)                 3.148597400258051E+05,      /* I = 56 */
(PID.TID 0000.0001)                 3.126663860714039E+05,      /* I = 57 */
(PID.TID 0000.0001)                 3.104571666747115E+05,      /* I = 58 */
(PID.TID 0000.0001)                 3.083173884297931E+05,      /* I = 59 */
(PID.TID 0000.0001)                 3.063315047037455E+05,      /* I = 60 */
(PID.TID 0000.0001)                 3.045796060304602E+05,      /* I = 61 */
(PID.TID 0000.0001)                 3.031337933484788E+05,      /* I = 62 */
(PID.TID 0000.0001)                 3.020546438966793E+05,      /* I = 63 */
(PID.TID 0000.0001)                 3.013880313304323E+05,      /* I = 64 */
(PID.TID 0000.0001)                 1.009837800879055E+05,      /* I = 65 */
(PID.TID 0000.0001)                 1.403701524205398E+05,      /* I = 66 */
(PID.TID 0000.0001)                 1.716197227386011E+05,      /* I = 67 */
(PID.TID 0000.0001)                 1.950254041626018E+05,      /* I = 68 */
(PID.TID 0000.0001)                 2.138410773065497E+05,      /* I = 69 */
(PID.TID 0000.0001)                 2.295958105911512E+05,      /* I = 70 */
(PID.TID 0000.0001)                 2.430829951739083E+05,      /* I = 71 */
(PID.TID 0000.0001)                 2.547526806712889E+05,      /* I = 72 */
(PID.TID 0000.0001)                 2.648750305193301E+05,      /* I = 73 */
(PID.TID 0000.0001)                 2.736173771018112E+05,      /* I = 74 */
(PID.TID 0000.0001)                 2.810845823202647E+05,      /* I = 75 */
(PID.TID 0000.0001)                 2.873420591008078E+05,      /* I = 76 */
(PID.TID 0000.0001)                 2.924298293668651E+05,      /* I = 77 */
(PID.TID 0000.0001)                 2.963715635865306E+05,      /* I = 78 */
(PID.TID 0000.0001)                 2.991805843171258E+05,      /* I = 79 */
(PID.TID 0000.0001)                 3.008638765647886E+05,      /* I = 80 */
(PID.TID 0000.0001)                 3.014246674484008E+05,      /* I = 81 */
(PID.TID 0000.0001)                 3.008638765647886E+05,      /* I = 82 */
(PID.TID 0000.0001)                 2.991805843171258E+05,      /* I = 83 */
(PID.TID 0000.0001)                 2.963715635865306E+05,      /* I = 84 */
(PID.TID 0000.0001)                 2.924298293668651E+05,      /* I = 85 */
(PID.TID 0000.0001)                 2.873420591008078E+05,      /* I = 86 */
(PID.TID 0000.0001)                 2.810845823202647E+05,      /* I = 87 */
(PID.TID 0000.0001)                 2.736173771018112E+05,      /* I = 88 */
(PID.TID 0000.0001)                 2.648750305193301E+05,      /* I = 89 */
(PID.TID 0000.0001)                 2.547526806712889E+05,      /* I = 90 */
(PID.TID 0000.0001)                 2.430829951739083E+05,      /* I = 91 */
(PID.TID 0000.0001)                 2.295958105911512E+05,      /* I = 92 */
(PID.TID 0000.0001)                 2.138410773065497E+05,      /* I = 93 */
(PID.TID 0000.0001)                 1.950254041626018E+05,      /* I = 94 */
(PID.TID 0000.0001)                 1.716197227386011E+05,      /* I = 95 */
(PID.TID 0000.0001)                 1.403701524205398E+05,      /* I = 96 */
(PID.TID 0000.0001)                 3.011625828699101E+05,      /* I = 97 */
(PID.TID 0000.0001)                 3.013880313304323E+05,      /* I = 98 */
(PID.TID 0000.0001)                 3.020546438966793E+05,      /* I = 99 */
(PID.TID 0000.0001)                 3.031337933484788E+05,      /* I =100 */
(PID.TID 0000.0001)                 3.045796060304602E+05,      /* I =101 */
(PID.TID 0000.0001)                 3.063315047037455E+05,      /* I =102 */
(PID.TID 0000.0001)                 3.083173884297931E+05,      /* I =103 */
(PID.TID 0000.0001)                 3.104571666747115E+05,      /* I =104 */
(PID.TID 0000.0001)                 3.126663860714039E+05,      /* I =105 */
(PID.TID 0000.0001)                 3.148597400258051E+05,      /* I =106 */
(PID.TID 0000.0001)                 3.169543146344334E+05,      /* I =107 */
(PID.TID 0000.0001)                 3.188724835261090E+05,      /* I =108 */
(PID.TID 0000.0001)                 3.205444100809708E+05,      /* I =109 */
(PID.TID 0000.0001)                 3.219101453522735E+05,      /* I =110 */
(PID.TID 0000.0001)                 3.229213257990267E+05,      /* I =111 */
(PID.TID 0000.0001)                 3.235424806617432E+05,      /* I =112 */
(PID.TID 0000.0001)                 3.237519587277332E+05,      /* I =113 */
(PID.TID 0000.0001)                 3.235424806617432E+05,      /* I =114 */
(PID.TID 0000.0001)                 3.229213257990267E+05,      /* I =115 */
(PID.TID 0000.0001)                 3.219101453522735E+05,      /* I =116 */
(PID.TID 0000.0001)                 3.205444100809708E+05,      /* I =117 */
(PID.TID 0000.0001)                 3.188724835261090E+05,      /* I =118 */
(PID.TID 0000.0001)                 3.169543146344334E+05,      /* I =119 */
(PID.TID 0000.0001)                 3.148597400258051E+05,      /* I =120 */
(PID.TID 0000.0001)                 3.126663860714039E+05,      /* I =121 */
(PID.TID 0000.0001)                 3.104571666747115E+05,      /* I =122 */
(PID.TID 0000.0001)                 3.083173884297931E+05,      /* I =123 */
(PID.TID 0000.0001)                 3.063315047037455E+05,      /* I =124 */
(PID.TID 0000.0001)                 3.045796060304602E+05,      /* I =125 */
(PID.TID 0000.0001)                 3.031337933484788E+05,      /* I =126 */
(PID.TID 0000.0001)                 3.020546438966793E+05,      /* I =127 */
(PID.TID 0000.0001)                 3.013880313304323E+05,      /* I =128 */
(PID.TID 0000.0001)                 1.009837800879055E+05,      /* I =129 */
(PID.TID 0000.0001)                 1.403701524205398E+05,      /* I =130 */
(PID.TID 0000.0001)                 1.716197227386011E+05,      /* I =131 */
(PID.TID 0000.0001)                 1.950254041626018E+05,      /* I =132 */
(PID.TID 0000.0001)                 2.138410773065497E+05,      /* I =133 */
(PID.TID 0000.0001)                 2.295958105911512E+05,      /* I =134 */
(PID.TID 0000.0001)                 2.430829951739083E+05,      /* I =135 */
(PID.TID 0000.0001)                 2.547526806712889E+05,      /* I =136 */
(PID.TID 0000.0001)                 2.648750305193301E+05,      /* I =137 */
(PID.TID 0000.0001)                 2.736173771018112E+05,      /* I =138 */
(PID.TID 0000.0001)                 2.810845823202647E+05,      /* I =139 */
(PID.TID 0000.0001)                 2.873420591008078E+05,      /* I =140 */
(PID.TID 0000.0001)                 2.924298293668651E+05,      /* I =141 */
(PID.TID 0000.0001)                 2.963715635865306E+05,      /* I =142 */
(PID.TID 0000.0001)                 2.991805843171258E+05,      /* I =143 */
(PID.TID 0000.0001)                 3.008638765647886E+05,      /* I =144 */
(PID.TID 0000.0001)                 3.014246674484008E+05,      /* I =145 */
(PID.TID 0000.0001)                 3.008638765647886E+05,      /* I =146 */
(PID.TID 0000.0001)                 2.991805843171258E+05,      /* I =147 */
(PID.TID 0000.0001)                 2.963715635865306E+05,      /* I =148 */
(PID.TID 0000.0001)                 2.924298293668651E+05,      /* I =149 */
(PID.TID 0000.0001)                 2.873420591008078E+05,      /* I =150 */
(PID.TID 0000.0001)                 2.810845823202647E+05,      /* I =151 */
(PID.TID 0000.0001)                 2.736173771018112E+05,      /* I =152 */
(PID.TID 0000.0001)                 2.648750305193301E+05,      /* I =153 */
(PID.TID 0000.0001)                 2.547526806712889E+05,      /* I =154 */
(PID.TID 0000.0001)                 2.430829951739083E+05,      /* I =155 */
(PID.TID 0000.0001)                 2.295958105911512E+05,      /* I =156 */
(PID.TID 0000.0001)                 2.138410773065497E+05,      /* I =157 */
(PID.TID 0000.0001)                 1.950254041626018E+05,      /* I =158 */
(PID.TID 0000.0001)                 1.716197227386011E+05,      /* I =159 */
(PID.TID 0000.0001)                 1.403701524205398E+05,      /* I =160 */
(PID.TID 0000.0001)                 3.011625828699101E+05,      /* I =161 */
(PID.TID 0000.0001)                 3.013880313304323E+05,      /* I =162 */
(PID.TID 0000.0001)                 3.020546438966793E+05,      /* I =163 */
(PID.TID 0000.0001)                 3.031337933484788E+05,      /* I =164 */
(PID.TID 0000.0001)                 3.045796060304602E+05,      /* I =165 */
(PID.TID 0000.0001)                 3.063315047037455E+05,      /* I =166 */
(PID.TID 0000.0001)                 3.083173884297931E+05,      /* I =167 */
(PID.TID 0000.0001)                 3.104571666747115E+05,      /* I =168 */
(PID.TID 0000.0001)                 3.126663860714039E+05,      /* I =169 */
(PID.TID 0000.0001)                 3.148597400258051E+05,      /* I =170 */
(PID.TID 0000.0001)                 3.169543146344334E+05,      /* I =171 */
(PID.TID 0000.0001)                 3.188724835261090E+05,      /* I =172 */
(PID.TID 0000.0001)                 3.205444100809708E+05,      /* I =173 */
(PID.TID 0000.0001)                 3.219101453522735E+05,      /* I =174 */
(PID.TID 0000.0001)                 3.229213257990267E+05,      /* I =175 */
(PID.TID 0000.0001)                 3.235424806617432E+05,      /* I =176 */
(PID.TID 0000.0001)                 3.237519587277332E+05,      /* I =177 */
(PID.TID 0000.0001)                 3.235424806617432E+05,      /* I =178 */
(PID.TID 0000.0001)                 3.229213257990267E+05,      /* I =179 */
(PID.TID 0000.0001)                 3.219101453522735E+05,      /* I =180 */
(PID.TID 0000.0001)                 3.205444100809708E+05,      /* I =181 */
(PID.TID 0000.0001)                 3.188724835261090E+05,      /* I =182 */
(PID.TID 0000.0001)                 3.169543146344334E+05,      /* I =183 */
(PID.TID 0000.0001)                 3.148597400258051E+05,      /* I =184 */
(PID.TID 0000.0001)                 3.126663860714039E+05,      /* I =185 */
(PID.TID 0000.0001)                 3.104571666747115E+05,      /* I =186 */
(PID.TID 0000.0001)                 3.083173884297931E+05,      /* I =187 */
(PID.TID 0000.0001)                 3.063315047037455E+05,      /* I =188 */
(PID.TID 0000.0001)                 3.045796060304602E+05,      /* I =189 */
(PID.TID 0000.0001)                 3.031337933484788E+05,      /* I =190 */
(PID.TID 0000.0001)                 3.020546438966793E+05,      /* I =191 */
(PID.TID 0000.0001)                 3.013880313304323E+05,      /* I =192 */
(PID.TID 0000.0001)                 1.009837800879055E+05,      /* I =193 */
(PID.TID 0000.0001)                 1.403701524205398E+05,      /* I =194 */
(PID.TID 0000.0001)                 1.716197227386011E+05,      /* I =195 */
(PID.TID 0000.0001)                 1.950254041626018E+05,      /* I =196 */
(PID.TID 0000.0001)                 2.138410773065497E+05,      /* I =197 */
(PID.TID 0000.0001)                 2.295958105911512E+05,      /* I =198 */
(PID.TID 0000.0001)                 2.430829951739083E+05,      /* I =199 */
(PID.TID 0000.0001)                 2.547526806712889E+05,      /* I =200 */
(PID.TID 0000.0001)                 2.648750305193301E+05,      /* I =201 */
(PID.TID 0000.0001)                 2.736173771018112E+05,      /* I =202 */
(PID.TID 0000.0001)                 2.810845823202647E+05,      /* I =203 */
(PID.TID 0000.0001)                 2.873420591008078E+05,      /* I =204 */
(PID.TID 0000.0001)                 2.924298293668651E+05,      /* I =205 */
(PID.TID 0000.0001)                 2.963715635865306E+05,      /* I =206 */
(PID.TID 0000.0001)                 2.991805843171258E+05,      /* I =207 */
(PID.TID 0000.0001)                 3.008638765647886E+05,      /* I =208 */
(PID.TID 0000.0001)                 3.014246674484008E+05,      /* I =209 */
(PID.TID 0000.0001)                 3.008638765647886E+05,      /* I =210 */
(PID.TID 0000.0001)                 2.991805843171258E+05,      /* I =211 */
(PID.TID 0000.0001)                 2.963715635865306E+05,      /* I =212 */
(PID.TID 0000.0001)                 2.924298293668651E+05,      /* I =213 */
(PID.TID 0000.0001)                 2.873420591008078E+05,      /* I =214 */
(PID.TID 0000.0001)                 2.810845823202647E+05,      /* I =215 */
(PID.TID 0000.0001)                 2.736173771018112E+05,      /* I =216 */
(PID.TID 0000.0001)                 2.648750305193301E+05,      /* I =217 */
(PID.TID 0000.0001)                 2.547526806712889E+05,      /* I =218 */
(PID.TID 0000.0001)                 2.430829951739083E+05,      /* I =219 */
(PID.TID 0000.0001)                 2.295958105911512E+05,      /* I =220 */
(PID.TID 0000.0001)                 2.138410773065497E+05,      /* I =221 */
(PID.TID 0000.0001)                 1.950254041626018E+05,      /* I =222 */
(PID.TID 0000.0001)                 1.716197227386011E+05,      /* I =223 */
(PID.TID 0000.0001)                 1.403701524205398E+05,      /* I =224 */
(PID.TID 0000.0001)                 3.011625828699101E+05,      /* I =225 */
(PID.TID 0000.0001)                 3.013880313304323E+05,      /* I =226 */
(PID.TID 0000.0001)                 3.020546438966793E+05,      /* I =227 */
(PID.TID 0000.0001)                 3.031337933484788E+05,      /* I =228 */
(PID.TID 0000.0001)                 3.045796060304602E+05,      /* I =229 */
(PID.TID 0000.0001)                 3.063315047037455E+05,      /* I =230 */
(PID.TID 0000.0001)                 3.083173884297931E+05,      /* I =231 */
(PID.TID 0000.0001)                 3.104571666747115E+05,      /* I =232 */
(PID.TID 0000.0001)                 3.126663860714039E+05,      /* I =233 */
(PID.TID 0000.0001)                 3.148597400258051E+05,      /* I =234 */
(PID.TID 0000.0001)                 3.169543146344334E+05,      /* I =235 */
(PID.TID 0000.0001)                 3.188724835261090E+05,      /* I =236 */
(PID.TID 0000.0001)                 3.205444100809708E+05,      /* I =237 */
(PID.TID 0000.0001)                 3.219101453522735E+05,      /* I =238 */
(PID.TID 0000.0001)                 3.229213257990267E+05,      /* I =239 */
(PID.TID 0000.0001)                 3.235424806617432E+05,      /* I =240 */
(PID.TID 0000.0001)                 3.237519587277332E+05,      /* I =241 */
(PID.TID 0000.0001)                 3.235424806617432E+05,      /* I =242 */
(PID.TID 0000.0001)                 3.229213257990267E+05,      /* I =243 */
(PID.TID 0000.0001)                 3.219101453522735E+05,      /* I =244 */
(PID.TID 0000.0001)                 3.205444100809708E+05,      /* I =245 */
(PID.TID 0000.0001)                 3.188724835261090E+05,      /* I =246 */
(PID.TID 0000.0001)                 3.169543146344334E+05,      /* I =247 */
(PID.TID 0000.0001)                 3.148597400258051E+05,      /* I =248 */
(PID.TID 0000.0001)                 3.126663860714039E+05,      /* I =249 */
(PID.TID 0000.0001)                 3.104571666747115E+05,      /* I =250 */
(PID.TID 0000.0001)                 3.083173884297931E+05,      /* I =251 */
(PID.TID 0000.0001)                 3.063315047037455E+05,      /* I =252 */
(PID.TID 0000.0001)                 3.045796060304602E+05,      /* I =253 */
(PID.TID 0000.0001)                 3.031337933484788E+05,      /* I =254 */
(PID.TID 0000.0001)                 3.020546438966793E+05,      /* I =255 */
(PID.TID 0000.0001)                 3.013880313304323E+05,      /* I =256 */
(PID.TID 0000.0001)                 1.009837800879055E+05,      /* I =257 */
(PID.TID 0000.0001)                 1.403701524205398E+05,      /* I =258 */
(PID.TID 0000.0001)                 1.716197227386011E+05,      /* I =259 */
(PID.TID 0000.0001)                 1.950254041626018E+05,      /* I =260 */
(PID.TID 0000.0001)                 2.138410773065497E+05,      /* I =261 */
(PID.TID 0000.0001)                 2.295958105911512E+05,      /* I =262 */
(PID.TID 0000.0001)                 2.430829951739083E+05,      /* I =263 */
(PID.TID 0000.0001)                 2.547526806712889E+05,      /* I =264 */
(PID.TID 0000.0001)                 2.648750305193301E+05,      /* I =265 */
(PID.TID 0000.0001)                 2.736173771018112E+05,      /* I =266 */
(PID.TID 0000.0001)                 2.810845823202647E+05,      /* I =267 */
(PID.TID 0000.0001)                 2.873420591008078E+05,      /* I =268 */
(PID.TID 0000.0001)                 2.924298293668651E+05,      /* I =269 */
(PID.TID 0000.0001)                 2.963715635865306E+05,      /* I =270 */
(PID.TID 0000.0001)                 2.991805843171258E+05,      /* I =271 */
(PID.TID 0000.0001)                 3.008638765647886E+05,      /* I =272 */
(PID.TID 0000.0001)                 3.014246674484008E+05,      /* I =273 */
(PID.TID 0000.0001)                 3.008638765647886E+05,      /* I =274 */
(PID.TID 0000.0001)                 2.991805843171258E+05,      /* I =275 */
(PID.TID 0000.0001)                 2.963715635865306E+05,      /* I =276 */
(PID.TID 0000.0001)                 2.924298293668651E+05,      /* I =277 */
(PID.TID 0000.0001)                 2.873420591008078E+05,      /* I =278 */
(PID.TID 0000.0001)                 2.810845823202647E+05,      /* I =279 */
(PID.TID 0000.0001)                 2.736173771018112E+05,      /* I =280 */
(PID.TID 0000.0001)                 2.648750305193301E+05,      /* I =281 */
(PID.TID 0000.0001)                 2.547526806712889E+05,      /* I =282 */
(PID.TID 0000.0001)                 2.430829951739083E+05,      /* I =283 */
(PID.TID 0000.0001)                 2.295958105911512E+05,      /* I =284 */
(PID.TID 0000.0001)                 2.138410773065497E+05,      /* I =285 */
(PID.TID 0000.0001)                 1.950254041626018E+05,      /* I =286 */
(PID.TID 0000.0001)                 1.716197227386011E+05,      /* I =287 */
(PID.TID 0000.0001)                 1.403701524205398E+05,      /* I =288 */
(PID.TID 0000.0001)                 3.011625828699101E+05,      /* I =289 */
(PID.TID 0000.0001)                 3.013880313304323E+05,      /* I =290 */
(PID.TID 0000.0001)                 3.020546438966793E+05,      /* I =291 */
(PID.TID 0000.0001)                 3.031337933484788E+05,      /* I =292 */
(PID.TID 0000.0001)                 3.045796060304602E+05,      /* I =293 */
(PID.TID 0000.0001)                 3.063315047037455E+05,      /* I =294 */
(PID.TID 0000.0001)                 3.083173884297931E+05,      /* I =295 */
(PID.TID 0000.0001)                 3.104571666747115E+05,      /* I =296 */
(PID.TID 0000.0001)                 3.126663860714039E+05,      /* I =297 */
(PID.TID 0000.0001)                 3.148597400258051E+05,      /* I =298 */
(PID.TID 0000.0001)                 3.169543146344334E+05,      /* I =299 */
(PID.TID 0000.0001)                 3.188724835261090E+05,      /* I =300 */
(PID.TID 0000.0001)                 3.205444100809708E+05,      /* I =301 */
(PID.TID 0000.0001)                 3.219101453522735E+05,      /* I =302 */
(PID.TID 0000.0001)                 3.229213257990267E+05,      /* I =303 */
(PID.TID 0000.0001)                 3.235424806617432E+05,      /* I =304 */
(PID.TID 0000.0001)                 3.237519587277332E+05,      /* I =305 */
(PID.TID 0000.0001)                 3.235424806617432E+05,      /* I =306 */
(PID.TID 0000.0001)                 3.229213257990267E+05,      /* I =307 */
(PID.TID 0000.0001)                 3.219101453522735E+05,      /* I =308 */
(PID.TID 0000.0001)                 3.205444100809708E+05,      /* I =309 */
(PID.TID 0000.0001)                 3.188724835261090E+05,      /* I =310 */
(PID.TID 0000.0001)                 3.169543146344334E+05,      /* I =311 */
(PID.TID 0000.0001)                 3.148597400258051E+05,      /* I =312 */
(PID.TID 0000.0001)                 3.126663860714039E+05,      /* I =313 */
(PID.TID 0000.0001)                 3.104571666747115E+05,      /* I =314 */
(PID.TID 0000.0001)                 3.083173884297931E+05,      /* I =315 */
(PID.TID 0000.0001)                 3.063315047037455E+05,      /* I =316 */
(PID.TID 0000.0001)                 3.045796060304602E+05,      /* I =317 */
(PID.TID 0000.0001)                 3.031337933484788E+05,      /* I =318 */
(PID.TID 0000.0001)                 3.020546438966793E+05,      /* I =319 */
(PID.TID 0000.0001)                 3.013880313304323E+05,      /* I =320 */
(PID.TID 0000.0001)                 1.009837800879055E+05,      /* I =321 */
(PID.TID 0000.0001)                 1.403701524205398E+05,      /* I =322 */
(PID.TID 0000.0001)                 1.716197227386011E+05,      /* I =323 */
(PID.TID 0000.0001)                 1.950254041626018E+05,      /* I =324 */
(PID.TID 0000.0001)                 2.138410773065497E+05,      /* I =325 */
(PID.TID 0000.0001)                 2.295958105911512E+05,      /* I =326 */
(PID.TID 0000.0001)                 2.430829951739083E+05,      /* I =327 */
(PID.TID 0000.0001)                 2.547526806712889E+05,      /* I =328 */
(PID.TID 0000.0001)                 2.648750305193301E+05,      /* I =329 */
(PID.TID 0000.0001)                 2.736173771018112E+05,      /* I =330 */
(PID.TID 0000.0001)                 2.810845823202647E+05,      /* I =331 */
(PID.TID 0000.0001)                 2.873420591008078E+05,      /* I =332 */
(PID.TID 0000.0001)                 2.924298293668651E+05,      /* I =333 */
(PID.TID 0000.0001)                 2.963715635865306E+05,      /* I =334 */
(PID.TID 0000.0001)                 2.991805843171258E+05,      /* I =335 */
(PID.TID 0000.0001)                 3.008638765647886E+05,      /* I =336 */
(PID.TID 0000.0001)                 3.014246674484008E+05,      /* I =337 */
(PID.TID 0000.0001)                 3.008638765647886E+05,      /* I =338 */
(PID.TID 0000.0001)                 2.991805843171258E+05,      /* I =339 */
(PID.TID 0000.0001)                 2.963715635865306E+05,      /* I =340 */
(PID.TID 0000.0001)                 2.924298293668651E+05,      /* I =341 */
(PID.TID 0000.0001)                 2.873420591008078E+05,      /* I =342 */
(PID.TID 0000.0001)                 2.810845823202647E+05,      /* I =343 */
(PID.TID 0000.0001)                 2.736173771018112E+05,      /* I =344 */
(PID.TID 0000.0001)                 2.648750305193301E+05,      /* I =345 */
(PID.TID 0000.0001)                 2.547526806712889E+05,      /* I =346 */
(PID.TID 0000.0001)                 2.430829951739083E+05,      /* I =347 */
(PID.TID 0000.0001)                 2.295958105911512E+05,      /* I =348 */
(PID.TID 0000.0001)                 2.138410773065497E+05,      /* I =349 */
(PID.TID 0000.0001)                 1.950254041626018E+05,      /* I =350 */
(PID.TID 0000.0001)                 1.716197227386011E+05,      /* I =351 */
(PID.TID 0000.0001)                 1.403701524205398E+05,      /* I =352 */
(PID.TID 0000.0001)                 3.011625828699101E+05,      /* I =353 */
(PID.TID 0000.0001)                 3.013880313304323E+05,      /* I =354 */
(PID.TID 0000.0001)                 3.020546438966793E+05,      /* I =355 */
(PID.TID 0000.0001)                 3.031337933484788E+05,      /* I =356 */
(PID.TID 0000.0001)                 3.045796060304602E+05,      /* I =357 */
(PID.TID 0000.0001)                 3.063315047037455E+05,      /* I =358 */
(PID.TID 0000.0001)                 3.083173884297931E+05,      /* I =359 */
(PID.TID 0000.0001)                 3.104571666747115E+05,      /* I =360 */
(PID.TID 0000.0001)                 3.126663860714039E+05,      /* I =361 */
(PID.TID 0000.0001)                 3.148597400258051E+05,      /* I =362 */
(PID.TID 0000.0001)                 3.169543146344334E+05,      /* I =363 */
(PID.TID 0000.0001)                 3.188724835261090E+05,      /* I =364 */
(PID.TID 0000.0001)                 3.205444100809708E+05,      /* I =365 */
(PID.TID 0000.0001)                 3.219101453522735E+05,      /* I =366 */
(PID.TID 0000.0001)                 3.229213257990267E+05,      /* I =367 */
(PID.TID 0000.0001)                 3.235424806617432E+05,      /* I =368 */
(PID.TID 0000.0001)                 3.237519587277332E+05,      /* I =369 */
(PID.TID 0000.0001)                 3.235424806617432E+05,      /* I =370 */
(PID.TID 0000.0001)                 3.229213257990267E+05,      /* I =371 */
(PID.TID 0000.0001)                 3.219101453522735E+05,      /* I =372 */
(PID.TID 0000.0001)                 3.205444100809708E+05,      /* I =373 */
(PID.TID 0000.0001)                 3.188724835261090E+05,      /* I =374 */
(PID.TID 0000.0001)                 3.169543146344334E+05,      /* I =375 */
(PID.TID 0000.0001)                 3.148597400258051E+05,      /* I =376 */
(PID.TID 0000.0001)                 3.126663860714039E+05,      /* I =377 */
(PID.TID 0000.0001)                 3.104571666747115E+05,      /* I =378 */
(PID.TID 0000.0001)                 3.083173884297931E+05,      /* I =379 */
(PID.TID 0000.0001)                 3.063315047037455E+05,      /* I =380 */
(PID.TID 0000.0001)                 3.045796060304602E+05,      /* I =381 */
(PID.TID 0000.0001)                 3.031337933484788E+05,      /* I =382 */
(PID.TID 0000.0001)                 3.020546438966793E+05,      /* I =383 */
(PID.TID 0000.0001)                 3.013880313304323E+05       /* I =384 */
(PID.TID 0000.0001)     ;
(PID.TID 0000.0001) dyG =  /* dyG(1,:,1,:) ( m - cartesian, degrees - spherical ) */
(PID.TID 0000.0001)                 1.009837800879055E+05,      /* J =  1 */
(PID.TID 0000.0001)                 1.534505834330338E+05,      /* J =  2 */
(PID.TID 0000.0001)                 1.823321598773926E+05,      /* J =  3 */
(PID.TID 0000.0001)                 2.038999045536999E+05,      /* J =  4 */
(PID.TID 0000.0001)                 2.213884732245467E+05,      /* J =  5 */
(PID.TID 0000.0001)                 2.361211699596122E+05,      /* J =  6 */
(PID.TID 0000.0001)                 2.487693460283865E+05,      /* J =  7 */
(PID.TID 0000.0001)                 2.597126963772147E+05,      /* J =  8 */
(PID.TID 0000.0001)                 2.691790288994575E+05,      /* J =  9 */
(PID.TID 0000.0001)                 2.773091043277394E+05,      /* J = 10 */
(PID.TID 0000.0001)                 2.841906470085516E+05,      /* J = 11 */
(PID.TID 0000.0001)                 2.898778860929753E+05,      /* J = 12 */
(PID.TID 0000.0001)                 2.944035815526416E+05,      /* J = 13 */
(PID.TID 0000.0001)                 2.977867909042096E+05,      /* J = 14 */
(PID.TID 0000.0001)                 3.000380090330854E+05,      /* J = 15 */
(PID.TID 0000.0001)                 3.011625828699101E+05       /* J = 16 */
(PID.TID 0000.0001)     ;
(PID.TID 0000.0001) dxC =  /* dxC(:,1,:,1) ( m - cartesian, degrees - spherical ) */
(PID.TID 0000.0001)                 1.114203141013064E+05,      /* I =  1 */
(PID.TID 0000.0001)                 1.391343389937106E+05,      /* I =  2 */
(PID.TID 0000.0001)                 1.709574999026266E+05,      /* I =  3 */
(PID.TID 0000.0001)                 1.946503699269892E+05,      /* I =  4 */
(PID.TID 0000.0001)                 2.135964483342134E+05,      /* I =  5 */
(PID.TID 0000.0001)                 2.294195678257306E+05,      /* I =  6 */
(PID.TID 0000.0001)                 2.429464709770498E+05,      /* I =  7 */
(PID.TID 0000.0001)                 2.546408290696998E+05,      /* I =  8 */
(PID.TID 0000.0001)                 2.647791839299727E+05,      /* I =  9 */
(PID.TID 0000.0001)                 2.735321911346108E+05,      /* I = 10 */
(PID.TID 0000.0001)                 2.810065951609633E+05,      /* I = 11 */
(PID.TID 0000.0001)                 2.872689479506990E+05,      /* I = 12 */
(PID.TID 0000.0001)                 2.923599955312932E+05,      /* I = 13 */
(PID.TID 0000.0001)                 2.963038832565530E+05,      /* I = 14 */
(PID.TID 0000.0001)                 2.991142470004740E+05,      /* I = 15 */
(PID.TID 0000.0001)                 3.007982711627968E+05,      /* I = 16 */
(PID.TID 0000.0001)                 3.013593857228136E+05,      /* I = 17 */
(PID.TID 0000.0001)                 3.007982711627968E+05,      /* I = 18 */
(PID.TID 0000.0001)                 2.991142470004740E+05,      /* I = 19 */
(PID.TID 0000.0001)                 2.963038832565530E+05,      /* I = 20 */
(PID.TID 0000.0001)                 2.923599955312932E+05,      /* I = 21 */
(PID.TID 0000.0001)                 2.872689479506990E+05,      /* I = 22 */
(PID.TID 0000.0001)                 2.810065951609633E+05,      /* I = 23 */
(PID.TID 0000.0001)                 2.735321911346108E+05,      /* I = 24 */
(PID.TID 0000.0001)                 2.647791839299727E+05,      /* I = 25 */
(PID.TID 0000.0001)                 2.546408290696998E+05,      /* I = 26 */
(PID.TID 0000.0001)                 2.429464709770498E+05,      /* I = 27 */
(PID.TID 0000.0001)                 2.294195678257306E+05,      /* I = 28 */
(PID.TID 0000.0001)                 2.135964483342134E+05,      /* I = 29 */
(PID.TID 0000.0001)                 1.946503699269892E+05,      /* I = 30 */
(PID.TID 0000.0001)                 1.709574999026266E+05,      /* I = 31 */
(PID.TID 0000.0001)                 1.391343389937106E+05,      /* I = 32 */
(PID.TID 0000.0001)                 3.012281885409289E+05,      /* I = 33 */
(PID.TID 0000.0001)                 3.014528555318499E+05,      /* I = 34 */
(PID.TID 0000.0001)                 3.021172674809921E+05,      /* I = 35 */
(PID.TID 0000.0001)                 3.031928954490276E+05,      /* I = 36 */
(PID.TID 0000.0001)                 3.046340673197290E+05,      /* I = 37 */
(PID.TID 0000.0001)                 3.063804565966232E+05,      /* I = 38 */
(PID.TID 0000.0001)                 3.083602390447406E+05,      /* I = 39 */
(PID.TID 0000.0001)                 3.104936054761689E+05,      /* I = 40 */
(PID.TID 0000.0001)                 3.126963716684348E+05,      /* I = 41 */
(PID.TID 0000.0001)                 3.148834765567928E+05,      /* I = 42 */
(PID.TID 0000.0001)                 3.169722218029966E+05,      /* I = 43 */
(PID.TID 0000.0001)                 3.188851642086189E+05,      /* I = 44 */
(PID.TID 0000.0001)                 3.205526180491640E+05,      /* I = 45 */
(PID.TID 0000.0001)                 3.219147544224371E+05,      /* I = 46 */
(PID.TID 0000.0001)                 3.229233008154936E+05,      /* I = 47 */
(PID.TID 0000.0001)                 3.235428501703109E+05,      /* I = 48 */
(PID.TID 0000.0001)                 3.237518583690030E+05,      /* I = 49 */
(PID.TID 0000.0001)                 3.235428501703109E+05,      /* I = 50 */
(PID.TID 0000.0001)                 3.229233008154936E+05,      /* I = 51 */
(PID.TID 0000.0001)                 3.219147544224371E+05,      /* I = 52 */
(PID.TID 0000.0001)                 3.205526180491640E+05,      /* I = 53 */
(PID.TID 0000.0001)                 3.188851642086189E+05,      /* I = 54 */
(PID.TID 0000.0001)                 3.169722218029966E+05,      /* I = 55 */
(PID.TID 0000.0001)                 3.148834765567928E+05,      /* I = 56 */
(PID.TID 0000.0001)                 3.126963716684348E+05,      /* I = 57 */
(PID.TID 0000.0001)                 3.104936054761689E+05,      /* I = 58 */
(PID.TID 0000.0001)                 3.083602390447406E+05,      /* I = 59 */
(PID.TID 0000.0001)                 3.063804565966232E+05,      /* I = 60 */
(PID.TID 0000.0001)                 3.046340673197290E+05,      /* I = 61 */
(PID.TID 0000.0001)                 3.031928954490276E+05,      /* I = 62 */
(PID.TID 0000.0001)                 3.021172674809921E+05,      /* I = 63 */
(PID.TID 0000.0001)                 3.014528555318499E+05,      /* I = 64 */
(PID.TID 0000.0001)                 1.114203141013064E+05,      /* I = 65 */
(PID.TID 0000.0001)                 1.391343389937106E+05,      /* I = 66 */
(PID.TID 0000.0001)                 1.709574999026266E+05,      /* I = 67 */
(PID.TID 0000.0001)                 1.946503699269892E+05,      /* I = 68 */
(PID.TID 0000.0001)                 2.135964483342134E+05,      /* I = 69 */
(PID.TID 0000.0001)                 2.294195678257306E+05,      /* I = 70 */
(PID.TID 0000.0001)                 2.429464709770498E+05,      /* I = 71 */
(PID.TID 0000.0001)                 2.546408290696998E+05,      /* I = 72 */
(PID.TID 0000.0001)                 2.647791839299727E+05,      /* I = 73 */
(PID.TID 0000.0001)                 2.735321911346108E+05,      /* I = 74 */
(PID.TID 0000.0001)                 2.810065951609633E+05,      /* I = 75 */
(PID.TID 0000.0001)                 2.872689479506990E+05,      /* I = 76 */
(PID.TID 0000.0001)                 2.923599955312932E+05,      /* I = 77 */
(PID.TID 0000.0001)                 2.963038832565530E+05,      /* I = 78 */
(PID.TID 0000.0001)                 2.991142470004740E+05,      /* I = 79 */
(PID.TID 0000.0001)                 3.007982711627968E+05,      /* I = 80 */
(PID.TID 0000.0001)                 3.013593857228136E+05,      /* I = 81 */
(PID.TID 0000.0001)                 3.007982711627968E+05,      /* I = 82 */
(PID.TID 0000.0001)                 2.991142470004740E+05,      /* I = 83 */
(PID.TID 0000.0001)                 2.963038832565530E+05,      /* I = 84 */
(PID.TID 0000.0001)                 2.923599955312932E+05,      /* I = 85 */
(PID.TID 0000.0001)                 2.872689479506990E+05,      /* I = 86 */
(PID.TID 0000.0001)                 2.810065951609633E+05,      /* I = 87 */
(PID.TID 0000.0001)                 2.735321911346108E+05,      /* I = 88 */
(PID.TID 0000.0001)                 2.647791839299727E+05,      /* I = 89 */
(PID.TID 0000.0001)                 2.546408290696998E+05,      /* I = 90 */
(PID.TID 0000.0001)                 2.429464709770498E+05,      /* I = 91 */
(PID.TID 0000.0001)                 2.294195678257306E+05,      /* I = 92 */
(PID.TID 0000.0001)                 2.135964483342134E+05,      /* I = 93 */
(PID.TID 0000.0001)                 1.946503699269892E+05,      /* I = 94 */
(PID.TID 0000.0001)                 1.709574999026266E+05,      /* I = 95 */
(PID.TID 0000.0001)                 1.391343389937106E+05,      /* I = 96 */
(PID.TID 0000.0001)                 3.012281885409289E+05,      /* I = 97 */
(PID.TID 0000.0001)                 3.014528555318499E+05,      /* I = 98 */
(PID.TID 0000.0001)                 3.021172674809921E+05,      /* I = 99 */
(PID.TID 0000.0001)                 3.031928954490276E+05,      /* I =100 */
(PID.TID 0000.0001)                 3.046340673197290E+05,      /* I =101 */
(PID.TID 0000.0001)                 3.063804565966232E+05,      /* I =102 */
(PID.TID 0000.0001)                 3.083602390447406E+05,      /* I =103 */
(PID.TID 0000.0001)                 3.104936054761689E+05,      /* I =104 */
(PID.TID 0000.0001)                 3.126963716684348E+05,      /* I =105 */
(PID.TID 0000.0001)                 3.148834765567928E+05,      /* I =106 */
(PID.TID 0000.0001)                 3.169722218029966E+05,      /* I =107 */
(PID.TID 0000.0001)                 3.188851642086189E+05,      /* I =108 */
(PID.TID 0000.0001)                 3.205526180491640E+05,      /* I =109 */
(PID.TID 0000.0001)                 3.219147544224371E+05,      /* I =110 */
(PID.TID 0000.0001)                 3.229233008154936E+05,      /* I =111 */
(PID.TID 0000.0001)                 3.235428501703109E+05,      /* I =112 */
(PID.TID 0000.0001)                 3.237518583690030E+05,      /* I =113 */
(PID.TID 0000.0001)                 3.235428501703109E+05,      /* I =114 */
(PID.TID 0000.0001)                 3.229233008154936E+05,      /* I =115 */
(PID.TID 0000.0001)                 3.219147544224371E+05,      /* I =116 */
(PID.TID 0000.0001)                 3.205526180491640E+05,      /* I =117 */
(PID.TID 0000.0001)                 3.188851642086189E+05,      /* I =118 */
(PID.TID 0000.0001)                 3.169722218029966E+05,      /* I =119 */
(PID.TID 0000.0001)                 3.148834765567928E+05,      /* I =120 */
(PID.TID 0000.0001)                 3.126963716684348E+05,      /* I =121 */
(PID.TID 0000.0001)                 3.104936054761689E+05,      /* I =122 */
(PID.TID 0000.0001)                 3.083602390447406E+05,      /* I =123 */
(PID.TID 0000.0001)                 3.063804565966232E+05,      /* I =124 */
(PID.TID 0000.0001)                 3.046340673197290E+05,      /* I =125 */
(PID.TID 0000.0001)                 3.031928954490276E+05,      /* I =126 */
(PID.TID 0000.0001)                 3.021172674809921E+05,      /* I =127 */
(PID.TID 0000.0001)                 3.014528555318499E+05,      /* I =128 */
(PID.TID 0000.0001)                 1.114203141013064E+05,      /* I =129 */
(PID.TID 0000.0001)                 1.391343389937106E+05,      /* I =130 */
(PID.TID 0000.0001)                 1.709574999026266E+05,      /* I =131 */
(PID.TID 0000.0001)                 1.946503699269892E+05,      /* I =132 */
(PID.TID 0000.0001)                 2.135964483342134E+05,      /* I =133 */
(PID.TID 0000.0001)                 2.294195678257306E+05,      /* I =134 */
(PID.TID 0000.0001)                 2.429464709770498E+05,      /* I =135 */
(PID.TID 0000.0001)                 2.546408290696998E+05,      /* I =136 */
(PID.TID 0000.0001)                 2.647791839299727E+05,      /* I =137 */
(PID.TID 0000.0001)                 2.735321911346108E+05,      /* I =138 */
(PID.TID 0000.0001)                 2.810065951609633E+05,      /* I =139 */
(PID.TID 0000.0001)                 2.872689479506990E+05,      /* I =140 */
(PID.TID 0000.0001)                 2.923599955312932E+05,      /* I =141 */
(PID.TID 0000.0001)                 2.963038832565530E+05,      /* I =142 */
(PID.TID 0000.0001)                 2.991142470004740E+05,      /* I =143 */
(PID.TID 0000.0001)                 3.007982711627968E+05,      /* I =144 */
(PID.TID 0000.0001)                 3.013593857228136E+05,      /* I =145 */
(PID.TID 0000.0001)                 3.007982711627968E+05,      /* I =146 */
(PID.TID 0000.0001)                 2.991142470004740E+05,      /* I =147 */
(PID.TID 0000.0001)                 2.963038832565530E+05,      /* I =148 */
(PID.TID 0000.0001)                 2.923599955312932E+05,      /* I =149 */
(PID.TID 0000.0001)                 2.872689479506990E+05,      /* I =150 */
(PID.TID 0000.0001)                 2.810065951609633E+05,      /* I =151 */
(PID.TID 0000.0001)                 2.735321911346108E+05,      /* I =152 */
(PID.TID 0000.0001)                 2.647791839299727E+05,      /* I =153 */
(PID.TID 0000.0001)                 2.546408290696998E+05,      /* I =154 */
(PID.TID 0000.0001)                 2.429464709770498E+05,      /* I =155 */
(PID.TID 0000.0001)                 2.294195678257306E+05,      /* I =156 */
(PID.TID 0000.0001)                 2.135964483342134E+05,      /* I =157 */
(PID.TID 0000.0001)                 1.946503699269892E+05,      /* I =158 */
(PID.TID 0000.0001)                 1.709574999026266E+05,      /* I =159 */
(PID.TID 0000.0001)                 1.391343389937106E+05,      /* I =160 */
(PID.TID 0000.0001)                 3.012281885409289E+05,      /* I =161 */
(PID.TID 0000.0001)                 3.014528555318499E+05,      /* I =162 */
(PID.TID 0000.0001)                 3.021172674809921E+05,      /* I =163 */
(PID.TID 0000.0001)                 3.031928954490276E+05,      /* I =164 */
(PID.TID 0000.0001)                 3.046340673197290E+05,      /* I =165 */
(PID.TID 0000.0001)                 3.063804565966232E+05,      /* I =166 */
(PID.TID 0000.0001)                 3.083602390447406E+05,      /* I =167 */
(PID.TID 0000.0001)                 3.104936054761689E+05,      /* I =168 */
(PID.TID 0000.0001)                 3.126963716684348E+05,      /* I =169 */
(PID.TID 0000.0001)                 3.148834765567928E+05,      /* I =170 */
(PID.TID 0000.0001)                 3.169722218029966E+05,      /* I =171 */
(PID.TID 0000.0001)                 3.188851642086189E+05,      /* I =172 */
(PID.TID 0000.0001)                 3.205526180491640E+05,      /* I =173 */
(PID.TID 0000.0001)                 3.219147544224371E+05,      /* I =174 */
(PID.TID 0000.0001)                 3.229233008154936E+05,      /* I =175 */
(PID.TID 0000.0001)                 3.235428501703109E+05,      /* I =176 */
(PID.TID 0000.0001)                 3.237518583690030E+05,      /* I =177 */
(PID.TID 0000.0001)                 3.235428501703109E+05,      /* I =178 */
(PID.TID 0000.0001)                 3.229233008154936E+05,      /* I =179 */
(PID.TID 0000.0001)                 3.219147544224371E+05,      /* I =180 */
(PID.TID 0000.0001)                 3.205526180491640E+05,      /* I =181 */
(PID.TID 0000.0001)                 3.188851642086189E+05,      /* I =182 */
(PID.TID 0000.0001)                 3.169722218029966E+05,      /* I =183 */
(PID.TID 0000.0001)                 3.148834765567928E+05,      /* I =184 */
(PID.TID 0000.0001)                 3.126963716684348E+05,      /* I =185 */
(PID.TID 0000.0001)                 3.104936054761689E+05,      /* I =186 */
(PID.TID 0000.0001)                 3.083602390447406E+05,      /* I =187 */
(PID.TID 0000.0001)                 3.063804565966232E+05,      /* I =188 */
(PID.TID 0000.0001)                 3.046340673197290E+05,      /* I =189 */
(PID.TID 0000.0001)                 3.031928954490276E+05,      /* I =190 */
(PID.TID 0000.0001)                 3.021172674809921E+05,      /* I =191 */
(PID.TID 0000.0001)                 3.014528555318499E+05,      /* I =192 */
(PID.TID 0000.0001)                 1.114203141013064E+05,      /* I =193 */
(PID.TID 0000.0001)                 1.391343389937106E+05,      /* I =194 */
(PID.TID 0000.0001)                 1.709574999026266E+05,      /* I =195 */
(PID.TID 0000.0001)                 1.946503699269892E+05,      /* I =196 */
(PID.TID 0000.0001)                 2.135964483342134E+05,      /* I =197 */
(PID.TID 0000.0001)                 2.294195678257306E+05,      /* I =198 */
(PID.TID 0000.0001)                 2.429464709770498E+05,      /* I =199 */
(PID.TID 0000.0001)                 2.546408290696998E+05,      /* I =200 */
(PID.TID 0000.0001)                 2.647791839299727E+05,      /* I =201 */
(PID.TID 0000.0001)                 2.735321911346108E+05,      /* I =202 */
(PID.TID 0000.0001)                 2.810065951609633E+05,      /* I =203 */
(PID.TID 0000.0001)                 2.872689479506990E+05,      /* I =204 */
(PID.TID 0000.0001)                 2.923599955312932E+05,      /* I =205 */
(PID.TID 0000.0001)                 2.963038832565530E+05,      /* I =206 */
(PID.TID 0000.0001)                 2.991142470004740E+05,      /* I =207 */
(PID.TID 0000.0001)                 3.007982711627968E+05,      /* I =208 */
(PID.TID 0000.0001)                 3.013593857228136E+05,      /* I =209 */
(PID.TID 0000.0001)                 3.007982711627968E+05,      /* I =210 */
(PID.TID 0000.0001)                 2.991142470004740E+05,      /* I =211 */
(PID.TID 0000.0001)                 2.963038832565530E+05,      /* I =212 */
(PID.TID 0000.0001)                 2.923599955312932E+05,      /* I =213 */
(PID.TID 0000.0001)                 2.872689479506990E+05,      /* I =214 */
(PID.TID 0000.0001)                 2.810065951609633E+05,      /* I =215 */
(PID.TID 0000.0001)                 2.735321911346108E+05,      /* I =216 */
(PID.TID 0000.0001)                 2.647791839299727E+05,      /* I =217 */
(PID.TID 0000.0001)                 2.546408290696998E+05,      /* I =218 */
(PID.TID 0000.0001)                 2.429464709770498E+05,      /* I =219 */
(PID.TID 0000.0001)                 2.294195678257306E+05,      /* I =220 */
(PID.TID 0000.0001)                 2.135964483342134E+05,      /* I =221 */
(PID.TID 0000.0001)                 1.946503699269892E+05,      /* I =222 */
(PID.TID 0000.0001)                 1.709574999026266E+05,      /* I =223 */
(PID.TID 0000.0001)                 1.391343389937106E+05,      /* I =224 */
(PID.TID 0000.0001)                 3.012281885409289E+05,      /* I =225 */
(PID.TID 0000.0001)                 3.014528555318499E+05,      /* I =226 */
(PID.TID 0000.0001)                 3.021172674809921E+05,      /* I =227 */
(PID.TID 0000.0001)                 3.031928954490276E+05,      /* I =228 */
(PID.TID 0000.0001)                 3.046340673197290E+05,      /* I =229 */
(PID.TID 0000.0001)                 3.063804565966232E+05,      /* I =230 */
(PID.TID 0000.0001)                 3.083602390447406E+05,      /* I =231 */
(PID.TID 0000.0001)                 3.104936054761689E+05,      /* I =232 */
(PID.TID 0000.0001)                 3.126963716684348E+05,      /* I =233 */
(PID.TID 0000.0001)                 3.148834765567928E+05,      /* I =234 */
(PID.TID 0000.0001)                 3.169722218029966E+05,      /* I =235 */
(PID.TID 0000.0001)                 3.188851642086189E+05,      /* I =236 */
(PID.TID 0000.0001)                 3.205526180491640E+05,      /* I =237 */
(PID.TID 0000.0001)                 3.219147544224371E+05,      /* I =238 */
(PID.TID 0000.0001)                 3.229233008154936E+05,      /* I =239 */
(PID.TID 0000.0001)                 3.235428501703109E+05,      /* I =240 */
(PID.TID 0000.0001)                 3.237518583690030E+05,      /* I =241 */
(PID.TID 0000.0001)                 3.235428501703109E+05,      /* I =242 */
(PID.TID 0000.0001)                 3.229233008154936E+05,      /* I =243 */
(PID.TID 0000.0001)                 3.219147544224371E+05,      /* I =244 */
(PID.TID 0000.0001)                 3.205526180491640E+05,      /* I =245 */
(PID.TID 0000.0001)                 3.188851642086189E+05,      /* I =246 */
(PID.TID 0000.0001)                 3.169722218029966E+05,      /* I =247 */
(PID.TID 0000.0001)                 3.148834765567928E+05,      /* I =248 */
(PID.TID 0000.0001)                 3.126963716684348E+05,      /* I =249 */
(PID.TID 0000.0001)                 3.104936054761689E+05,      /* I =250 */
(PID.TID 0000.0001)                 3.083602390447406E+05,      /* I =251 */
(PID.TID 0000.0001)                 3.063804565966232E+05,      /* I =252 */
(PID.TID 0000.0001)                 3.046340673197290E+05,      /* I =253 */
(PID.TID 0000.0001)                 3.031928954490276E+05,      /* I =254 */
(PID.TID 0000.0001)                 3.021172674809921E+05,      /* I =255 */
(PID.TID 0000.0001)                 3.014528555318499E+05,      /* I =256 */
(PID.TID 0000.0001)                 1.114203141013064E+05,      /* I =257 */
(PID.TID 0000.0001)                 1.391343389937106E+05,      /* I =258 */
(PID.TID 0000.0001)                 1.709574999026266E+05,      /* I =259 */
(PID.TID 0000.0001)                 1.946503699269892E+05,      /* I =260 */
(PID.TID 0000.0001)                 2.135964483342134E+05,      /* I =261 */
(PID.TID 0000.0001)                 2.294195678257306E+05,      /* I =262 */
(PID.TID 0000.0001)                 2.429464709770498E+05,      /* I =263 */
(PID.TID 0000.0001)                 2.546408290696998E+05,      /* I =264 */
(PID.TID 0000.0001)                 2.647791839299727E+05,      /* I =265 */
(PID.TID 0000.0001)                 2.735321911346108E+05,      /* I =266 */
(PID.TID 0000.0001)                 2.810065951609633E+05,      /* I =267 */
(PID.TID 0000.0001)                 2.872689479506990E+05,      /* I =268 */
(PID.TID 0000.0001)                 2.923599955312932E+05,      /* I =269 */
(PID.TID 0000.0001)                 2.963038832565530E+05,      /* I =270 */
(PID.TID 0000.0001)                 2.991142470004740E+05,      /* I =271 */
(PID.TID 0000.0001)                 3.007982711627968E+05,      /* I =272 */
(PID.TID 0000.0001)                 3.013593857228136E+05,      /* I =273 */
(PID.TID 0000.0001)                 3.007982711627968E+05,      /* I =274 */
(PID.TID 0000.0001)                 2.991142470004740E+05,      /* I =275 */
(PID.TID 0000.0001)                 2.963038832565530E+05,      /* I =276 */
(PID.TID 0000.0001)                 2.923599955312932E+05,      /* I =277 */
(PID.TID 0000.0001)                 2.872689479506990E+05,      /* I =278 */
(PID.TID 0000.0001)                 2.810065951609633E+05,      /* I =279 */
(PID.TID 0000.0001)                 2.735321911346108E+05,      /* I =280 */
(PID.TID 0000.0001)                 2.647791839299727E+05,      /* I =281 */
(PID.TID 0000.0001)                 2.546408290696998E+05,      /* I =282 */
(PID.TID 0000.0001)                 2.429464709770498E+05,      /* I =283 */
(PID.TID 0000.0001)                 2.294195678257306E+05,      /* I =284 */
(PID.TID 0000.0001)                 2.135964483342134E+05,      /* I =285 */
(PID.TID 0000.0001)                 1.946503699269892E+05,      /* I =286 */
(PID.TID 0000.0001)                 1.709574999026266E+05,      /* I =287 */
(PID.TID 0000.0001)                 1.391343389937106E+05,      /* I =288 */
(PID.TID 0000.0001)                 3.012281885409289E+05,      /* I =289 */
(PID.TID 0000.0001)                 3.014528555318499E+05,      /* I =290 */
(PID.TID 0000.0001)                 3.021172674809921E+05,      /* I =291 */
(PID.TID 0000.0001)                 3.031928954490276E+05,      /* I =292 */
(PID.TID 0000.0001)                 3.046340673197290E+05,      /* I =293 */
(PID.TID 0000.0001)                 3.063804565966232E+05,      /* I =294 */
(PID.TID 0000.0001)                 3.083602390447406E+05,      /* I =295 */
(PID.TID 0000.0001)                 3.104936054761689E+05,      /* I =296 */
(PID.TID 0000.0001)                 3.126963716684348E+05,      /* I =297 */
(PID.TID 0000.0001)                 3.148834765567928E+05,      /* I =298 */
(PID.TID 0000.0001)                 3.169722218029966E+05,      /* I =299 */
(PID.TID 0000.0001)                 3.188851642086189E+05,      /* I =300 */
(PID.TID 0000.0001)                 3.205526180491640E+05,      /* I =301 */
(PID.TID 0000.0001)                 3.219147544224371E+05,      /* I =302 */
(PID.TID 0000.0001)                 3.229233008154936E+05,      /* I =303 */
(PID.TID 0000.0001)                 3.235428501703109E+05,      /* I =304 */
(PID.TID 0000.0001)                 3.237518583690030E+05,      /* I =305 */
(PID.TID 0000.0001)                 3.235428501703109E+05,      /* I =306 */
(PID.TID 0000.0001)                 3.229233008154936E+05,      /* I =307 */
(PID.TID 0000.0001)                 3.219147544224371E+05,      /* I =308 */
(PID.TID 0000.0001)                 3.205526180491640E+05,      /* I =309 */
(PID.TID 0000.0001)                 3.188851642086189E+05,      /* I =310 */
(PID.TID 0000.0001)                 3.169722218029966E+05,      /* I =311 */
(PID.TID 0000.0001)                 3.148834765567928E+05,      /* I =312 */
(PID.TID 0000.0001)                 3.126963716684348E+05,      /* I =313 */
(PID.TID 0000.0001)                 3.104936054761689E+05,      /* I =314 */
(PID.TID 0000.0001)                 3.083602390447406E+05,      /* I =315 */
(PID.TID 0000.0001)                 3.063804565966232E+05,      /* I =316 */
(PID.TID 0000.0001)                 3.046340673197290E+05,      /* I =317 */
(PID.TID 0000.0001)                 3.031928954490276E+05,      /* I =318 */
(PID.TID 0000.0001)                 3.021172674809921E+05,      /* I =319 */
(PID.TID 0000.0001)                 3.014528555318499E+05,      /* I =320 */
(PID.TID 0000.0001)                 1.114203141013064E+05,      /* I =321 */
(PID.TID 0000.0001)                 1.391343389937106E+05,      /* I =322 */
(PID.TID 0000.0001)                 1.709574999026266E+05,      /* I =323 */
(PID.TID 0000.0001)                 1.946503699269892E+05,      /* I =324 */
(PID.TID 0000.0001)                 2.135964483342134E+05,      /* I =325 */
(PID.TID 0000.0001)                 2.294195678257306E+05,      /* I =326 */
(PID.TID 0000.0001)                 2.429464709770498E+05,      /* I =327 */
(PID.TID 0000.0001)                 2.546408290696998E+05,      /* I =328 */
(PID.TID 0000.0001)                 2.647791839299727E+05,      /* I =329 */
(PID.TID 0000.0001)                 2.735321911346108E+05,      /* I =330 */
(PID.TID 0000.0001)                 2.810065951609633E+05,      /* I =331 */
(PID.TID 0000.0001)                 2.872689479506990E+05,      /* I =332 */
(PID.TID 0000.0001)                 2.923599955312932E+05,      /* I =333 */
(PID.TID 0000.0001)                 2.963038832565530E+05,      /* I =334 */
(PID.TID 0000.0001)                 2.991142470004740E+05,      /* I =335 */
(PID.TID 0000.0001)                 3.007982711627968E+05,      /* I =336 */
(PID.TID 0000.0001)                 3.013593857228136E+05,      /* I =337 */
(PID.TID 0000.0001)                 3.007982711627968E+05,      /* I =338 */
(PID.TID 0000.0001)                 2.991142470004740E+05,      /* I =339 */
(PID.TID 0000.0001)                 2.963038832565530E+05,      /* I =340 */
(PID.TID 0000.0001)                 2.923599955312932E+05,      /* I =341 */
(PID.TID 0000.0001)                 2.872689479506990E+05,      /* I =342 */
(PID.TID 0000.0001)                 2.810065951609633E+05,      /* I =343 */
(PID.TID 0000.0001)                 2.735321911346108E+05,      /* I =344 */
(PID.TID 0000.0001)                 2.647791839299727E+05,      /* I =345 */
(PID.TID 0000.0001)                 2.546408290696998E+05,      /* I =346 */
(PID.TID 0000.0001)                 2.429464709770498E+05,      /* I =347 */
(PID.TID 0000.0001)                 2.294195678257306E+05,      /* I =348 */
(PID.TID 0000.0001)                 2.135964483342134E+05,      /* I =349 */
(PID.TID 0000.0001)                 1.946503699269892E+05,      /* I =350 */
(PID.TID 0000.0001)                 1.709574999026266E+05,      /* I =351 */
(PID.TID 0000.0001)                 1.391343389937106E+05,      /* I =352 */
(PID.TID 0000.0001)                 3.012281885409289E+05,      /* I =353 */
(PID.TID 0000.0001)                 3.014528555318499E+05,      /* I =354 */
(PID.TID 0000.0001)                 3.021172674809921E+05,      /* I =355 */
(PID.TID 0000.0001)                 3.031928954490276E+05,      /* I =356 */
(PID.TID 0000.0001)                 3.046340673197290E+05,      /* I =357 */
(PID.TID 0000.0001)                 3.063804565966232E+05,      /* I =358 */
(PID.TID 0000.0001)                 3.083602390447406E+05,      /* I =359 */
(PID.TID 0000.0001)                 3.104936054761689E+05,      /* I =360 */
(PID.TID 0000.0001)                 3.126963716684348E+05,      /* I =361 */
(PID.TID 0000.0001)                 3.148834765567928E+05,      /* I =362 */
(PID.TID 0000.0001)                 3.169722218029966E+05,      /* I =363 */
(PID.TID 0000.0001)                 3.188851642086189E+05,      /* I =364 */
(PID.TID 0000.0001)                 3.205526180491640E+05,      /* I =365 */
(PID.TID 0000.0001)                 3.219147544224371E+05,      /* I =366 */
(PID.TID 0000.0001)                 3.229233008154936E+05,      /* I =367 */
(PID.TID 0000.0001)                 3.235428501703109E+05,      /* I =368 */
(PID.TID 0000.0001)                 3.237518583690030E+05,      /* I =369 */
(PID.TID 0000.0001)                 3.235428501703109E+05,      /* I =370 */
(PID.TID 0000.0001)                 3.229233008154936E+05,      /* I =371 */
(PID.TID 0000.0001)                 3.219147544224371E+05,      /* I =372 */
(PID.TID 0000.0001)                 3.205526180491640E+05,      /* I =373 */
(PID.TID 0000.0001)                 3.188851642086189E+05,      /* I =374 */
(PID.TID 0000.0001)                 3.169722218029966E+05,      /* I =375 */
(PID.TID 0000.0001)                 3.148834765567928E+05,      /* I =376 */
(PID.TID 0000.0001)                 3.126963716684348E+05,      /* I =377 */
(PID.TID 0000.0001)                 3.104936054761689E+05,      /* I =378 */
(PID.TID 0000.0001)                 3.083602390447406E+05,      /* I =379 */
(PID.TID 0000.0001)                 3.063804565966232E+05,      /* I =380 */
(PID.TID 0000.0001)                 3.046340673197290E+05,      /* I =381 */
(PID.TID 0000.0001)                 3.031928954490276E+05,      /* I =382 */
(PID.TID 0000.0001)                 3.021172674809921E+05,      /* I =383 */
(PID.TID 0000.0001)                 3.014528555318499E+05       /* I =384 */
(PID.TID 0000.0001)     ;
(PID.TID 0000.0001) dxC =  /* dxC(1,:,1,:) ( m - cartesian, degrees - spherical ) */
(PID.TID 0000.0001)                 1.114203141013064E+05,      /* J =  1 */
(PID.TID 0000.0001)                 1.549545757850771E+05,      /* J =  2 */
(PID.TID 0000.0001)                 1.829777599966776E+05,      /* J =  3 */
(PID.TID 0000.0001)                 2.042717761866506E+05,      /* J =  4 */
(PID.TID 0000.0001)                 2.216367828252819E+05,      /* J =  5 */
(PID.TID 0000.0001)                 2.363029564123586E+05,      /* J =  6 */
(PID.TID 0000.0001)                 2.489113743322025E+05,      /* J =  7 */
(PID.TID 0000.0001)                 2.598293319150326E+05,      /* J =  8 */
(PID.TID 0000.0001)                 2.692787333338535E+05,      /* J =  9 */
(PID.TID 0000.0001)                 2.773972106720365E+05,      /* J = 10 */
(PID.TID 0000.0001)                 2.842706922224557E+05,      /* J = 11 */
(PID.TID 0000.0001)                 2.899523122489403E+05,      /* J = 12 */
(PID.TID 0000.0001)                 2.944741346384699E+05,      /* J = 13 */
(PID.TID 0000.0001)                 2.978547649292580E+05,      /* J = 14 */
(PID.TID 0000.0001)                 3.001044073506459E+05,      /* J = 15 */
(PID.TID 0000.0001)                 3.012281885409289E+05       /* J = 16 */
(PID.TID 0000.0001)     ;
(PID.TID 0000.0001) dyC =  /* dyC(:,1,:,1) ( m - cartesian, degrees - spherical ) */
(PID.TID 0000.0001)                 1.114203141013064E+05,      /* I =  1 */
(PID.TID 0000.0001)                 1.549545757850771E+05,      /* I =  2 */
(PID.TID 0000.0001)                 1.829777599966776E+05,      /* I =  3 */
(PID.TID 0000.0001)                 2.042717761866506E+05,      /* I =  4 */
(PID.TID 0000.0001)                 2.216367828252819E+05,      /* I =  5 */
(PID.TID 0000.0001)                 2.363029564123586E+05,      /* I =  6 */
(PID.TID 0000.0001)                 2.489113743322025E+05,      /* I =  7 */
(PID.TID 0000.0001)                 2.598293319150326E+05,      /* I =  8 */
(PID.TID 0000.0001)                 2.692787333338535E+05,      /* I =  9 */
(PID.TID 0000.0001)                 2.773972106720365E+05,      /* I = 10 */
(PID.TID 0000.0001)                 2.842706922224557E+05,      /* I = 11 */
(PID.TID 0000.0001)                 2.899523122489403E+05,      /* I = 12 */
(PID.TID 0000.0001)                 2.944741346384699E+05,      /* I = 13 */
(PID.TID 0000.0001)                 2.978547649292580E+05,      /* I = 14 */
(PID.TID 0000.0001)                 3.001044073506459E+05,      /* I = 15 */
(PID.TID 0000.0001)     2 @  3.012281885409289E+05,             /* I = 16: 17 */
(PID.TID 0000.0001)                 3.001044073506459E+05,      /* I = 18 */
(PID.TID 0000.0001)                 2.978547649292580E+05,      /* I = 19 */
(PID.TID 0000.0001)                 2.944741346384699E+05,      /* I = 20 */
(PID.TID 0000.0001)                 2.899523122489403E+05,      /* I = 21 */
(PID.TID 0000.0001)                 2.842706922224557E+05,      /* I = 22 */
(PID.TID 0000.0001)                 2.773972106720365E+05,      /* I = 23 */
(PID.TID 0000.0001)                 2.692787333338535E+05,      /* I = 24 */
(PID.TID 0000.0001)                 2.598293319150326E+05,      /* I = 25 */
(PID.TID 0000.0001)                 2.489113743322025E+05,      /* I = 26 */
(PID.TID 0000.0001)                 2.363029564123586E+05,      /* I = 27 */
(PID.TID 0000.0001)                 2.216367828252819E+05,      /* I = 28 */
(PID.TID 0000.0001)                 2.042717761866506E+05,      /* I = 29 */
(PID.TID 0000.0001)                 1.829777599966776E+05,      /* I = 30 */
(PID.TID 0000.0001)                 1.549545757850771E+05,      /* I = 31 */
(PID.TID 0000.0001)                 1.114203141013064E+05,      /* I = 32 */
(PID.TID 0000.0001)                 3.013593857228136E+05,      /* I = 33 */
(PID.TID 0000.0001)                 3.018056440786431E+05,      /* I = 34 */
(PID.TID 0000.0001)                 3.026789946729719E+05,      /* I = 35 */
(PID.TID 0000.0001)                 3.039422096857757E+05,      /* I = 36 */
(PID.TID 0000.0001)                 3.055420860601236E+05,      /* I = 37 */
(PID.TID 0000.0001)                 3.074122965148668E+05,      /* I = 38 */
(PID.TID 0000.0001)                 3.094767373001940E+05,      /* I = 39 */
(PID.TID 0000.0001)                 3.116531025121516E+05,      /* I = 40 */
(PID.TID 0000.0001)                 3.138564503561421E+05,      /* I = 41 */
(PID.TID 0000.0001)                 3.160025832904765E+05,      /* I = 42 */
(PID.TID 0000.0001)                 3.180111244362097E+05,      /* I = 43 */
(PID.TID 0000.0001)                 3.198082246942282E+05,      /* I = 44 */
(PID.TID 0000.0001)                 3.213288727261454E+05,      /* I = 45 */
(PID.TID 0000.0001)                 3.225188028454169E+05,      /* I = 46 */
(PID.TID 0000.0001)                 3.233360067886980E+05,      /* I = 47 */
(PID.TID 0000.0001)     2 @  3.237518583690030E+05,             /* I = 48: 49 */
(PID.TID 0000.0001)                 3.233360067886980E+05,      /* I = 50 */
(PID.TID 0000.0001)                 3.225188028454169E+05,      /* I = 51 */
(PID.TID 0000.0001)                 3.213288727261454E+05,      /* I = 52 */
(PID.TID 0000.0001)                 3.198082246942282E+05,      /* I = 53 */
(PID.TID 0000.0001)                 3.180111244362097E+05,      /* I = 54 */
(PID.TID 0000.0001)                 3.160025832904765E+05,      /* I = 55 */
(PID.TID 0000.0001)                 3.138564503561421E+05,      /* I = 56 */
(PID.TID 0000.0001)                 3.116531025121516E+05,      /* I = 57 */
(PID.TID 0000.0001)                 3.094767373001940E+05,      /* I = 58 */
(PID.TID 0000.0001)                 3.074122965148668E+05,      /* I = 59 */
(PID.TID 0000.0001)                 3.055420860601236E+05,      /* I = 60 */
(PID.TID 0000.0001)                 3.039422096857757E+05,      /* I = 61 */
(PID.TID 0000.0001)                 3.026789946729719E+05,      /* I = 62 */
(PID.TID 0000.0001)                 3.018056440786431E+05,      /* I = 63 */
(PID.TID 0000.0001)                 3.013593857228136E+05,      /* I = 64 */
(PID.TID 0000.0001)                 1.114203141013064E+05,      /* I = 65 */
(PID.TID 0000.0001)                 1.549545757850771E+05,      /* I = 66 */
(PID.TID 0000.0001)                 1.829777599966776E+05,      /* I = 67 */
(PID.TID 0000.0001)                 2.042717761866506E+05,      /* I = 68 */
(PID.TID 0000.0001)                 2.216367828252819E+05,      /* I = 69 */
(PID.TID 0000.0001)                 2.363029564123586E+05,      /* I = 70 */
(PID.TID 0000.0001)                 2.489113743322025E+05,      /* I = 71 */
(PID.TID 0000.0001)                 2.598293319150326E+05,      /* I = 72 */
(PID.TID 0000.0001)                 2.692787333338535E+05,      /* I = 73 */
(PID.TID 0000.0001)                 2.773972106720365E+05,      /* I = 74 */
(PID.TID 0000.0001)                 2.842706922224557E+05,      /* I = 75 */
(PID.TID 0000.0001)                 2.899523122489403E+05,      /* I = 76 */
(PID.TID 0000.0001)                 2.944741346384699E+05,      /* I = 77 */
(PID.TID 0000.0001)                 2.978547649292580E+05,      /* I = 78 */
(PID.TID 0000.0001)                 3.001044073506459E+05,      /* I = 79 */
(PID.TID 0000.0001)     2 @  3.012281885409289E+05,             /* I = 80: 81 */
(PID.TID 0000.0001)                 3.001044073506459E+05,      /* I = 82 */
(PID.TID 0000.0001)                 2.978547649292580E+05,      /* I = 83 */
(PID.TID 0000.0001)                 2.944741346384699E+05,      /* I = 84 */
(PID.TID 0000.0001)                 2.899523122489403E+05,      /* I = 85 */
(PID.TID 0000.0001)                 2.842706922224557E+05,      /* I = 86 */
(PID.TID 0000.0001)                 2.773972106720365E+05,      /* I = 87 */
(PID.TID 0000.0001)                 2.692787333338535E+05,      /* I = 88 */
(PID.TID 0000.0001)                 2.598293319150326E+05,      /* I = 89 */
(PID.TID 0000.0001)                 2.489113743322025E+05,      /* I = 90 */
(PID.TID 0000.0001)                 2.363029564123586E+05,      /* I = 91 */
(PID.TID 0000.0001)                 2.216367828252819E+05,      /* I = 92 */
(PID.TID 0000.0001)                 2.042717761866506E+05,      /* I = 93 */
(PID.TID 0000.0001)                 1.829777599966776E+05,      /* I = 94 */
(PID.TID 0000.0001)                 1.549545757850771E+05,      /* I = 95 */
(PID.TID 0000.0001)                 1.114203141013064E+05,      /* I = 96 */
(PID.TID 0000.0001)                 3.013593857228136E+05,      /* I = 97 */
(PID.TID 0000.0001)                 3.018056440786431E+05,      /* I = 98 */
(PID.TID 0000.0001)                 3.026789946729719E+05,      /* I = 99 */
(PID.TID 0000.0001)                 3.039422096857757E+05,      /* I =100 */
(PID.TID 0000.0001)                 3.055420860601236E+05,      /* I =101 */
(PID.TID 0000.0001)                 3.074122965148668E+05,      /* I =102 */
(PID.TID 0000.0001)                 3.094767373001940E+05,      /* I =103 */
(PID.TID 0000.0001)                 3.116531025121516E+05,      /* I =104 */
(PID.TID 0000.0001)                 3.138564503561421E+05,      /* I =105 */
(PID.TID 0000.0001)                 3.160025832904765E+05,      /* I =106 */
(PID.TID 0000.0001)                 3.180111244362097E+05,      /* I =107 */
(PID.TID 0000.0001)                 3.198082246942282E+05,      /* I =108 */
(PID.TID 0000.0001)                 3.213288727261454E+05,      /* I =109 */
(PID.TID 0000.0001)                 3.225188028454169E+05,      /* I =110 */
(PID.TID 0000.0001)                 3.233360067886980E+05,      /* I =111 */
(PID.TID 0000.0001)     2 @  3.237518583690030E+05,             /* I =112:113 */
(PID.TID 0000.0001)                 3.233360067886980E+05,      /* I =114 */
(PID.TID 0000.0001)                 3.225188028454169E+05,      /* I =115 */
(PID.TID 0000.0001)                 3.213288727261454E+05,      /* I =116 */
(PID.TID 0000.0001)                 3.198082246942282E+05,      /* I =117 */
(PID.TID 0000.0001)                 3.180111244362097E+05,      /* I =118 */
(PID.TID 0000.0001)                 3.160025832904765E+05,      /* I =119 */
(PID.TID 0000.0001)                 3.138564503561421E+05,      /* I =120 */
(PID.TID 0000.0001)                 3.116531025121516E+05,      /* I =121 */
(PID.TID 0000.0001)                 3.094767373001940E+05,      /* I =122 */
(PID.TID 0000.0001)                 3.074122965148668E+05,      /* I =123 */
(PID.TID 0000.0001)                 3.055420860601236E+05,      /* I =124 */
(PID.TID 0000.0001)                 3.039422096857757E+05,      /* I =125 */
(PID.TID 0000.0001)                 3.026789946729719E+05,      /* I =126 */
(PID.TID 0000.0001)                 3.018056440786431E+05,      /* I =127 */
(PID.TID 0000.0001)                 3.013593857228136E+05,      /* I =128 */
(PID.TID 0000.0001)                 1.114203141013064E+05,      /* I =129 */
(PID.TID 0000.0001)                 1.549545757850771E+05,      /* I =130 */
(PID.TID 0000.0001)                 1.829777599966776E+05,      /* I =131 */
(PID.TID 0000.0001)                 2.042717761866506E+05,      /* I =132 */
(PID.TID 0000.0001)                 2.216367828252819E+05,      /* I =133 */
(PID.TID 0000.0001)                 2.363029564123586E+05,      /* I =134 */
(PID.TID 0000.0001)                 2.489113743322025E+05,      /* I =135 */
(PID.TID 0000.0001)                 2.598293319150326E+05,      /* I =136 */
(PID.TID 0000.0001)                 2.692787333338535E+05,      /* I =137 */
(PID.TID 0000.0001)                 2.773972106720365E+05,      /* I =138 */
(PID.TID 0000.0001)                 2.842706922224557E+05,      /* I =139 */
(PID.TID 0000.0001)                 2.899523122489403E+05,      /* I =140 */
(PID.TID 0000.0001)                 2.944741346384699E+05,      /* I =141 */
(PID.TID 0000.0001)                 2.978547649292580E+05,      /* I =142 */
(PID.TID 0000.0001)                 3.001044073506459E+05,      /* I =143 */
(PID.TID 0000.0001)     2 @  3.012281885409289E+05,             /* I =144:145 */
(PID.TID 0000.0001)                 3.001044073506459E+05,      /* I =146 */
(PID.TID 0000.0001)                 2.978547649292580E+05,      /* I =147 */
(PID.TID 0000.0001)                 2.944741346384699E+05,      /* I =148 */
(PID.TID 0000.0001)                 2.899523122489403E+05,      /* I =149 */
(PID.TID 0000.0001)                 2.842706922224557E+05,      /* I =150 */
(PID.TID 0000.0001)                 2.773972106720365E+05,      /* I =151 */
(PID.TID 0000.0001)                 2.692787333338535E+05,      /* I =152 */
(PID.TID 0000.0001)                 2.598293319150326E+05,      /* I =153 */
(PID.TID 0000.0001)                 2.489113743322025E+05,      /* I =154 */
(PID.TID 0000.0001)                 2.363029564123586E+05,      /* I =155 */
(PID.TID 0000.0001)                 2.216367828252819E+05,      /* I =156 */
(PID.TID 0000.0001)                 2.042717761866506E+05,      /* I =157 */
(PID.TID 0000.0001)                 1.829777599966776E+05,      /* I =158 */
(PID.TID 0000.0001)                 1.549545757850771E+05,      /* I =159 */
(PID.TID 0000.0001)                 1.114203141013064E+05,      /* I =160 */
(PID.TID 0000.0001)                 3.013593857228136E+05,      /* I =161 */
(PID.TID 0000.0001)                 3.018056440786431E+05,      /* I =162 */
(PID.TID 0000.0001)                 3.026789946729719E+05,      /* I =163 */
(PID.TID 0000.0001)                 3.039422096857757E+05,      /* I =164 */
(PID.TID 0000.0001)                 3.055420860601236E+05,      /* I =165 */
(PID.TID 0000.0001)                 3.074122965148668E+05,      /* I =166 */
(PID.TID 0000.0001)                 3.094767373001940E+05,      /* I =167 */
(PID.TID 0000.0001)                 3.116531025121516E+05,      /* I =168 */
(PID.TID 0000.0001)                 3.138564503561421E+05,      /* I =169 */
(PID.TID 0000.0001)                 3.160025832904765E+05,      /* I =170 */
(PID.TID 0000.0001)                 3.180111244362097E+05,      /* I =171 */
(PID.TID 0000.0001)                 3.198082246942282E+05,      /* I =172 */
(PID.TID 0000.0001)                 3.213288727261454E+05,      /* I =173 */
(PID.TID 0000.0001)                 3.225188028454169E+05,      /* I =174 */
(PID.TID 0000.0001)                 3.233360067886980E+05,      /* I =175 */
(PID.TID 0000.0001)     2 @  3.237518583690030E+05,             /* I =176:177 */
(PID.TID 0000.0001)                 3.233360067886980E+05,      /* I =178 */
(PID.TID 0000.0001)                 3.225188028454169E+05,      /* I =179 */
(PID.TID 0000.0001)                 3.213288727261454E+05,      /* I =180 */
(PID.TID 0000.0001)                 3.198082246942282E+05,      /* I =181 */
(PID.TID 0000.0001)                 3.180111244362097E+05,      /* I =182 */
(PID.TID 0000.0001)                 3.160025832904765E+05,      /* I =183 */
(PID.TID 0000.0001)                 3.138564503561421E+05,      /* I =184 */
(PID.TID 0000.0001)                 3.116531025121516E+05,      /* I =185 */
(PID.TID 0000.0001)                 3.094767373001940E+05,      /* I =186 */
(PID.TID 0000.0001)                 3.074122965148668E+05,      /* I =187 */
(PID.TID 0000.0001)                 3.055420860601236E+05,      /* I =188 */
(PID.TID 0000.0001)                 3.039422096857757E+05,      /* I =189 */
(PID.TID 0000.0001)                 3.026789946729719E+05,      /* I =190 */
(PID.TID 0000.0001)                 3.018056440786431E+05,      /* I =191 */
(PID.TID 0000.0001)                 3.013593857228136E+05,      /* I =192 */
(PID.TID 0000.0001)                 1.114203141013064E+05,      /* I =193 */
(PID.TID 0000.0001)                 1.549545757850771E+05,      /* I =194 */
(PID.TID 0000.0001)                 1.829777599966776E+05,      /* I =195 */
(PID.TID 0000.0001)                 2.042717761866506E+05,      /* I =196 */
(PID.TID 0000.0001)                 2.216367828252819E+05,      /* I =197 */
(PID.TID 0000.0001)                 2.363029564123586E+05,      /* I =198 */
(PID.TID 0000.0001)                 2.489113743322025E+05,      /* I =199 */
(PID.TID 0000.0001)                 2.598293319150326E+05,      /* I =200 */
(PID.TID 0000.0001)                 2.692787333338535E+05,      /* I =201 */
(PID.TID 0000.0001)                 2.773972106720365E+05,      /* I =202 */
(PID.TID 0000.0001)                 2.842706922224557E+05,      /* I =203 */
(PID.TID 0000.0001)                 2.899523122489403E+05,      /* I =204 */
(PID.TID 0000.0001)                 2.944741346384699E+05,      /* I =205 */
(PID.TID 0000.0001)                 2.978547649292580E+05,      /* I =206 */
(PID.TID 0000.0001)                 3.001044073506459E+05,      /* I =207 */
(PID.TID 0000.0001)     2 @  3.012281885409289E+05,             /* I =208:209 */
(PID.TID 0000.0001)                 3.001044073506459E+05,      /* I =210 */
(PID.TID 0000.0001)                 2.978547649292580E+05,      /* I =211 */
(PID.TID 0000.0001)                 2.944741346384699E+05,      /* I =212 */
(PID.TID 0000.0001)                 2.899523122489403E+05,      /* I =213 */
(PID.TID 0000.0001)                 2.842706922224557E+05,      /* I =214 */
(PID.TID 0000.0001)                 2.773972106720365E+05,      /* I =215 */
(PID.TID 0000.0001)                 2.692787333338535E+05,      /* I =216 */
(PID.TID 0000.0001)                 2.598293319150326E+05,      /* I =217 */
(PID.TID 0000.0001)                 2.489113743322025E+05,      /* I =218 */
(PID.TID 0000.0001)                 2.363029564123586E+05,      /* I =219 */
(PID.TID 0000.0001)                 2.216367828252819E+05,      /* I =220 */
(PID.TID 0000.0001)                 2.042717761866506E+05,      /* I =221 */
(PID.TID 0000.0001)                 1.829777599966776E+05,      /* I =222 */
(PID.TID 0000.0001)                 1.549545757850771E+05,      /* I =223 */
(PID.TID 0000.0001)                 1.114203141013064E+05,      /* I =224 */
(PID.TID 0000.0001)                 3.013593857228136E+05,      /* I =225 */
(PID.TID 0000.0001)                 3.018056440786431E+05,      /* I =226 */
(PID.TID 0000.0001)                 3.026789946729719E+05,      /* I =227 */
(PID.TID 0000.0001)                 3.039422096857757E+05,      /* I =228 */
(PID.TID 0000.0001)                 3.055420860601236E+05,      /* I =229 */
(PID.TID 0000.0001)                 3.074122965148668E+05,      /* I =230 */
(PID.TID 0000.0001)                 3.094767373001940E+05,      /* I =231 */
(PID.TID 0000.0001)                 3.116531025121516E+05,      /* I =232 */
(PID.TID 0000.0001)                 3.138564503561421E+05,      /* I =233 */
(PID.TID 0000.0001)                 3.160025832904765E+05,      /* I =234 */
(PID.TID 0000.0001)                 3.180111244362097E+05,      /* I =235 */
(PID.TID 0000.0001)                 3.198082246942282E+05,      /* I =236 */
(PID.TID 0000.0001)                 3.213288727261454E+05,      /* I =237 */
(PID.TID 0000.0001)                 3.225188028454169E+05,      /* I =238 */
(PID.TID 0000.0001)                 3.233360067886980E+05,      /* I =239 */
(PID.TID 0000.0001)     2 @  3.237518583690030E+05,             /* I =240:241 */
(PID.TID 0000.0001)                 3.233360067886980E+05,      /* I =242 */
(PID.TID 0000.0001)                 3.225188028454169E+05,      /* I =243 */
(PID.TID 0000.0001)                 3.213288727261454E+05,      /* I =244 */
(PID.TID 0000.0001)                 3.198082246942282E+05,      /* I =245 */
(PID.TID 0000.0001)                 3.180111244362097E+05,      /* I =246 */
(PID.TID 0000.0001)                 3.160025832904765E+05,      /* I =247 */
(PID.TID 0000.0001)                 3.138564503561421E+05,      /* I =248 */
(PID.TID 0000.0001)                 3.116531025121516E+05,      /* I =249 */
(PID.TID 0000.0001)                 3.094767373001940E+05,      /* I =250 */
(PID.TID 0000.0001)                 3.074122965148668E+05,      /* I =251 */
(PID.TID 0000.0001)                 3.055420860601236E+05,      /* I =252 */
(PID.TID 0000.0001)                 3.039422096857757E+05,      /* I =253 */
(PID.TID 0000.0001)                 3.026789946729719E+05,      /* I =254 */
(PID.TID 0000.0001)                 3.018056440786431E+05,      /* I =255 */
(PID.TID 0000.0001)                 3.013593857228136E+05,      /* I =256 */
(PID.TID 0000.0001)                 1.114203141013064E+05,      /* I =257 */
(PID.TID 0000.0001)                 1.549545757850771E+05,      /* I =258 */
(PID.TID 0000.0001)                 1.829777599966776E+05,      /* I =259 */
(PID.TID 0000.0001)                 2.042717761866506E+05,      /* I =260 */
(PID.TID 0000.0001)                 2.216367828252819E+05,      /* I =261 */
(PID.TID 0000.0001)                 2.363029564123586E+05,      /* I =262 */
(PID.TID 0000.0001)                 2.489113743322025E+05,      /* I =263 */
(PID.TID 0000.0001)                 2.598293319150326E+05,      /* I =264 */
(PID.TID 0000.0001)                 2.692787333338535E+05,      /* I =265 */
(PID.TID 0000.0001)                 2.773972106720365E+05,      /* I =266 */
(PID.TID 0000.0001)                 2.842706922224557E+05,      /* I =267 */
(PID.TID 0000.0001)                 2.899523122489403E+05,      /* I =268 */
(PID.TID 0000.0001)                 2.944741346384699E+05,      /* I =269 */
(PID.TID 0000.0001)                 2.978547649292580E+05,      /* I =270 */
(PID.TID 0000.0001)                 3.001044073506459E+05,      /* I =271 */
(PID.TID 0000.0001)     2 @  3.012281885409289E+05,             /* I =272:273 */
(PID.TID 0000.0001)                 3.001044073506459E+05,      /* I =274 */
(PID.TID 0000.0001)                 2.978547649292580E+05,      /* I =275 */
(PID.TID 0000.0001)                 2.944741346384699E+05,      /* I =276 */
(PID.TID 0000.0001)                 2.899523122489403E+05,      /* I =277 */
(PID.TID 0000.0001)                 2.842706922224557E+05,      /* I =278 */
(PID.TID 0000.0001)                 2.773972106720365E+05,      /* I =279 */
(PID.TID 0000.0001)                 2.692787333338535E+05,      /* I =280 */
(PID.TID 0000.0001)                 2.598293319150326E+05,      /* I =281 */
(PID.TID 0000.0001)                 2.489113743322025E+05,      /* I =282 */
(PID.TID 0000.0001)                 2.363029564123586E+05,      /* I =283 */
(PID.TID 0000.0001)                 2.216367828252819E+05,      /* I =284 */
(PID.TID 0000.0001)                 2.042717761866506E+05,      /* I =285 */
(PID.TID 0000.0001)                 1.829777599966776E+05,      /* I =286 */
(PID.TID 0000.0001)                 1.549545757850771E+05,      /* I =287 */
(PID.TID 0000.0001)                 1.114203141013064E+05,      /* I =288 */
(PID.TID 0000.0001)                 3.013593857228136E+05,      /* I =289 */
(PID.TID 0000.0001)                 3.018056440786431E+05,      /* I =290 */
(PID.TID 0000.0001)                 3.026789946729719E+05,      /* I =291 */
(PID.TID 0000.0001)                 3.039422096857757E+05,      /* I =292 */
(PID.TID 0000.0001)                 3.055420860601236E+05,      /* I =293 */
(PID.TID 0000.0001)                 3.074122965148668E+05,      /* I =294 */
(PID.TID 0000.0001)                 3.094767373001940E+05,      /* I =295 */
(PID.TID 0000.0001)                 3.116531025121516E+05,      /* I =296 */
(PID.TID 0000.0001)                 3.138564503561421E+05,      /* I =297 */
(PID.TID 0000.0001)                 3.160025832904765E+05,      /* I =298 */
(PID.TID 0000.0001)                 3.180111244362097E+05,      /* I =299 */
(PID.TID 0000.0001)                 3.198082246942282E+05,      /* I =300 */
(PID.TID 0000.0001)                 3.213288727261454E+05,      /* I =301 */
(PID.TID 0000.0001)                 3.225188028454169E+05,      /* I =302 */
(PID.TID 0000.0001)                 3.233360067886980E+05,      /* I =303 */
(PID.TID 0000.0001)     2 @  3.237518583690030E+05,             /* I =304:305 */
(PID.TID 0000.0001)                 3.233360067886980E+05,      /* I =306 */
(PID.TID 0000.0001)                 3.225188028454169E+05,      /* I =307 */
(PID.TID 0000.0001)                 3.213288727261454E+05,      /* I =308 */
(PID.TID 0000.0001)                 3.198082246942282E+05,      /* I =309 */
(PID.TID 0000.0001)                 3.180111244362097E+05,      /* I =310 */
(PID.TID 0000.0001)                 3.160025832904765E+05,      /* I =311 */
(PID.TID 0000.0001)                 3.138564503561421E+05,      /* I =312 */
(PID.TID 0000.0001)                 3.116531025121516E+05,      /* I =313 */
(PID.TID 0000.0001)                 3.094767373001940E+05,      /* I =314 */
(PID.TID 0000.0001)                 3.074122965148668E+05,      /* I =315 */
(PID.TID 0000.0001)                 3.055420860601236E+05,      /* I =316 */
(PID.TID 0000.0001)                 3.039422096857757E+05,      /* I =317 */
(PID.TID 0000.0001)                 3.026789946729719E+05,      /* I =318 */
(PID.TID 0000.0001)                 3.018056440786431E+05,      /* I =319 */
(PID.TID 0000.0001)                 3.013593857228136E+05,      /* I =320 */
(PID.TID 0000.0001)                 1.114203141013064E+05,      /* I =321 */
(PID.TID 0000.0001)                 1.549545757850771E+05,      /* I =322 */
(PID.TID 0000.0001)                 1.829777599966776E+05,      /* I =323 */
(PID.TID 0000.0001)                 2.042717761866506E+05,      /* I =324 */
(PID.TID 0000.0001)                 2.216367828252819E+05,      /* I =325 */
(PID.TID 0000.0001)                 2.363029564123586E+05,      /* I =326 */
(PID.TID 0000.0001)                 2.489113743322025E+05,      /* I =327 */
(PID.TID 0000.0001)                 2.598293319150326E+05,      /* I =328 */
(PID.TID 0000.0001)                 2.692787333338535E+05,      /* I =329 */
(PID.TID 0000.0001)                 2.773972106720365E+05,      /* I =330 */
(PID.TID 0000.0001)                 2.842706922224557E+05,      /* I =331 */
(PID.TID 0000.0001)                 2.899523122489403E+05,      /* I =332 */
(PID.TID 0000.0001)                 2.944741346384699E+05,      /* I =333 */
(PID.TID 0000.0001)                 2.978547649292580E+05,      /* I =334 */
(PID.TID 0000.0001)                 3.001044073506459E+05,      /* I =335 */
(PID.TID 0000.0001)     2 @  3.012281885409289E+05,             /* I =336:337 */
(PID.TID 0000.0001)                 3.001044073506459E+05,      /* I =338 */
(PID.TID 0000.0001)                 2.978547649292580E+05,      /* I =339 */
(PID.TID 0000.0001)                 2.944741346384699E+05,      /* I =340 */
(PID.TID 0000.0001)                 2.899523122489403E+05,      /* I =341 */
(PID.TID 0000.0001)                 2.842706922224557E+05,      /* I =342 */
(PID.TID 0000.0001)                 2.773972106720365E+05,      /* I =343 */
(PID.TID 0000.0001)                 2.692787333338535E+05,      /* I =344 */
(PID.TID 0000.0001)                 2.598293319150326E+05,      /* I =345 */
(PID.TID 0000.0001)                 2.489113743322025E+05,      /* I =346 */
(PID.TID 0000.0001)                 2.363029564123586E+05,      /* I =347 */
(PID.TID 0000.0001)                 2.216367828252819E+05,      /* I =348 */
(PID.TID 0000.0001)                 2.042717761866506E+05,      /* I =349 */
(PID.TID 0000.0001)                 1.829777599966776E+05,      /* I =350 */
(PID.TID 0000.0001)                 1.549545757850771E+05,      /* I =351 */
(PID.TID 0000.0001)                 1.114203141013064E+05,      /* I =352 */
(PID.TID 0000.0001)                 3.013593857228136E+05,      /* I =353 */
(PID.TID 0000.0001)                 3.018056440786431E+05,      /* I =354 */
(PID.TID 0000.0001)                 3.026789946729719E+05,      /* I =355 */
(PID.TID 0000.0001)                 3.039422096857757E+05,      /* I =356 */
(PID.TID 0000.0001)                 3.055420860601236E+05,      /* I =357 */
(PID.TID 0000.0001)                 3.074122965148668E+05,      /* I =358 */
(PID.TID 0000.0001)                 3.094767373001940E+05,      /* I =359 */
(PID.TID 0000.0001)                 3.116531025121516E+05,      /* I =360 */
(PID.TID 0000.0001)                 3.138564503561421E+05,      /* I =361 */
(PID.TID 0000.0001)                 3.160025832904765E+05,      /* I =362 */
(PID.TID 0000.0001)                 3.180111244362097E+05,      /* I =363 */
(PID.TID 0000.0001)                 3.198082246942282E+05,      /* I =364 */
(PID.TID 0000.0001)                 3.213288727261454E+05,      /* I =365 */
(PID.TID 0000.0001)                 3.225188028454169E+05,      /* I =366 */
(PID.TID 0000.0001)                 3.233360067886980E+05,      /* I =367 */
(PID.TID 0000.0001)     2 @  3.237518583690030E+05,             /* I =368:369 */
(PID.TID 0000.0001)                 3.233360067886980E+05,      /* I =370 */
(PID.TID 0000.0001)                 3.225188028454169E+05,      /* I =371 */
(PID.TID 0000.0001)                 3.213288727261454E+05,      /* I =372 */
(PID.TID 0000.0001)                 3.198082246942282E+05,      /* I =373 */
(PID.TID 0000.0001)                 3.180111244362097E+05,      /* I =374 */
(PID.TID 0000.0001)                 3.160025832904765E+05,      /* I =375 */
(PID.TID 0000.0001)                 3.138564503561421E+05,      /* I =376 */
(PID.TID 0000.0001)                 3.116531025121516E+05,      /* I =377 */
(PID.TID 0000.0001)                 3.094767373001940E+05,      /* I =378 */
(PID.TID 0000.0001)                 3.074122965148668E+05,      /* I =379 */
(PID.TID 0000.0001)                 3.055420860601236E+05,      /* I =380 */
(PID.TID 0000.0001)                 3.039422096857757E+05,      /* I =381 */
(PID.TID 0000.0001)                 3.026789946729719E+05,      /* I =382 */
(PID.TID 0000.0001)                 3.018056440786431E+05,      /* I =383 */
(PID.TID 0000.0001)                 3.013593857228136E+05       /* I =384 */
(PID.TID 0000.0001)     ;
(PID.TID 0000.0001) dyC =  /* dyC(1,:,1,:) ( m - cartesian, degrees - spherical ) */
(PID.TID 0000.0001)                 1.114203141013064E+05,      /* J =  1 */
(PID.TID 0000.0001)                 1.391343389937106E+05,      /* J =  2 */
(PID.TID 0000.0001)                 1.709574999026266E+05,      /* J =  3 */
(PID.TID 0000.0001)                 1.946503699269892E+05,      /* J =  4 */
(PID.TID 0000.0001)                 2.135964483342134E+05,      /* J =  5 */
(PID.TID 0000.0001)                 2.294195678257306E+05,      /* J =  6 */
(PID.TID 0000.0001)                 2.429464709770498E+05,      /* J =  7 */
(PID.TID 0000.0001)                 2.546408290696998E+05,      /* J =  8 */
(PID.TID 0000.0001)                 2.647791839299727E+05,      /* J =  9 */
(PID.TID 0000.0001)                 2.735321911346108E+05,      /* J = 10 */
(PID.TID 0000.0001)                 2.810065951609633E+05,      /* J = 11 */
(PID.TID 0000.0001)                 2.872689479506990E+05,      /* J = 12 */
(PID.TID 0000.0001)                 2.923599955312932E+05,      /* J = 13 */
(PID.TID 0000.0001)                 2.963038832565530E+05,      /* J = 14 */
(PID.TID 0000.0001)                 2.991142470004740E+05,      /* J = 15 */
(PID.TID 0000.0001)                 3.007982711627968E+05       /* J = 16 */
(PID.TID 0000.0001)     ;
(PID.TID 0000.0001) dxV =  /* dxV(:,1,:,1) ( m - cartesian, degrees - spherical ) */
(PID.TID 0000.0001)                 8.015229982413632E+04,      /* I =  1 */
(PID.TID 0000.0001)                 1.333130744933864E+05,      /* I =  2 */
(PID.TID 0000.0001)                 1.691744868129062E+05,      /* I =  3 */
(PID.TID 0000.0001)                 1.937548202849060E+05,      /* I =  4 */
(PID.TID 0000.0001)                 2.130490056267208E+05,      /* I =  5 */
(PID.TID 0000.0001)                 2.290479919481738E+05,      /* I =  6 */
(PID.TID 0000.0001)                 2.426774358027003E+05,      /* I =  7 */
(PID.TID 0000.0001)                 2.544372984215561E+05,      /* I =  8 */
(PID.TID 0000.0001)                 2.646201463834826E+05,      /* I =  9 */
(PID.TID 0000.0001)                 2.734046499619031E+05,      /* I = 10 */
(PID.TID 0000.0001)                 2.809019351693761E+05,      /* I = 11 */
(PID.TID 0000.0001)                 2.871811105274442E+05,      /* I = 12 */
(PID.TID 0000.0001)                 2.922844849381675E+05,      /* I = 13 */
(PID.TID 0000.0001)                 2.962371870847826E+05,      /* I = 14 */
(PID.TID 0000.0001)                 2.990534755671296E+05,      /* I = 15 */
(PID.TID 0000.0001)                 3.007409169495504E+05,      /* I = 16 */
(PID.TID 0000.0001)                 3.013031486919771E+05,      /* I = 17 */
(PID.TID 0000.0001)                 3.007409169495504E+05,      /* I = 18 */
(PID.TID 0000.0001)                 2.990534755671296E+05,      /* I = 19 */
(PID.TID 0000.0001)                 2.962371870847826E+05,      /* I = 20 */
(PID.TID 0000.0001)                 2.922844849381675E+05,      /* I = 21 */
(PID.TID 0000.0001)                 2.871811105274442E+05,      /* I = 22 */
(PID.TID 0000.0001)                 2.809019351693761E+05,      /* I = 23 */
(PID.TID 0000.0001)                 2.734046499619031E+05,      /* I = 24 */
(PID.TID 0000.0001)                 2.646201463834826E+05,      /* I = 25 */
(PID.TID 0000.0001)                 2.544372984215561E+05,      /* I = 26 */
(PID.TID 0000.0001)                 2.426774358027003E+05,      /* I = 27 */
(PID.TID 0000.0001)                 2.290479919481738E+05,      /* I = 28 */
(PID.TID 0000.0001)                 2.130490056267208E+05,      /* I = 29 */
(PID.TID 0000.0001)                 1.937548202849060E+05,      /* I = 30 */
(PID.TID 0000.0001)                 1.691744868129062E+05,      /* I = 31 */
(PID.TID 0000.0001)                 1.333130744933864E+05,      /* I = 32 */
(PID.TID 0000.0001)                 3.013686170436881E+05,      /* I = 33 */
(PID.TID 0000.0001)                 3.015922136961168E+05,      /* I = 34 */
(PID.TID 0000.0001)                 3.022533948177109E+05,      /* I = 35 */
(PID.TID 0000.0001)                 3.033238888442880E+05,      /* I = 36 */
(PID.TID 0000.0001)                 3.047583645125296E+05,      /* I = 37 */
(PID.TID 0000.0001)                 3.064969104248934E+05,      /* I = 38 */
(PID.TID 0000.0001)                 3.084681464323149E+05,      /* I = 39 */
(PID.TID 0000.0001)                 3.105926959662063E+05,      /* I = 40 */
(PID.TID 0000.0001)                 3.127867656729039E+05,      /* I = 41 */
(PID.TID 0000.0001)                 3.149656255235069E+05,      /* I = 42 */
(PID.TID 0000.0001)                 3.170468416979250E+05,      /* I = 43 */
(PID.TID 0000.0001)                 3.189531711639232E+05,      /* I = 44 */
(PID.TID 0000.0001)                 3.206150718566154E+05,      /* I = 45 */
(PID.TID 0000.0001)                 3.219728125807783E+05,      /* I = 46 */
(PID.TID 0000.0001)                 3.229781834933111E+05,      /* I = 47 */
(PID.TID 0000.0001)                 3.235958148230841E+05,      /* I = 48 */
(PID.TID 0000.0001)                 3.238041816275029E+05,      /* I = 49 */
(PID.TID 0000.0001)                 3.235958148230841E+05,      /* I = 50 */
(PID.TID 0000.0001)                 3.229781834933111E+05,      /* I = 51 */
(PID.TID 0000.0001)                 3.219728125807783E+05,      /* I = 52 */
(PID.TID 0000.0001)                 3.206150718566154E+05,      /* I = 53 */
(PID.TID 0000.0001)                 3.189531711639232E+05,      /* I = 54 */
(PID.TID 0000.0001)                 3.170468416979250E+05,      /* I = 55 */
(PID.TID 0000.0001)                 3.149656255235069E+05,      /* I = 56 */
(PID.TID 0000.0001)                 3.127867656729039E+05,      /* I = 57 */
(PID.TID 0000.0001)                 3.105926959662063E+05,      /* I = 58 */
(PID.TID 0000.0001)                 3.084681464323149E+05,      /* I = 59 */
(PID.TID 0000.0001)                 3.064969104248934E+05,      /* I = 60 */
(PID.TID 0000.0001)                 3.047583645125296E+05,      /* I = 61 */
(PID.TID 0000.0001)                 3.033238888442880E+05,      /* I = 62 */
(PID.TID 0000.0001)                 3.022533948177109E+05,      /* I = 63 */
(PID.TID 0000.0001)                 3.015922136961168E+05,      /* I = 64 */
(PID.TID 0000.0001)                 8.015229982413632E+04,      /* I = 65 */
(PID.TID 0000.0001)                 1.333130744933864E+05,      /* I = 66 */
(PID.TID 0000.0001)                 1.691744868129062E+05,      /* I = 67 */
(PID.TID 0000.0001)                 1.937548202849060E+05,      /* I = 68 */
(PID.TID 0000.0001)                 2.130490056267208E+05,      /* I = 69 */
(PID.TID 0000.0001)                 2.290479919481738E+05,      /* I = 70 */
(PID.TID 0000.0001)                 2.426774358027003E+05,      /* I = 71 */
(PID.TID 0000.0001)                 2.544372984215561E+05,      /* I = 72 */
(PID.TID 0000.0001)                 2.646201463834826E+05,      /* I = 73 */
(PID.TID 0000.0001)                 2.734046499619031E+05,      /* I = 74 */
(PID.TID 0000.0001)                 2.809019351693761E+05,      /* I = 75 */
(PID.TID 0000.0001)                 2.871811105274442E+05,      /* I = 76 */
(PID.TID 0000.0001)                 2.922844849381675E+05,      /* I = 77 */
(PID.TID 0000.0001)                 2.962371870847826E+05,      /* I = 78 */
(PID.TID 0000.0001)                 2.990534755671296E+05,      /* I = 79 */
(PID.TID 0000.0001)                 3.007409169495504E+05,      /* I = 80 */
(PID.TID 0000.0001)                 3.013031486919771E+05,      /* I = 81 */
(PID.TID 0000.0001)                 3.007409169495504E+05,      /* I = 82 */
(PID.TID 0000.0001)                 2.990534755671296E+05,      /* I = 83 */
(PID.TID 0000.0001)                 2.962371870847826E+05,      /* I = 84 */
(PID.TID 0000.0001)                 2.922844849381675E+05,      /* I = 85 */
(PID.TID 0000.0001)                 2.871811105274442E+05,      /* I = 86 */
(PID.TID 0000.0001)                 2.809019351693761E+05,      /* I = 87 */
(PID.TID 0000.0001)                 2.734046499619031E+05,      /* I = 88 */
(PID.TID 0000.0001)                 2.646201463834826E+05,      /* I = 89 */
(PID.TID 0000.0001)                 2.544372984215561E+05,      /* I = 90 */
(PID.TID 0000.0001)                 2.426774358027003E+05,      /* I = 91 */
(PID.TID 0000.0001)                 2.290479919481738E+05,      /* I = 92 */
(PID.TID 0000.0001)                 2.130490056267208E+05,      /* I = 93 */
(PID.TID 0000.0001)                 1.937548202849060E+05,      /* I = 94 */
(PID.TID 0000.0001)                 1.691744868129062E+05,      /* I = 95 */
(PID.TID 0000.0001)                 1.333130744933864E+05,      /* I = 96 */
(PID.TID 0000.0001)                 3.013686170436881E+05,      /* I = 97 */
(PID.TID 0000.0001)                 3.015922136961168E+05,      /* I = 98 */
(PID.TID 0000.0001)                 3.022533948177109E+05,      /* I = 99 */
(PID.TID 0000.0001)                 3.033238888442880E+05,      /* I =100 */
(PID.TID 0000.0001)                 3.047583645125296E+05,      /* I =101 */
(PID.TID 0000.0001)                 3.064969104248934E+05,      /* I =102 */
(PID.TID 0000.0001)                 3.084681464323149E+05,      /* I =103 */
(PID.TID 0000.0001)                 3.105926959662063E+05,      /* I =104 */
(PID.TID 0000.0001)                 3.127867656729039E+05,      /* I =105 */
(PID.TID 0000.0001)                 3.149656255235069E+05,      /* I =106 */
(PID.TID 0000.0001)                 3.170468416979250E+05,      /* I =107 */
(PID.TID 0000.0001)                 3.189531711639232E+05,      /* I =108 */
(PID.TID 0000.0001)                 3.206150718566154E+05,      /* I =109 */
(PID.TID 0000.0001)                 3.219728125807783E+05,      /* I =110 */
(PID.TID 0000.0001)                 3.229781834933111E+05,      /* I =111 */
(PID.TID 0000.0001)                 3.235958148230841E+05,      /* I =112 */
(PID.TID 0000.0001)                 3.238041816275029E+05,      /* I =113 */
(PID.TID 0000.0001)                 3.235958148230841E+05,      /* I =114 */
(PID.TID 0000.0001)                 3.229781834933111E+05,      /* I =115 */
(PID.TID 0000.0001)                 3.219728125807783E+05,      /* I =116 */
(PID.TID 0000.0001)                 3.206150718566154E+05,      /* I =117 */
(PID.TID 0000.0001)                 3.189531711639232E+05,      /* I =118 */
(PID.TID 0000.0001)                 3.170468416979250E+05,      /* I =119 */
(PID.TID 0000.0001)                 3.149656255235069E+05,      /* I =120 */
(PID.TID 0000.0001)                 3.127867656729039E+05,      /* I =121 */
(PID.TID 0000.0001)                 3.105926959662063E+05,      /* I =122 */
(PID.TID 0000.0001)                 3.084681464323149E+05,      /* I =123 */
(PID.TID 0000.0001)                 3.064969104248934E+05,      /* I =124 */
(PID.TID 0000.0001)                 3.047583645125296E+05,      /* I =125 */
(PID.TID 0000.0001)                 3.033238888442880E+05,      /* I =126 */
(PID.TID 0000.0001)                 3.022533948177109E+05,      /* I =127 */
(PID.TID 0000.0001)                 3.015922136961168E+05,      /* I =128 */
(PID.TID 0000.0001)                 8.015229982413632E+04,      /* I =129 */
(PID.TID 0000.0001)                 1.333130744933864E+05,      /* I =130 */
(PID.TID 0000.0001)                 1.691744868129062E+05,      /* I =131 */
(PID.TID 0000.0001)                 1.937548202849060E+05,      /* I =132 */
(PID.TID 0000.0001)                 2.130490056267208E+05,      /* I =133 */
(PID.TID 0000.0001)                 2.290479919481738E+05,      /* I =134 */
(PID.TID 0000.0001)                 2.426774358027003E+05,      /* I =135 */
(PID.TID 0000.0001)                 2.544372984215561E+05,      /* I =136 */
(PID.TID 0000.0001)                 2.646201463834826E+05,      /* I =137 */
(PID.TID 0000.0001)                 2.734046499619031E+05,      /* I =138 */
(PID.TID 0000.0001)                 2.809019351693761E+05,      /* I =139 */
(PID.TID 0000.0001)                 2.871811105274442E+05,      /* I =140 */
(PID.TID 0000.0001)                 2.922844849381675E+05,      /* I =141 */
(PID.TID 0000.0001)                 2.962371870847826E+05,      /* I =142 */
(PID.TID 0000.0001)                 2.990534755671296E+05,      /* I =143 */
(PID.TID 0000.0001)                 3.007409169495504E+05,      /* I =144 */
(PID.TID 0000.0001)                 3.013031486919771E+05,      /* I =145 */
(PID.TID 0000.0001)                 3.007409169495504E+05,      /* I =146 */
(PID.TID 0000.0001)                 2.990534755671296E+05,      /* I =147 */
(PID.TID 0000.0001)                 2.962371870847826E+05,      /* I =148 */
(PID.TID 0000.0001)                 2.922844849381675E+05,      /* I =149 */
(PID.TID 0000.0001)                 2.871811105274442E+05,      /* I =150 */
(PID.TID 0000.0001)                 2.809019351693761E+05,      /* I =151 */
(PID.TID 0000.0001)                 2.734046499619031E+05,      /* I =152 */
(PID.TID 0000.0001)                 2.646201463834826E+05,      /* I =153 */
(PID.TID 0000.0001)                 2.544372984215561E+05,      /* I =154 */
(PID.TID 0000.0001)                 2.426774358027003E+05,      /* I =155 */
(PID.TID 0000.0001)                 2.290479919481738E+05,      /* I =156 */
(PID.TID 0000.0001)                 2.130490056267208E+05,      /* I =157 */
(PID.TID 0000.0001)                 1.937548202849060E+05,      /* I =158 */
(PID.TID 0000.0001)                 1.691744868129062E+05,      /* I =159 */
(PID.TID 0000.0001)                 1.333130744933864E+05,      /* I =160 */
(PID.TID 0000.0001)                 3.013686170436881E+05,      /* I =161 */
(PID.TID 0000.0001)                 3.015922136961168E+05,      /* I =162 */
(PID.TID 0000.0001)                 3.022533948177109E+05,      /* I =163 */
(PID.TID 0000.0001)                 3.033238888442880E+05,      /* I =164 */
(PID.TID 0000.0001)                 3.047583645125296E+05,      /* I =165 */
(PID.TID 0000.0001)                 3.064969104248934E+05,      /* I =166 */
(PID.TID 0000.0001)                 3.084681464323149E+05,      /* I =167 */
(PID.TID 0000.0001)                 3.105926959662063E+05,      /* I =168 */
(PID.TID 0000.0001)                 3.127867656729039E+05,      /* I =169 */
(PID.TID 0000.0001)                 3.149656255235069E+05,      /* I =170 */
(PID.TID 0000.0001)                 3.170468416979250E+05,      /* I =171 */
(PID.TID 0000.0001)                 3.189531711639232E+05,      /* I =172 */
(PID.TID 0000.0001)                 3.206150718566154E+05,      /* I =173 */
(PID.TID 0000.0001)                 3.219728125807783E+05,      /* I =174 */
(PID.TID 0000.0001)                 3.229781834933111E+05,      /* I =175 */
(PID.TID 0000.0001)                 3.235958148230841E+05,      /* I =176 */
(PID.TID 0000.0001)                 3.238041816275029E+05,      /* I =177 */
(PID.TID 0000.0001)                 3.235958148230841E+05,      /* I =178 */
(PID.TID 0000.0001)                 3.229781834933111E+05,      /* I =179 */
(PID.TID 0000.0001)                 3.219728125807783E+05,      /* I =180 */
(PID.TID 0000.0001)                 3.206150718566154E+05,      /* I =181 */
(PID.TID 0000.0001)                 3.189531711639232E+05,      /* I =182 */
(PID.TID 0000.0001)                 3.170468416979250E+05,      /* I =183 */
(PID.TID 0000.0001)                 3.149656255235069E+05,      /* I =184 */
(PID.TID 0000.0001)                 3.127867656729039E+05,      /* I =185 */
(PID.TID 0000.0001)                 3.105926959662063E+05,      /* I =186 */
(PID.TID 0000.0001)                 3.084681464323149E+05,      /* I =187 */
(PID.TID 0000.0001)                 3.064969104248934E+05,      /* I =188 */
(PID.TID 0000.0001)                 3.047583645125296E+05,      /* I =189 */
(PID.TID 0000.0001)                 3.033238888442880E+05,      /* I =190 */
(PID.TID 0000.0001)                 3.022533948177109E+05,      /* I =191 */
(PID.TID 0000.0001)                 3.015922136961168E+05,      /* I =192 */
(PID.TID 0000.0001)                 8.015229982413632E+04,      /* I =193 */
(PID.TID 0000.0001)                 1.333130744933864E+05,      /* I =194 */
(PID.TID 0000.0001)                 1.691744868129062E+05,      /* I =195 */
(PID.TID 0000.0001)                 1.937548202849060E+05,      /* I =196 */
(PID.TID 0000.0001)                 2.130490056267208E+05,      /* I =197 */
(PID.TID 0000.0001)                 2.290479919481738E+05,      /* I =198 */
(PID.TID 0000.0001)                 2.426774358027003E+05,      /* I =199 */
(PID.TID 0000.0001)                 2.544372984215561E+05,      /* I =200 */
(PID.TID 0000.0001)                 2.646201463834826E+05,      /* I =201 */
(PID.TID 0000.0001)                 2.734046499619031E+05,      /* I =202 */
(PID.TID 0000.0001)                 2.809019351693761E+05,      /* I =203 */
(PID.TID 0000.0001)                 2.871811105274442E+05,      /* I =204 */
(PID.TID 0000.0001)                 2.922844849381675E+05,      /* I =205 */
(PID.TID 0000.0001)                 2.962371870847826E+05,      /* I =206 */
(PID.TID 0000.0001)                 2.990534755671296E+05,      /* I =207 */
(PID.TID 0000.0001)                 3.007409169495504E+05,      /* I =208 */
(PID.TID 0000.0001)                 3.013031486919771E+05,      /* I =209 */
(PID.TID 0000.0001)                 3.007409169495504E+05,      /* I =210 */
(PID.TID 0000.0001)                 2.990534755671296E+05,      /* I =211 */
(PID.TID 0000.0001)                 2.962371870847826E+05,      /* I =212 */
(PID.TID 0000.0001)                 2.922844849381675E+05,      /* I =213 */
(PID.TID 0000.0001)                 2.871811105274442E+05,      /* I =214 */
(PID.TID 0000.0001)                 2.809019351693761E+05,      /* I =215 */
(PID.TID 0000.0001)                 2.734046499619031E+05,      /* I =216 */
(PID.TID 0000.0001)                 2.646201463834826E+05,      /* I =217 */
(PID.TID 0000.0001)                 2.544372984215561E+05,      /* I =218 */
(PID.TID 0000.0001)                 2.426774358027003E+05,      /* I =219 */
(PID.TID 0000.0001)                 2.290479919481738E+05,      /* I =220 */
(PID.TID 0000.0001)                 2.130490056267208E+05,      /* I =221 */
(PID.TID 0000.0001)                 1.937548202849060E+05,      /* I =222 */
(PID.TID 0000.0001)                 1.691744868129062E+05,      /* I =223 */
(PID.TID 0000.0001)                 1.333130744933864E+05,      /* I =224 */
(PID.TID 0000.0001)                 3.013686170436881E+05,      /* I =225 */
(PID.TID 0000.0001)                 3.015922136961168E+05,      /* I =226 */
(PID.TID 0000.0001)                 3.022533948177109E+05,      /* I =227 */
(PID.TID 0000.0001)                 3.033238888442880E+05,      /* I =228 */
(PID.TID 0000.0001)                 3.047583645125296E+05,      /* I =229 */
(PID.TID 0000.0001)                 3.064969104248934E+05,      /* I =230 */
(PID.TID 0000.0001)                 3.084681464323149E+05,      /* I =231 */
(PID.TID 0000.0001)                 3.105926959662063E+05,      /* I =232 */
(PID.TID 0000.0001)                 3.127867656729039E+05,      /* I =233 */
(PID.TID 0000.0001)                 3.149656255235069E+05,      /* I =234 */
(PID.TID 0000.0001)                 3.170468416979250E+05,      /* I =235 */
(PID.TID 0000.0001)                 3.189531711639232E+05,      /* I =236 */
(PID.TID 0000.0001)                 3.206150718566154E+05,      /* I =237 */
(PID.TID 0000.0001)                 3.219728125807783E+05,      /* I =238 */
(PID.TID 0000.0001)                 3.229781834933111E+05,      /* I =239 */
(PID.TID 0000.0001)                 3.235958148230841E+05,      /* I =240 */
(PID.TID 0000.0001)                 3.238041816275029E+05,      /* I =241 */
(PID.TID 0000.0001)                 3.235958148230841E+05,      /* I =242 */
(PID.TID 0000.0001)                 3.229781834933111E+05,      /* I =243 */
(PID.TID 0000.0001)                 3.219728125807783E+05,      /* I =244 */
(PID.TID 0000.0001)                 3.206150718566154E+05,      /* I =245 */
(PID.TID 0000.0001)                 3.189531711639232E+05,      /* I =246 */
(PID.TID 0000.0001)                 3.170468416979250E+05,      /* I =247 */
(PID.TID 0000.0001)                 3.149656255235069E+05,      /* I =248 */
(PID.TID 0000.0001)                 3.127867656729039E+05,      /* I =249 */
(PID.TID 0000.0001)                 3.105926959662063E+05,      /* I =250 */
(PID.TID 0000.0001)                 3.084681464323149E+05,      /* I =251 */
(PID.TID 0000.0001)                 3.064969104248934E+05,      /* I =252 */
(PID.TID 0000.0001)                 3.047583645125296E+05,      /* I =253 */
(PID.TID 0000.0001)                 3.033238888442880E+05,      /* I =254 */
(PID.TID 0000.0001)                 3.022533948177109E+05,      /* I =255 */
(PID.TID 0000.0001)                 3.015922136961168E+05,      /* I =256 */
(PID.TID 0000.0001)                 8.015229982413632E+04,      /* I =257 */
(PID.TID 0000.0001)                 1.333130744933864E+05,      /* I =258 */
(PID.TID 0000.0001)                 1.691744868129062E+05,      /* I =259 */
(PID.TID 0000.0001)                 1.937548202849060E+05,      /* I =260 */
(PID.TID 0000.0001)                 2.130490056267208E+05,      /* I =261 */
(PID.TID 0000.0001)                 2.290479919481738E+05,      /* I =262 */
(PID.TID 0000.0001)                 2.426774358027003E+05,      /* I =263 */
(PID.TID 0000.0001)                 2.544372984215561E+05,      /* I =264 */
(PID.TID 0000.0001)                 2.646201463834826E+05,      /* I =265 */
(PID.TID 0000.0001)                 2.734046499619031E+05,      /* I =266 */
(PID.TID 0000.0001)                 2.809019351693761E+05,      /* I =267 */
(PID.TID 0000.0001)                 2.871811105274442E+05,      /* I =268 */
(PID.TID 0000.0001)                 2.922844849381675E+05,      /* I =269 */
(PID.TID 0000.0001)                 2.962371870847826E+05,      /* I =270 */
(PID.TID 0000.0001)                 2.990534755671296E+05,      /* I =271 */
(PID.TID 0000.0001)                 3.007409169495504E+05,      /* I =272 */
(PID.TID 0000.0001)                 3.013031486919771E+05,      /* I =273 */
(PID.TID 0000.0001)                 3.007409169495504E+05,      /* I =274 */
(PID.TID 0000.0001)                 2.990534755671296E+05,      /* I =275 */
(PID.TID 0000.0001)                 2.962371870847826E+05,      /* I =276 */
(PID.TID 0000.0001)                 2.922844849381675E+05,      /* I =277 */
(PID.TID 0000.0001)                 2.871811105274442E+05,      /* I =278 */
(PID.TID 0000.0001)                 2.809019351693761E+05,      /* I =279 */
(PID.TID 0000.0001)                 2.734046499619031E+05,      /* I =280 */
(PID.TID 0000.0001)                 2.646201463834826E+05,      /* I =281 */
(PID.TID 0000.0001)                 2.544372984215561E+05,      /* I =282 */
(PID.TID 0000.0001)                 2.426774358027003E+05,      /* I =283 */
(PID.TID 0000.0001)                 2.290479919481738E+05,      /* I =284 */
(PID.TID 0000.0001)                 2.130490056267208E+05,      /* I =285 */
(PID.TID 0000.0001)                 1.937548202849060E+05,      /* I =286 */
(PID.TID 0000.0001)                 1.691744868129062E+05,      /* I =287 */
(PID.TID 0000.0001)                 1.333130744933864E+05,      /* I =288 */
(PID.TID 0000.0001)                 3.013686170436881E+05,      /* I =289 */
(PID.TID 0000.0001)                 3.015922136961168E+05,      /* I =290 */
(PID.TID 0000.0001)                 3.022533948177109E+05,      /* I =291 */
(PID.TID 0000.0001)                 3.033238888442880E+05,      /* I =292 */
(PID.TID 0000.0001)                 3.047583645125296E+05,      /* I =293 */
(PID.TID 0000.0001)                 3.064969104248934E+05,      /* I =294 */
(PID.TID 0000.0001)                 3.084681464323149E+05,      /* I =295 */
(PID.TID 0000.0001)                 3.105926959662063E+05,      /* I =296 */
(PID.TID 0000.0001)                 3.127867656729039E+05,      /* I =297 */
(PID.TID 0000.0001)                 3.149656255235069E+05,      /* I =298 */
(PID.TID 0000.0001)                 3.170468416979250E+05,      /* I =299 */
(PID.TID 0000.0001)                 3.189531711639232E+05,      /* I =300 */
(PID.TID 0000.0001)                 3.206150718566154E+05,      /* I =301 */
(PID.TID 0000.0001)                 3.219728125807783E+05,      /* I =302 */
(PID.TID 0000.0001)                 3.229781834933111E+05,      /* I =303 */
(PID.TID 0000.0001)                 3.235958148230841E+05,      /* I =304 */
(PID.TID 0000.0001)                 3.238041816275029E+05,      /* I =305 */
(PID.TID 0000.0001)                 3.235958148230841E+05,      /* I =306 */
(PID.TID 0000.0001)                 3.229781834933111E+05,      /* I =307 */
(PID.TID 0000.0001)                 3.219728125807783E+05,      /* I =308 */
(PID.TID 0000.0001)                 3.206150718566154E+05,      /* I =309 */
(PID.TID 0000.0001)                 3.189531711639232E+05,      /* I =310 */
(PID.TID 0000.0001)                 3.170468416979250E+05,      /* I =311 */
(PID.TID 0000.0001)                 3.149656255235069E+05,      /* I =312 */
(PID.TID 0000.0001)                 3.127867656729039E+05,      /* I =313 */
(PID.TID 0000.0001)                 3.105926959662063E+05,      /* I =314 */
(PID.TID 0000.0001)                 3.084681464323149E+05,      /* I =315 */
(PID.TID 0000.0001)                 3.064969104248934E+05,      /* I =316 */
(PID.TID 0000.0001)                 3.047583645125296E+05,      /* I =317 */
(PID.TID 0000.0001)                 3.033238888442880E+05,      /* I =318 */
(PID.TID 0000.0001)                 3.022533948177109E+05,      /* I =319 */
(PID.TID 0000.0001)                 3.015922136961168E+05,      /* I =320 */
(PID.TID 0000.0001)                 8.015229982413632E+04,      /* I =321 */
(PID.TID 0000.0001)                 1.333130744933864E+05,      /* I =322 */
(PID.TID 0000.0001)                 1.691744868129062E+05,      /* I =323 */
(PID.TID 0000.0001)                 1.937548202849060E+05,      /* I =324 */
(PID.TID 0000.0001)                 2.130490056267208E+05,      /* I =325 */
(PID.TID 0000.0001)                 2.290479919481738E+05,      /* I =326 */
(PID.TID 0000.0001)                 2.426774358027003E+05,      /* I =327 */
(PID.TID 0000.0001)                 2.544372984215561E+05,      /* I =328 */
(PID.TID 0000.0001)                 2.646201463834826E+05,      /* I =329 */
(PID.TID 0000.0001)                 2.734046499619031E+05,      /* I =330 */
(PID.TID 0000.0001)                 2.809019351693761E+05,      /* I =331 */
(PID.TID 0000.0001)                 2.871811105274442E+05,      /* I =332 */
(PID.TID 0000.0001)                 2.922844849381675E+05,      /* I =333 */
(PID.TID 0000.0001)                 2.962371870847826E+05,      /* I =334 */
(PID.TID 0000.0001)                 2.990534755671296E+05,      /* I =335 */
(PID.TID 0000.0001)                 3.007409169495504E+05,      /* I =336 */
(PID.TID 0000.0001)                 3.013031486919771E+05,      /* I =337 */
(PID.TID 0000.0001)                 3.007409169495504E+05,      /* I =338 */
(PID.TID 0000.0001)                 2.990534755671296E+05,      /* I =339 */
(PID.TID 0000.0001)                 2.962371870847826E+05,      /* I =340 */
(PID.TID 0000.0001)                 2.922844849381675E+05,      /* I =341 */
(PID.TID 0000.0001)                 2.871811105274442E+05,      /* I =342 */
(PID.TID 0000.0001)                 2.809019351693761E+05,      /* I =343 */
(PID.TID 0000.0001)                 2.734046499619031E+05,      /* I =344 */
(PID.TID 0000.0001)                 2.646201463834826E+05,      /* I =345 */
(PID.TID 0000.0001)                 2.544372984215561E+05,      /* I =346 */
(PID.TID 0000.0001)                 2.426774358027003E+05,      /* I =347 */
(PID.TID 0000.0001)                 2.290479919481738E+05,      /* I =348 */
(PID.TID 0000.0001)                 2.130490056267208E+05,      /* I =349 */
(PID.TID 0000.0001)                 1.937548202849060E+05,      /* I =350 */
(PID.TID 0000.0001)                 1.691744868129062E+05,      /* I =351 */
(PID.TID 0000.0001)                 1.333130744933864E+05,      /* I =352 */
(PID.TID 0000.0001)                 3.013686170436881E+05,      /* I =353 */
(PID.TID 0000.0001)                 3.015922136961168E+05,      /* I =354 */
(PID.TID 0000.0001)                 3.022533948177109E+05,      /* I =355 */
(PID.TID 0000.0001)                 3.033238888442880E+05,      /* I =356 */
(PID.TID 0000.0001)                 3.047583645125296E+05,      /* I =357 */
(PID.TID 0000.0001)                 3.064969104248934E+05,      /* I =358 */
(PID.TID 0000.0001)                 3.084681464323149E+05,      /* I =359 */
(PID.TID 0000.0001)                 3.105926959662063E+05,      /* I =360 */
(PID.TID 0000.0001)                 3.127867656729039E+05,      /* I =361 */
(PID.TID 0000.0001)                 3.149656255235069E+05,      /* I =362 */
(PID.TID 0000.0001)                 3.170468416979250E+05,      /* I =363 */
(PID.TID 0000.0001)                 3.189531711639232E+05,      /* I =364 */
(PID.TID 0000.0001)                 3.206150718566154E+05,      /* I =365 */
(PID.TID 0000.0001)                 3.219728125807783E+05,      /* I =366 */
(PID.TID 0000.0001)                 3.229781834933111E+05,      /* I =367 */
(PID.TID 0000.0001)                 3.235958148230841E+05,      /* I =368 */
(PID.TID 0000.0001)                 3.238041816275029E+05,      /* I =369 */
(PID.TID 0000.0001)                 3.235958148230841E+05,      /* I =370 */
(PID.TID 0000.0001)                 3.229781834933111E+05,      /* I =371 */
(PID.TID 0000.0001)                 3.219728125807783E+05,      /* I =372 */
(PID.TID 0000.0001)                 3.206150718566154E+05,      /* I =373 */
(PID.TID 0000.0001)                 3.189531711639232E+05,      /* I =374 */
(PID.TID 0000.0001)                 3.170468416979250E+05,      /* I =375 */
(PID.TID 0000.0001)                 3.149656255235069E+05,      /* I =376 */
(PID.TID 0000.0001)                 3.127867656729039E+05,      /* I =377 */
(PID.TID 0000.0001)                 3.105926959662063E+05,      /* I =378 */
(PID.TID 0000.0001)                 3.084681464323149E+05,      /* I =379 */
(PID.TID 0000.0001)                 3.064969104248934E+05,      /* I =380 */
(PID.TID 0000.0001)                 3.047583645125296E+05,      /* I =381 */
(PID.TID 0000.0001)                 3.033238888442880E+05,      /* I =382 */
(PID.TID 0000.0001)                 3.022533948177109E+05,      /* I =383 */
(PID.TID 0000.0001)                 3.015922136961168E+05       /* I =384 */
(PID.TID 0000.0001)     ;
(PID.TID 0000.0001) dxV =  /* dxV(1,:,1,:) ( m - cartesian, degrees - spherical ) */
(PID.TID 0000.0001)                 8.015229982413632E+04,      /* J =  1 */
(PID.TID 0000.0001)                 1.362652340208229E+05,      /* J =  2 */
(PID.TID 0000.0001)                 1.701080315742101E+05,      /* J =  3 */
(PID.TID 0000.0001)                 1.942331448101592E+05,      /* J =  4 */
(PID.TID 0000.0001)                 2.133486626971531E+05,      /* J =  5 */
(PID.TID 0000.0001)                 2.292584591272880E+05,      /* J =  6 */
(PID.TID 0000.0001)                 2.428369969078989E+05,      /* J =  7 */
(PID.TID 0000.0001)                 2.545652950875683E+05,      /* J =  8 */
(PID.TID 0000.0001)                 2.647274964828301E+05,      /* J =  9 */
(PID.TID 0000.0001)                 2.734980225206389E+05,      /* J = 10 */
(PID.TID 0000.0001)                 2.809856491525217E+05,      /* J = 11 */
(PID.TID 0000.0001)                 2.872580915202295E+05,      /* J = 12 */
(PID.TID 0000.0001)                 2.923567890694162E+05,      /* J = 13 */
(PID.TID 0000.0001)                 2.963063101754721E+05,      /* J = 14 */
(PID.TID 0000.0001)                 2.991205495886625E+05,      /* J = 15 */
(PID.TID 0000.0001)                 3.008068453676764E+05       /* J = 16 */
(PID.TID 0000.0001)     ;
(PID.TID 0000.0001) dyU =  /* dyU(:,1,:,1) ( m - cartesian, degrees - spherical ) */
(PID.TID 0000.0001)                 8.015229982413632E+04,      /* I =  1 */
(PID.TID 0000.0001)                 1.362652340208229E+05,      /* I =  2 */
(PID.TID 0000.0001)                 1.701080315742101E+05,      /* I =  3 */
(PID.TID 0000.0001)                 1.942331448101592E+05,      /* I =  4 */
(PID.TID 0000.0001)                 2.133486626971531E+05,      /* I =  5 */
(PID.TID 0000.0001)                 2.292584591272880E+05,      /* I =  6 */
(PID.TID 0000.0001)                 2.428369969078989E+05,      /* I =  7 */
(PID.TID 0000.0001)                 2.545652950875683E+05,      /* I =  8 */
(PID.TID 0000.0001)                 2.647274964828301E+05,      /* I =  9 */
(PID.TID 0000.0001)                 2.734980225206389E+05,      /* I = 10 */
(PID.TID 0000.0001)                 2.809856491525217E+05,      /* I = 11 */
(PID.TID 0000.0001)                 2.872580915202295E+05,      /* I = 12 */
(PID.TID 0000.0001)                 2.923567890694162E+05,      /* I = 13 */
(PID.TID 0000.0001)                 2.963063101754721E+05,      /* I = 14 */
(PID.TID 0000.0001)                 2.991205495886625E+05,      /* I = 15 */
(PID.TID 0000.0001)                 3.008068453676764E+05,      /* I = 16 */
(PID.TID 0000.0001)                 3.013686170436881E+05,      /* I = 17 */
(PID.TID 0000.0001)                 3.008068453676764E+05,      /* I = 18 */
(PID.TID 0000.0001)                 2.991205495886625E+05,      /* I = 19 */
(PID.TID 0000.0001)                 2.963063101754721E+05,      /* I = 20 */
(PID.TID 0000.0001)                 2.923567890694162E+05,      /* I = 21 */
(PID.TID 0000.0001)                 2.872580915202295E+05,      /* I = 22 */
(PID.TID 0000.0001)                 2.809856491525217E+05,      /* I = 23 */
(PID.TID 0000.0001)                 2.734980225206389E+05,      /* I = 24 */
(PID.TID 0000.0001)                 2.647274964828301E+05,      /* I = 25 */
(PID.TID 0000.0001)                 2.545652950875683E+05,      /* I = 26 */
(PID.TID 0000.0001)                 2.428369969078989E+05,      /* I = 27 */
(PID.TID 0000.0001)                 2.292584591272880E+05,      /* I = 28 */
(PID.TID 0000.0001)                 2.133486626971531E+05,      /* I = 29 */
(PID.TID 0000.0001)                 1.942331448101592E+05,      /* I = 30 */
(PID.TID 0000.0001)                 1.701080315742101E+05,      /* I = 31 */
(PID.TID 0000.0001)                 1.362652340208229E+05,      /* I = 32 */
(PID.TID 0000.0001)                 3.013031486919771E+05,      /* I = 33 */
(PID.TID 0000.0001)                 3.015274890091515E+05,      /* I = 34 */
(PID.TID 0000.0001)                 3.021908563699420E+05,      /* I = 35 */
(PID.TID 0000.0001)                 3.032648502024415E+05,      /* I = 36 */
(PID.TID 0000.0001)                 3.047039405458409E+05,      /* I = 37 */
(PID.TID 0000.0001)                 3.064479682824742E+05,      /* I = 38 */
(PID.TID 0000.0001)                 3.084252792046263E+05,      /* I = 39 */
(PID.TID 0000.0001)                 3.105562173056038E+05,      /* I = 40 */
(PID.TID 0000.0001)                 3.127567211383312E+05,      /* I = 41 */
(PID.TID 0000.0001)                 3.149418154158797E+05,      /* I = 42 */
(PID.TID 0000.0001)                 3.170288504389129E+05,      /* I = 43 */
(PID.TID 0000.0001)                 3.189403993331409E+05,      /* I = 44 */
(PID.TID 0000.0001)                 3.206067683235888E+05,      /* I = 45 */
(PID.TID 0000.0001)                 3.219681053727232E+05,      /* I = 46 */
(PID.TID 0000.0001)                 3.229761089393431E+05,      /* I = 47 */
(PID.TID 0000.0001)                 3.235953450756532E+05,      /* I = 48 */
(PID.TID 0000.0001)                 3.238041816275029E+05,      /* I = 49 */
(PID.TID 0000.0001)                 3.235953450756532E+05,      /* I = 50 */
(PID.TID 0000.0001)                 3.229761089393431E+05,      /* I = 51 */
(PID.TID 0000.0001)                 3.219681053727232E+05,      /* I = 52 */
(PID.TID 0000.0001)                 3.206067683235888E+05,      /* I = 53 */
(PID.TID 0000.0001)                 3.189403993331409E+05,      /* I = 54 */
(PID.TID 0000.0001)                 3.170288504389129E+05,      /* I = 55 */
(PID.TID 0000.0001)                 3.149418154158797E+05,      /* I = 56 */
(PID.TID 0000.0001)                 3.127567211383312E+05,      /* I = 57 */
(PID.TID 0000.0001)                 3.105562173056038E+05,      /* I = 58 */
(PID.TID 0000.0001)                 3.084252792046263E+05,      /* I = 59 */
(PID.TID 0000.0001)                 3.064479682824742E+05,      /* I = 60 */
(PID.TID 0000.0001)                 3.047039405458409E+05,      /* I = 61 */
(PID.TID 0000.0001)                 3.032648502024415E+05,      /* I = 62 */
(PID.TID 0000.0001)                 3.021908563699420E+05,      /* I = 63 */
(PID.TID 0000.0001)                 3.015274890091515E+05,      /* I = 64 */
(PID.TID 0000.0001)                 8.015229982413632E+04,      /* I = 65 */
(PID.TID 0000.0001)                 1.362652340208229E+05,      /* I = 66 */
(PID.TID 0000.0001)                 1.701080315742101E+05,      /* I = 67 */
(PID.TID 0000.0001)                 1.942331448101592E+05,      /* I = 68 */
(PID.TID 0000.0001)                 2.133486626971531E+05,      /* I = 69 */
(PID.TID 0000.0001)                 2.292584591272880E+05,      /* I = 70 */
(PID.TID 0000.0001)                 2.428369969078989E+05,      /* I = 71 */
(PID.TID 0000.0001)                 2.545652950875683E+05,      /* I = 72 */
(PID.TID 0000.0001)                 2.647274964828301E+05,      /* I = 73 */
(PID.TID 0000.0001)                 2.734980225206389E+05,      /* I = 74 */
(PID.TID 0000.0001)                 2.809856491525217E+05,      /* I = 75 */
(PID.TID 0000.0001)                 2.872580915202295E+05,      /* I = 76 */
(PID.TID 0000.0001)                 2.923567890694162E+05,      /* I = 77 */
(PID.TID 0000.0001)                 2.963063101754721E+05,      /* I = 78 */
(PID.TID 0000.0001)                 2.991205495886625E+05,      /* I = 79 */
(PID.TID 0000.0001)                 3.008068453676764E+05,      /* I = 80 */
(PID.TID 0000.0001)                 3.013686170436881E+05,      /* I = 81 */
(PID.TID 0000.0001)                 3.008068453676764E+05,      /* I = 82 */
(PID.TID 0000.0001)                 2.991205495886625E+05,      /* I = 83 */
(PID.TID 0000.0001)                 2.963063101754721E+05,      /* I = 84 */
(PID.TID 0000.0001)                 2.923567890694162E+05,      /* I = 85 */
(PID.TID 0000.0001)                 2.872580915202295E+05,      /* I = 86 */
(PID.TID 0000.0001)                 2.809856491525217E+05,      /* I = 87 */
(PID.TID 0000.0001)                 2.734980225206389E+05,      /* I = 88 */
(PID.TID 0000.0001)                 2.647274964828301E+05,      /* I = 89 */
(PID.TID 0000.0001)                 2.545652950875683E+05,      /* I = 90 */
(PID.TID 0000.0001)                 2.428369969078989E+05,      /* I = 91 */
(PID.TID 0000.0001)                 2.292584591272880E+05,      /* I = 92 */
(PID.TID 0000.0001)                 2.133486626971531E+05,      /* I = 93 */
(PID.TID 0000.0001)                 1.942331448101592E+05,      /* I = 94 */
(PID.TID 0000.0001)                 1.701080315742101E+05,      /* I = 95 */
(PID.TID 0000.0001)                 1.362652340208229E+05,      /* I = 96 */
(PID.TID 0000.0001)                 3.013031486919771E+05,      /* I = 97 */
(PID.TID 0000.0001)                 3.015274890091515E+05,      /* I = 98 */
(PID.TID 0000.0001)                 3.021908563699420E+05,      /* I = 99 */
(PID.TID 0000.0001)                 3.032648502024415E+05,      /* I =100 */
(PID.TID 0000.0001)                 3.047039405458409E+05,      /* I =101 */
(PID.TID 0000.0001)                 3.064479682824742E+05,      /* I =102 */
(PID.TID 0000.0001)                 3.084252792046263E+05,      /* I =103 */
(PID.TID 0000.0001)                 3.105562173056038E+05,      /* I =104 */
(PID.TID 0000.0001)                 3.127567211383312E+05,      /* I =105 */
(PID.TID 0000.0001)                 3.149418154158797E+05,      /* I =106 */
(PID.TID 0000.0001)                 3.170288504389129E+05,      /* I =107 */
(PID.TID 0000.0001)                 3.189403993331409E+05,      /* I =108 */
(PID.TID 0000.0001)                 3.206067683235888E+05,      /* I =109 */
(PID.TID 0000.0001)                 3.219681053727232E+05,      /* I =110 */
(PID.TID 0000.0001)                 3.229761089393431E+05,      /* I =111 */
(PID.TID 0000.0001)                 3.235953450756532E+05,      /* I =112 */
(PID.TID 0000.0001)                 3.238041816275029E+05,      /* I =113 */
(PID.TID 0000.0001)                 3.235953450756532E+05,      /* I =114 */
(PID.TID 0000.0001)                 3.229761089393431E+05,      /* I =115 */
(PID.TID 0000.0001)                 3.219681053727232E+05,      /* I =116 */
(PID.TID 0000.0001)                 3.206067683235888E+05,      /* I =117 */
(PID.TID 0000.0001)                 3.189403993331409E+05,      /* I =118 */
(PID.TID 0000.0001)                 3.170288504389129E+05,      /* I =119 */
(PID.TID 0000.0001)                 3.149418154158797E+05,      /* I =120 */
(PID.TID 0000.0001)                 3.127567211383312E+05,      /* I =121 */
(PID.TID 0000.0001)                 3.105562173056038E+05,      /* I =122 */
(PID.TID 0000.0001)                 3.084252792046263E+05,      /* I =123 */
(PID.TID 0000.0001)                 3.064479682824742E+05,      /* I =124 */
(PID.TID 0000.0001)                 3.047039405458409E+05,      /* I =125 */
(PID.TID 0000.0001)                 3.032648502024415E+05,      /* I =126 */
(PID.TID 0000.0001)                 3.021908563699420E+05,      /* I =127 */
(PID.TID 0000.0001)                 3.015274890091515E+05,      /* I =128 */
(PID.TID 0000.0001)                 8.015229982413632E+04,      /* I =129 */
(PID.TID 0000.0001)                 1.362652340208229E+05,      /* I =130 */
(PID.TID 0000.0001)                 1.701080315742101E+05,      /* I =131 */
(PID.TID 0000.0001)                 1.942331448101592E+05,      /* I =132 */
(PID.TID 0000.0001)                 2.133486626971531E+05,      /* I =133 */
(PID.TID 0000.0001)                 2.292584591272880E+05,      /* I =134 */
(PID.TID 0000.0001)                 2.428369969078989E+05,      /* I =135 */
(PID.TID 0000.0001)                 2.545652950875683E+05,      /* I =136 */
(PID.TID 0000.0001)                 2.647274964828301E+05,      /* I =137 */
(PID.TID 0000.0001)                 2.734980225206389E+05,      /* I =138 */
(PID.TID 0000.0001)                 2.809856491525217E+05,      /* I =139 */
(PID.TID 0000.0001)                 2.872580915202295E+05,      /* I =140 */
(PID.TID 0000.0001)                 2.923567890694162E+05,      /* I =141 */
(PID.TID 0000.0001)                 2.963063101754721E+05,      /* I =142 */
(PID.TID 0000.0001)                 2.991205495886625E+05,      /* I =143 */
(PID.TID 0000.0001)                 3.008068453676764E+05,      /* I =144 */
(PID.TID 0000.0001)                 3.013686170436881E+05,      /* I =145 */
(PID.TID 0000.0001)                 3.008068453676764E+05,      /* I =146 */
(PID.TID 0000.0001)                 2.991205495886625E+05,      /* I =147 */
(PID.TID 0000.0001)                 2.963063101754721E+05,      /* I =148 */
(PID.TID 0000.0001)                 2.923567890694162E+05,      /* I =149 */
(PID.TID 0000.0001)                 2.872580915202295E+05,      /* I =150 */
(PID.TID 0000.0001)                 2.809856491525217E+05,      /* I =151 */
(PID.TID 0000.0001)                 2.734980225206389E+05,      /* I =152 */
(PID.TID 0000.0001)                 2.647274964828301E+05,      /* I =153 */
(PID.TID 0000.0001)                 2.545652950875683E+05,      /* I =154 */
(PID.TID 0000.0001)                 2.428369969078989E+05,      /* I =155 */
(PID.TID 0000.0001)                 2.292584591272880E+05,      /* I =156 */
(PID.TID 0000.0001)                 2.133486626971531E+05,      /* I =157 */
(PID.TID 0000.0001)                 1.942331448101592E+05,      /* I =158 */
(PID.TID 0000.0001)                 1.701080315742101E+05,      /* I =159 */
(PID.TID 0000.0001)                 1.362652340208229E+05,      /* I =160 */
(PID.TID 0000.0001)                 3.013031486919771E+05,      /* I =161 */
(PID.TID 0000.0001)                 3.015274890091515E+05,      /* I =162 */
(PID.TID 0000.0001)                 3.021908563699420E+05,      /* I =163 */
(PID.TID 0000.0001)                 3.032648502024415E+05,      /* I =164 */
(PID.TID 0000.0001)                 3.047039405458409E+05,      /* I =165 */
(PID.TID 0000.0001)                 3.064479682824742E+05,      /* I =166 */
(PID.TID 0000.0001)                 3.084252792046263E+05,      /* I =167 */
(PID.TID 0000.0001)                 3.105562173056038E+05,      /* I =168 */
(PID.TID 0000.0001)                 3.127567211383312E+05,      /* I =169 */
(PID.TID 0000.0001)                 3.149418154158797E+05,      /* I =170 */
(PID.TID 0000.0001)                 3.170288504389129E+05,      /* I =171 */
(PID.TID 0000.0001)                 3.189403993331409E+05,      /* I =172 */
(PID.TID 0000.0001)                 3.206067683235888E+05,      /* I =173 */
(PID.TID 0000.0001)                 3.219681053727232E+05,      /* I =174 */
(PID.TID 0000.0001)                 3.229761089393431E+05,      /* I =175 */
(PID.TID 0000.0001)                 3.235953450756532E+05,      /* I =176 */
(PID.TID 0000.0001)                 3.238041816275029E+05,      /* I =177 */
(PID.TID 0000.0001)                 3.235953450756532E+05,      /* I =178 */
(PID.TID 0000.0001)                 3.229761089393431E+05,      /* I =179 */
(PID.TID 0000.0001)                 3.219681053727232E+05,      /* I =180 */
(PID.TID 0000.0001)                 3.206067683235888E+05,      /* I =181 */
(PID.TID 0000.0001)                 3.189403993331409E+05,      /* I =182 */
(PID.TID 0000.0001)                 3.170288504389129E+05,      /* I =183 */
(PID.TID 0000.0001)                 3.149418154158797E+05,      /* I =184 */
(PID.TID 0000.0001)                 3.127567211383312E+05,      /* I =185 */
(PID.TID 0000.0001)                 3.105562173056038E+05,      /* I =186 */
(PID.TID 0000.0001)                 3.084252792046263E+05,      /* I =187 */
(PID.TID 0000.0001)                 3.064479682824742E+05,      /* I =188 */
(PID.TID 0000.0001)                 3.047039405458409E+05,      /* I =189 */
(PID.TID 0000.0001)                 3.032648502024415E+05,      /* I =190 */
(PID.TID 0000.0001)                 3.021908563699420E+05,      /* I =191 */
(PID.TID 0000.0001)                 3.015274890091515E+05,      /* I =192 */
(PID.TID 0000.0001)                 8.015229982413632E+04,      /* I =193 */
(PID.TID 0000.0001)                 1.362652340208229E+05,      /* I =194 */
(PID.TID 0000.0001)                 1.701080315742101E+05,      /* I =195 */
(PID.TID 0000.0001)                 1.942331448101592E+05,      /* I =196 */
(PID.TID 0000.0001)                 2.133486626971531E+05,      /* I =197 */
(PID.TID 0000.0001)                 2.292584591272880E+05,      /* I =198 */
(PID.TID 0000.0001)                 2.428369969078989E+05,      /* I =199 */
(PID.TID 0000.0001)                 2.545652950875683E+05,      /* I =200 */
(PID.TID 0000.0001)                 2.647274964828301E+05,      /* I =201 */
(PID.TID 0000.0001)                 2.734980225206389E+05,      /* I =202 */
(PID.TID 0000.0001)                 2.809856491525217E+05,      /* I =203 */
(PID.TID 0000.0001)                 2.872580915202295E+05,      /* I =204 */
(PID.TID 0000.0001)                 2.923567890694162E+05,      /* I =205 */
(PID.TID 0000.0001)                 2.963063101754721E+05,      /* I =206 */
(PID.TID 0000.0001)                 2.991205495886625E+05,      /* I =207 */
(PID.TID 0000.0001)                 3.008068453676764E+05,      /* I =208 */
(PID.TID 0000.0001)                 3.013686170436881E+05,      /* I =209 */
(PID.TID 0000.0001)                 3.008068453676764E+05,      /* I =210 */
(PID.TID 0000.0001)                 2.991205495886625E+05,      /* I =211 */
(PID.TID 0000.0001)                 2.963063101754721E+05,      /* I =212 */
(PID.TID 0000.0001)                 2.923567890694162E+05,      /* I =213 */
(PID.TID 0000.0001)                 2.872580915202295E+05,      /* I =214 */
(PID.TID 0000.0001)                 2.809856491525217E+05,      /* I =215 */
(PID.TID 0000.0001)                 2.734980225206389E+05,      /* I =216 */
(PID.TID 0000.0001)                 2.647274964828301E+05,      /* I =217 */
(PID.TID 0000.0001)                 2.545652950875683E+05,      /* I =218 */
(PID.TID 0000.0001)                 2.428369969078989E+05,      /* I =219 */
(PID.TID 0000.0001)                 2.292584591272880E+05,      /* I =220 */
(PID.TID 0000.0001)                 2.133486626971531E+05,      /* I =221 */
(PID.TID 0000.0001)                 1.942331448101592E+05,      /* I =222 */
(PID.TID 0000.0001)                 1.701080315742101E+05,      /* I =223 */
(PID.TID 0000.0001)                 1.362652340208229E+05,      /* I =224 */
(PID.TID 0000.0001)                 3.013031486919771E+05,      /* I =225 */
(PID.TID 0000.0001)                 3.015274890091515E+05,      /* I =226 */
(PID.TID 0000.0001)                 3.021908563699420E+05,      /* I =227 */
(PID.TID 0000.0001)                 3.032648502024415E+05,      /* I =228 */
(PID.TID 0000.0001)                 3.047039405458409E+05,      /* I =229 */
(PID.TID 0000.0001)                 3.064479682824742E+05,      /* I =230 */
(PID.TID 0000.0001)                 3.084252792046263E+05,      /* I =231 */
(PID.TID 0000.0001)                 3.105562173056038E+05,      /* I =232 */
(PID.TID 0000.0001)                 3.127567211383312E+05,      /* I =233 */
(PID.TID 0000.0001)                 3.149418154158797E+05,      /* I =234 */
(PID.TID 0000.0001)                 3.170288504389129E+05,      /* I =235 */
(PID.TID 0000.0001)                 3.189403993331409E+05,      /* I =236 */
(PID.TID 0000.0001)                 3.206067683235888E+05,      /* I =237 */
(PID.TID 0000.0001)                 3.219681053727232E+05,      /* I =238 */
(PID.TID 0000.0001)                 3.229761089393431E+05,      /* I =239 */
(PID.TID 0000.0001)                 3.235953450756532E+05,      /* I =240 */
(PID.TID 0000.0001)                 3.238041816275029E+05,      /* I =241 */
(PID.TID 0000.0001)                 3.235953450756532E+05,      /* I =242 */
(PID.TID 0000.0001)                 3.229761089393431E+05,      /* I =243 */
(PID.TID 0000.0001)                 3.219681053727232E+05,      /* I =244 */
(PID.TID 0000.0001)                 3.206067683235888E+05,      /* I =245 */
(PID.TID 0000.0001)                 3.189403993331409E+05,      /* I =246 */
(PID.TID 0000.0001)                 3.170288504389129E+05,      /* I =247 */
(PID.TID 0000.0001)                 3.149418154158797E+05,      /* I =248 */
(PID.TID 0000.0001)                 3.127567211383312E+05,      /* I =249 */
(PID.TID 0000.0001)                 3.105562173056038E+05,      /* I =250 */
(PID.TID 0000.0001)                 3.084252792046263E+05,      /* I =251 */
(PID.TID 0000.0001)                 3.064479682824742E+05,      /* I =252 */
(PID.TID 0000.0001)                 3.047039405458409E+05,      /* I =253 */
(PID.TID 0000.0001)                 3.032648502024415E+05,      /* I =254 */
(PID.TID 0000.0001)                 3.021908563699420E+05,      /* I =255 */
(PID.TID 0000.0001)                 3.015274890091515E+05,      /* I =256 */
(PID.TID 0000.0001)                 8.015229982413632E+04,      /* I =257 */
(PID.TID 0000.0001)                 1.362652340208229E+05,      /* I =258 */
(PID.TID 0000.0001)                 1.701080315742101E+05,      /* I =259 */
(PID.TID 0000.0001)                 1.942331448101592E+05,      /* I =260 */
(PID.TID 0000.0001)                 2.133486626971531E+05,      /* I =261 */
(PID.TID 0000.0001)                 2.292584591272880E+05,      /* I =262 */
(PID.TID 0000.0001)                 2.428369969078989E+05,      /* I =263 */
(PID.TID 0000.0001)                 2.545652950875683E+05,      /* I =264 */
(PID.TID 0000.0001)                 2.647274964828301E+05,      /* I =265 */
(PID.TID 0000.0001)                 2.734980225206389E+05,      /* I =266 */
(PID.TID 0000.0001)                 2.809856491525217E+05,      /* I =267 */
(PID.TID 0000.0001)                 2.872580915202295E+05,      /* I =268 */
(PID.TID 0000.0001)                 2.923567890694162E+05,      /* I =269 */
(PID.TID 0000.0001)                 2.963063101754721E+05,      /* I =270 */
(PID.TID 0000.0001)                 2.991205495886625E+05,      /* I =271 */
(PID.TID 0000.0001)                 3.008068453676764E+05,      /* I =272 */
(PID.TID 0000.0001)                 3.013686170436881E+05,      /* I =273 */
(PID.TID 0000.0001)                 3.008068453676764E+05,      /* I =274 */
(PID.TID 0000.0001)                 2.991205495886625E+05,      /* I =275 */
(PID.TID 0000.0001)                 2.963063101754721E+05,      /* I =276 */
(PID.TID 0000.0001)                 2.923567890694162E+05,      /* I =277 */
(PID.TID 0000.0001)                 2.872580915202295E+05,      /* I =278 */
(PID.TID 0000.0001)                 2.809856491525217E+05,      /* I =279 */
(PID.TID 0000.0001)                 2.734980225206389E+05,      /* I =280 */
(PID.TID 0000.0001)                 2.647274964828301E+05,      /* I =281 */
(PID.TID 0000.0001)                 2.545652950875683E+05,      /* I =282 */
(PID.TID 0000.0001)                 2.428369969078989E+05,      /* I =283 */
(PID.TID 0000.0001)                 2.292584591272880E+05,      /* I =284 */
(PID.TID 0000.0001)                 2.133486626971531E+05,      /* I =285 */
(PID.TID 0000.0001)                 1.942331448101592E+05,      /* I =286 */
(PID.TID 0000.0001)                 1.701080315742101E+05,      /* I =287 */
(PID.TID 0000.0001)                 1.362652340208229E+05,      /* I =288 */
(PID.TID 0000.0001)                 3.013031486919771E+05,      /* I =289 */
(PID.TID 0000.0001)                 3.015274890091515E+05,      /* I =290 */
(PID.TID 0000.0001)                 3.021908563699420E+05,      /* I =291 */
(PID.TID 0000.0001)                 3.032648502024415E+05,      /* I =292 */
(PID.TID 0000.0001)                 3.047039405458409E+05,      /* I =293 */
(PID.TID 0000.0001)                 3.064479682824742E+05,      /* I =294 */
(PID.TID 0000.0001)                 3.084252792046263E+05,      /* I =295 */
(PID.TID 0000.0001)                 3.105562173056038E+05,      /* I =296 */
(PID.TID 0000.0001)                 3.127567211383312E+05,      /* I =297 */
(PID.TID 0000.0001)                 3.149418154158797E+05,      /* I =298 */
(PID.TID 0000.0001)                 3.170288504389129E+05,      /* I =299 */
(PID.TID 0000.0001)                 3.189403993331409E+05,      /* I =300 */
(PID.TID 0000.0001)                 3.206067683235888E+05,      /* I =301 */
(PID.TID 0000.0001)                 3.219681053727232E+05,      /* I =302 */
(PID.TID 0000.0001)                 3.229761089393431E+05,      /* I =303 */
(PID.TID 0000.0001)                 3.235953450756532E+05,      /* I =304 */
(PID.TID 0000.0001)                 3.238041816275029E+05,      /* I =305 */
(PID.TID 0000.0001)                 3.235953450756532E+05,      /* I =306 */
(PID.TID 0000.0001)                 3.229761089393431E+05,      /* I =307 */
(PID.TID 0000.0001)                 3.219681053727232E+05,      /* I =308 */
(PID.TID 0000.0001)                 3.206067683235888E+05,      /* I =309 */
(PID.TID 0000.0001)                 3.189403993331409E+05,      /* I =310 */
(PID.TID 0000.0001)                 3.170288504389129E+05,      /* I =311 */
(PID.TID 0000.0001)                 3.149418154158797E+05,      /* I =312 */
(PID.TID 0000.0001)                 3.127567211383312E+05,      /* I =313 */
(PID.TID 0000.0001)                 3.105562173056038E+05,      /* I =314 */
(PID.TID 0000.0001)                 3.084252792046263E+05,      /* I =315 */
(PID.TID 0000.0001)                 3.064479682824742E+05,      /* I =316 */
(PID.TID 0000.0001)                 3.047039405458409E+05,      /* I =317 */
(PID.TID 0000.0001)                 3.032648502024415E+05,      /* I =318 */
(PID.TID 0000.0001)                 3.021908563699420E+05,      /* I =319 */
(PID.TID 0000.0001)                 3.015274890091515E+05,      /* I =320 */
(PID.TID 0000.0001)                 8.015229982413632E+04,      /* I =321 */
(PID.TID 0000.0001)                 1.362652340208229E+05,      /* I =322 */
(PID.TID 0000.0001)                 1.701080315742101E+05,      /* I =323 */
(PID.TID 0000.0001)                 1.942331448101592E+05,      /* I =324 */
(PID.TID 0000.0001)                 2.133486626971531E+05,      /* I =325 */
(PID.TID 0000.0001)                 2.292584591272880E+05,      /* I =326 */
(PID.TID 0000.0001)                 2.428369969078989E+05,      /* I =327 */
(PID.TID 0000.0001)                 2.545652950875683E+05,      /* I =328 */
(PID.TID 0000.0001)                 2.647274964828301E+05,      /* I =329 */
(PID.TID 0000.0001)                 2.734980225206389E+05,      /* I =330 */
(PID.TID 0000.0001)                 2.809856491525217E+05,      /* I =331 */
(PID.TID 0000.0001)                 2.872580915202295E+05,      /* I =332 */
(PID.TID 0000.0001)                 2.923567890694162E+05,      /* I =333 */
(PID.TID 0000.0001)                 2.963063101754721E+05,      /* I =334 */
(PID.TID 0000.0001)                 2.991205495886625E+05,      /* I =335 */
(PID.TID 0000.0001)                 3.008068453676764E+05,      /* I =336 */
(PID.TID 0000.0001)                 3.013686170436881E+05,      /* I =337 */
(PID.TID 0000.0001)                 3.008068453676764E+05,      /* I =338 */
(PID.TID 0000.0001)                 2.991205495886625E+05,      /* I =339 */
(PID.TID 0000.0001)                 2.963063101754721E+05,      /* I =340 */
(PID.TID 0000.0001)                 2.923567890694162E+05,      /* I =341 */
(PID.TID 0000.0001)                 2.872580915202295E+05,      /* I =342 */
(PID.TID 0000.0001)                 2.809856491525217E+05,      /* I =343 */
(PID.TID 0000.0001)                 2.734980225206389E+05,      /* I =344 */
(PID.TID 0000.0001)                 2.647274964828301E+05,      /* I =345 */
(PID.TID 0000.0001)                 2.545652950875683E+05,      /* I =346 */
(PID.TID 0000.0001)                 2.428369969078989E+05,      /* I =347 */
(PID.TID 0000.0001)                 2.292584591272880E+05,      /* I =348 */
(PID.TID 0000.0001)                 2.133486626971531E+05,      /* I =349 */
(PID.TID 0000.0001)                 1.942331448101592E+05,      /* I =350 */
(PID.TID 0000.0001)                 1.701080315742101E+05,      /* I =351 */
(PID.TID 0000.0001)                 1.362652340208229E+05,      /* I =352 */
(PID.TID 0000.0001)                 3.013031486919771E+05,      /* I =353 */
(PID.TID 0000.0001)                 3.015274890091515E+05,      /* I =354 */
(PID.TID 0000.0001)                 3.021908563699420E+05,      /* I =355 */
(PID.TID 0000.0001)                 3.032648502024415E+05,      /* I =356 */
(PID.TID 0000.0001)                 3.047039405458409E+05,      /* I =357 */
(PID.TID 0000.0001)                 3.064479682824742E+05,      /* I =358 */
(PID.TID 0000.0001)                 3.084252792046263E+05,      /* I =359 */
(PID.TID 0000.0001)                 3.105562173056038E+05,      /* I =360 */
(PID.TID 0000.0001)                 3.127567211383312E+05,      /* I =361 */
(PID.TID 0000.0001)                 3.149418154158797E+05,      /* I =362 */
(PID.TID 0000.0001)                 3.170288504389129E+05,      /* I =363 */
(PID.TID 0000.0001)                 3.189403993331409E+05,      /* I =364 */
(PID.TID 0000.0001)                 3.206067683235888E+05,      /* I =365 */
(PID.TID 0000.0001)                 3.219681053727232E+05,      /* I =366 */
(PID.TID 0000.0001)                 3.229761089393431E+05,      /* I =367 */
(PID.TID 0000.0001)                 3.235953450756532E+05,      /* I =368 */
(PID.TID 0000.0001)                 3.238041816275029E+05,      /* I =369 */
(PID.TID 0000.0001)                 3.235953450756532E+05,      /* I =370 */
(PID.TID 0000.0001)                 3.229761089393431E+05,      /* I =371 */
(PID.TID 0000.0001)                 3.219681053727232E+05,      /* I =372 */
(PID.TID 0000.0001)                 3.206067683235888E+05,      /* I =373 */
(PID.TID 0000.0001)                 3.189403993331409E+05,      /* I =374 */
(PID.TID 0000.0001)                 3.170288504389129E+05,      /* I =375 */
(PID.TID 0000.0001)                 3.149418154158797E+05,      /* I =376 */
(PID.TID 0000.0001)                 3.127567211383312E+05,      /* I =377 */
(PID.TID 0000.0001)                 3.105562173056038E+05,      /* I =378 */
(PID.TID 0000.0001)                 3.084252792046263E+05,      /* I =379 */
(PID.TID 0000.0001)                 3.064479682824742E+05,      /* I =380 */
(PID.TID 0000.0001)                 3.047039405458409E+05,      /* I =381 */
(PID.TID 0000.0001)                 3.032648502024415E+05,      /* I =382 */
(PID.TID 0000.0001)                 3.021908563699420E+05,      /* I =383 */
(PID.TID 0000.0001)                 3.015274890091515E+05       /* I =384 */
(PID.TID 0000.0001)     ;
(PID.TID 0000.0001) dyU =  /* dyU(1,:,1,:) ( m - cartesian, degrees - spherical ) */
(PID.TID 0000.0001)                 8.015229982413632E+04,      /* J =  1 */
(PID.TID 0000.0001)                 1.333130744933864E+05,      /* J =  2 */
(PID.TID 0000.0001)                 1.691744868129062E+05,      /* J =  3 */
(PID.TID 0000.0001)                 1.937548202849060E+05,      /* J =  4 */
(PID.TID 0000.0001)                 2.130490056267208E+05,      /* J =  5 */
(PID.TID 0000.0001)                 2.290479919481738E+05,      /* J =  6 */
(PID.TID 0000.0001)                 2.426774358027003E+05,      /* J =  7 */
(PID.TID 0000.0001)                 2.544372984215561E+05,      /* J =  8 */
(PID.TID 0000.0001)                 2.646201463834826E+05,      /* J =  9 */
(PID.TID 0000.0001)                 2.734046499619031E+05,      /* J = 10 */
(PID.TID 0000.0001)                 2.809019351693761E+05,      /* J = 11 */
(PID.TID 0000.0001)                 2.871811105274442E+05,      /* J = 12 */
(PID.TID 0000.0001)                 2.922844849381675E+05,      /* J = 13 */
(PID.TID 0000.0001)                 2.962371870847826E+05,      /* J = 14 */
(PID.TID 0000.0001)                 2.990534755671296E+05,      /* J = 15 */
(PID.TID 0000.0001)                 3.007409169495504E+05       /* J = 16 */
(PID.TID 0000.0001)     ;
(PID.TID 0000.0001) rA =  /* rA(:,1,:,1) ( m - cartesian, degrees - spherical ) */
(PID.TID 0000.0001)                 1.401900702255611E+10,      /* I =  1 */
(PID.TID 0000.0001)                 2.459906945574446E+10,      /* I =  2 */
(PID.TID 0000.0001)                 3.378518544307869E+10,      /* I =  3 */
(PID.TID 0000.0001)                 4.192037169898667E+10,      /* I =  4 */
(PID.TID 0000.0001)                 4.925938996118163E+10,      /* I =  5 */
(PID.TID 0000.0001)                 5.594154126607553E+10,      /* I =  6 */
(PID.TID 0000.0001)                 6.203683527772523E+10,      /* I =  7 */
(PID.TID 0000.0001)                 6.757541173817516E+10,      /* I =  8 */
(PID.TID 0000.0001)                 7.256353271748119E+10,      /* I =  9 */
(PID.TID 0000.0001)                 7.699293007098555E+10,      /* I = 10 */
(PID.TID 0000.0001)                 8.084683449728902E+10,      /* I = 11 */
(PID.TID 0000.0001)                 8.410423102796223E+10,      /* I = 12 */
(PID.TID 0000.0001)                 8.674306976737517E+10,      /* I = 13 */
(PID.TID 0000.0001)                 8.874277443041928E+10,      /* I = 14 */
(PID.TID 0000.0001)                 9.008620045350865E+10,      /* I = 15 */
(PID.TID 0000.0001)                 9.076111290418457E+10,      /* I = 16 */
(PID.TID 0000.0001)                 9.076111290422060E+10,      /* I = 17 */
(PID.TID 0000.0001)                 9.008620045354469E+10,      /* I = 18 */
(PID.TID 0000.0001)                 8.874277443041928E+10,      /* I = 19 */
(PID.TID 0000.0001)                 8.674306976741121E+10,      /* I = 20 */
(PID.TID 0000.0001)                 8.410423102799828E+10,      /* I = 21 */
(PID.TID 0000.0001)                 8.084683449728902E+10,      /* I = 22 */
(PID.TID 0000.0001)                 7.699293007098555E+10,      /* I = 23 */
(PID.TID 0000.0001)                 7.256353271748119E+10,      /* I = 24 */
(PID.TID 0000.0001)                 6.757541173817516E+10,      /* I = 25 */
(PID.TID 0000.0001)                 6.203683527772523E+10,      /* I = 26 */
(PID.TID 0000.0001)                 5.594154126611156E+10,      /* I = 27 */
(PID.TID 0000.0001)                 4.925938996118163E+10,      /* I = 28 */
(PID.TID 0000.0001)                 4.192037169898667E+10,      /* I = 29 */
(PID.TID 0000.0001)                 3.378518544304265E+10,      /* I = 30 */
(PID.TID 0000.0001)                 2.459906945574446E+10,      /* I = 31 */
(PID.TID 0000.0001)                 1.401900702259215E+10,      /* I = 32 */
(PID.TID 0000.0001)                 9.076111290422060E+10,      /* I = 33 */
(PID.TID 0000.0001)                 9.103111035233499E+10,      /* I = 34 */
(PID.TID 0000.0001)                 9.156064070993231E+10,      /* I = 35 */
(PID.TID 0000.0001)                 9.232920428260213E+10,      /* I = 36 */
(PID.TID 0000.0001)                 9.330709899483766E+10,      /* I = 37 */
(PID.TID 0000.0001)                 9.445660930090860E+10,      /* I = 38 */
(PID.TID 0000.0001)                 9.573349030317511E+10,      /* I = 39 */
(PID.TID 0000.0001)                 9.708868016530809E+10,      /* I = 40 */
(PID.TID 0000.0001)                 9.847017339806476E+10,      /* I = 41 */
(PID.TID 0000.0001)                 9.982498936271980E+10,      /* I = 42 */
(PID.TID 0000.0001)                 1.011011716698855E+11,      /* I = 43 */
(PID.TID 0000.0001)                 1.022497537646060E+11,      /* I = 44 */
(PID.TID 0000.0001)                 1.032266241858423E+11,      /* I = 45 */
(PID.TID 0000.0001)                 1.039942233001552E+11,      /* I = 46 */
(PID.TID 0000.0001)                 1.045230037451501E+11,      /* I = 47 */
(PID.TID 0000.0001)     2 @  1.047926024841940E+11,             /* I = 48: 49 */
(PID.TID 0000.0001)                 1.045230037451861E+11,      /* I = 50 */
(PID.TID 0000.0001)                 1.039942233001552E+11,      /* I = 51 */
(PID.TID 0000.0001)                 1.032266241858783E+11,      /* I = 52 */
(PID.TID 0000.0001)                 1.022497537646060E+11,      /* I = 53 */
(PID.TID 0000.0001)                 1.011011716699215E+11,      /* I = 54 */
(PID.TID 0000.0001)                 9.982498936268376E+10,      /* I = 55 */
(PID.TID 0000.0001)                 9.847017339806476E+10,      /* I = 56 */
(PID.TID 0000.0001)                 9.708868016527205E+10,      /* I = 57 */
(PID.TID 0000.0001)                 9.573349030313907E+10,      /* I = 58 */
(PID.TID 0000.0001)                 9.445660930090860E+10,      /* I = 59 */
(PID.TID 0000.0001)                 9.330709899483766E+10,      /* I = 60 */
(PID.TID 0000.0001)                 9.232920428256609E+10,      /* I = 61 */
(PID.TID 0000.0001)                 9.156064070993231E+10,      /* I = 62 */
(PID.TID 0000.0001)                 9.103111035233499E+10,      /* I = 63 */
(PID.TID 0000.0001)                 9.076111290418457E+10,      /* I = 64 */
(PID.TID 0000.0001)                 1.401900702255611E+10,      /* I = 65 */
(PID.TID 0000.0001)                 2.459906945574446E+10,      /* I = 66 */
(PID.TID 0000.0001)                 3.378518544307869E+10,      /* I = 67 */
(PID.TID 0000.0001)                 4.192037169898667E+10,      /* I = 68 */
(PID.TID 0000.0001)                 4.925938996118163E+10,      /* I = 69 */
(PID.TID 0000.0001)                 5.594154126607553E+10,      /* I = 70 */
(PID.TID 0000.0001)                 6.203683527772523E+10,      /* I = 71 */
(PID.TID 0000.0001)                 6.757541173817516E+10,      /* I = 72 */
(PID.TID 0000.0001)                 7.256353271748119E+10,      /* I = 73 */
(PID.TID 0000.0001)                 7.699293007098555E+10,      /* I = 74 */
(PID.TID 0000.0001)                 8.084683449728902E+10,      /* I = 75 */
(PID.TID 0000.0001)                 8.410423102796223E+10,      /* I = 76 */
(PID.TID 0000.0001)                 8.674306976737517E+10,      /* I = 77 */
(PID.TID 0000.0001)                 8.874277443041928E+10,      /* I = 78 */
(PID.TID 0000.0001)                 9.008620045350865E+10,      /* I = 79 */
(PID.TID 0000.0001)                 9.076111290418457E+10,      /* I = 80 */
(PID.TID 0000.0001)                 9.076111290422060E+10,      /* I = 81 */
(PID.TID 0000.0001)                 9.008620045354469E+10,      /* I = 82 */
(PID.TID 0000.0001)                 8.874277443041928E+10,      /* I = 83 */
(PID.TID 0000.0001)                 8.674306976741121E+10,      /* I = 84 */
(PID.TID 0000.0001)                 8.410423102799828E+10,      /* I = 85 */
(PID.TID 0000.0001)                 8.084683449728902E+10,      /* I = 86 */
(PID.TID 0000.0001)                 7.699293007098555E+10,      /* I = 87 */
(PID.TID 0000.0001)                 7.256353271748119E+10,      /* I = 88 */
(PID.TID 0000.0001)                 6.757541173817516E+10,      /* I = 89 */
(PID.TID 0000.0001)                 6.203683527772523E+10,      /* I = 90 */
(PID.TID 0000.0001)                 5.594154126611156E+10,      /* I = 91 */
(PID.TID 0000.0001)                 4.925938996118163E+10,      /* I = 92 */
(PID.TID 0000.0001)                 4.192037169898667E+10,      /* I = 93 */
(PID.TID 0000.0001)                 3.378518544304265E+10,      /* I = 94 */
(PID.TID 0000.0001)                 2.459906945574446E+10,      /* I = 95 */
(PID.TID 0000.0001)                 1.401900702259215E+10,      /* I = 96 */
(PID.TID 0000.0001)                 9.076111290422060E+10,      /* I = 97 */
(PID.TID 0000.0001)                 9.103111035233499E+10,      /* I = 98 */
(PID.TID 0000.0001)                 9.156064070993231E+10,      /* I = 99 */
(PID.TID 0000.0001)                 9.232920428260213E+10,      /* I =100 */
(PID.TID 0000.0001)                 9.330709899483766E+10,      /* I =101 */
(PID.TID 0000.0001)                 9.445660930090860E+10,      /* I =102 */
(PID.TID 0000.0001)                 9.573349030317511E+10,      /* I =103 */
(PID.TID 0000.0001)                 9.708868016530809E+10,      /* I =104 */
(PID.TID 0000.0001)                 9.847017339806476E+10,      /* I =105 */
(PID.TID 0000.0001)                 9.982498936271980E+10,      /* I =106 */
(PID.TID 0000.0001)                 1.011011716698855E+11,      /* I =107 */
(PID.TID 0000.0001)                 1.022497537646060E+11,      /* I =108 */
(PID.TID 0000.0001)                 1.032266241858423E+11,      /* I =109 */
(PID.TID 0000.0001)                 1.039942233001552E+11,      /* I =110 */
(PID.TID 0000.0001)                 1.045230037451501E+11,      /* I =111 */
(PID.TID 0000.0001)     2 @  1.047926024841940E+11,             /* I =112:113 */
(PID.TID 0000.0001)                 1.045230037451861E+11,      /* I =114 */
(PID.TID 0000.0001)                 1.039942233001552E+11,      /* I =115 */
(PID.TID 0000.0001)                 1.032266241858783E+11,      /* I =116 */
(PID.TID 0000.0001)                 1.022497537646060E+11,      /* I =117 */
(PID.TID 0000.0001)                 1.011011716699215E+11,      /* I =118 */
(PID.TID 0000.0001)                 9.982498936268376E+10,      /* I =119 */
(PID.TID 0000.0001)                 9.847017339806476E+10,      /* I =120 */
(PID.TID 0000.0001)                 9.708868016527205E+10,      /* I =121 */
(PID.TID 0000.0001)                 9.573349030313907E+10,      /* I =122 */
(PID.TID 0000.0001)                 9.445660930090860E+10,      /* I =123 */
(PID.TID 0000.0001)                 9.330709899483766E+10,      /* I =124 */
(PID.TID 0000.0001)                 9.232920428256609E+10,      /* I =125 */
(PID.TID 0000.0001)                 9.156064070993231E+10,      /* I =126 */
(PID.TID 0000.0001)                 9.103111035233499E+10,      /* I =127 */
(PID.TID 0000.0001)                 9.076111290418457E+10,      /* I =128 */
(PID.TID 0000.0001)                 1.401900702255611E+10,      /* I =129 */
(PID.TID 0000.0001)                 2.459906945574446E+10,      /* I =130 */
(PID.TID 0000.0001)                 3.378518544307869E+10,      /* I =131 */
(PID.TID 0000.0001)                 4.192037169898667E+10,      /* I =132 */
(PID.TID 0000.0001)                 4.925938996118163E+10,      /* I =133 */
(PID.TID 0000.0001)                 5.594154126607553E+10,      /* I =134 */
(PID.TID 0000.0001)                 6.203683527772523E+10,      /* I =135 */
(PID.TID 0000.0001)                 6.757541173817516E+10,      /* I =136 */
(PID.TID 0000.0001)                 7.256353271748119E+10,      /* I =137 */
(PID.TID 0000.0001)                 7.699293007098555E+10,      /* I =138 */
(PID.TID 0000.0001)                 8.084683449728902E+10,      /* I =139 */
(PID.TID 0000.0001)                 8.410423102796223E+10,      /* I =140 */
(PID.TID 0000.0001)                 8.674306976737517E+10,      /* I =141 */
(PID.TID 0000.0001)                 8.874277443041928E+10,      /* I =142 */
(PID.TID 0000.0001)                 9.008620045350865E+10,      /* I =143 */
(PID.TID 0000.0001)                 9.076111290418457E+10,      /* I =144 */
(PID.TID 0000.0001)                 9.076111290422060E+10,      /* I =145 */
(PID.TID 0000.0001)                 9.008620045354469E+10,      /* I =146 */
(PID.TID 0000.0001)                 8.874277443041928E+10,      /* I =147 */
(PID.TID 0000.0001)                 8.674306976741121E+10,      /* I =148 */
(PID.TID 0000.0001)                 8.410423102799828E+10,      /* I =149 */
(PID.TID 0000.0001)                 8.084683449728902E+10,      /* I =150 */
(PID.TID 0000.0001)                 7.699293007098555E+10,      /* I =151 */
(PID.TID 0000.0001)                 7.256353271748119E+10,      /* I =152 */
(PID.TID 0000.0001)                 6.757541173817516E+10,      /* I =153 */
(PID.TID 0000.0001)                 6.203683527772523E+10,      /* I =154 */
(PID.TID 0000.0001)                 5.594154126611156E+10,      /* I =155 */
(PID.TID 0000.0001)                 4.925938996118163E+10,      /* I =156 */
(PID.TID 0000.0001)                 4.192037169898667E+10,      /* I =157 */
(PID.TID 0000.0001)                 3.378518544304265E+10,      /* I =158 */
(PID.TID 0000.0001)                 2.459906945574446E+10,      /* I =159 */
(PID.TID 0000.0001)                 1.401900702259215E+10,      /* I =160 */
(PID.TID 0000.0001)                 9.076111290422060E+10,      /* I =161 */
(PID.TID 0000.0001)                 9.103111035233499E+10,      /* I =162 */
(PID.TID 0000.0001)                 9.156064070993231E+10,      /* I =163 */
(PID.TID 0000.0001)                 9.232920428260213E+10,      /* I =164 */
(PID.TID 0000.0001)                 9.330709899483766E+10,      /* I =165 */
(PID.TID 0000.0001)                 9.445660930090860E+10,      /* I =166 */
(PID.TID 0000.0001)                 9.573349030317511E+10,      /* I =167 */
(PID.TID 0000.0001)                 9.708868016530809E+10,      /* I =168 */
(PID.TID 0000.0001)                 9.847017339806476E+10,      /* I =169 */
(PID.TID 0000.0001)                 9.982498936271980E+10,      /* I =170 */
(PID.TID 0000.0001)                 1.011011716698855E+11,      /* I =171 */
(PID.TID 0000.0001)                 1.022497537646060E+11,      /* I =172 */
(PID.TID 0000.0001)                 1.032266241858423E+11,      /* I =173 */
(PID.TID 0000.0001)                 1.039942233001552E+11,      /* I =174 */
(PID.TID 0000.0001)                 1.045230037451501E+11,      /* I =175 */
(PID.TID 0000.0001)     2 @  1.047926024841940E+11,             /* I =176:177 */
(PID.TID 0000.0001)                 1.045230037451861E+11,      /* I =178 */
(PID.TID 0000.0001)                 1.039942233001552E+11,      /* I =179 */
(PID.TID 0000.0001)                 1.032266241858783E+11,      /* I =180 */
(PID.TID 0000.0001)                 1.022497537646060E+11,      /* I =181 */
(PID.TID 0000.0001)                 1.011011716699215E+11,      /* I =182 */
(PID.TID 0000.0001)                 9.982498936268376E+10,      /* I =183 */
(PID.TID 0000.0001)                 9.847017339806476E+10,      /* I =184 */
(PID.TID 0000.0001)                 9.708868016527205E+10,      /* I =185 */
(PID.TID 0000.0001)                 9.573349030313907E+10,      /* I =186 */
(PID.TID 0000.0001)                 9.445660930090860E+10,      /* I =187 */
(PID.TID 0000.0001)                 9.330709899483766E+10,      /* I =188 */
(PID.TID 0000.0001)                 9.232920428256609E+10,      /* I =189 */
(PID.TID 0000.0001)                 9.156064070993231E+10,      /* I =190 */
(PID.TID 0000.0001)                 9.103111035233499E+10,      /* I =191 */
(PID.TID 0000.0001)                 9.076111290418457E+10,      /* I =192 */
(PID.TID 0000.0001)                 1.401900702255611E+10,      /* I =193 */
(PID.TID 0000.0001)                 2.459906945574446E+10,      /* I =194 */
(PID.TID 0000.0001)                 3.378518544307869E+10,      /* I =195 */
(PID.TID 0000.0001)                 4.192037169898667E+10,      /* I =196 */
(PID.TID 0000.0001)                 4.925938996118163E+10,      /* I =197 */
(PID.TID 0000.0001)                 5.594154126607553E+10,      /* I =198 */
(PID.TID 0000.0001)                 6.203683527772523E+10,      /* I =199 */
(PID.TID 0000.0001)                 6.757541173817516E+10,      /* I =200 */
(PID.TID 0000.0001)                 7.256353271748119E+10,      /* I =201 */
(PID.TID 0000.0001)                 7.699293007098555E+10,      /* I =202 */
(PID.TID 0000.0001)                 8.084683449728902E+10,      /* I =203 */
(PID.TID 0000.0001)                 8.410423102796223E+10,      /* I =204 */
(PID.TID 0000.0001)                 8.674306976737517E+10,      /* I =205 */
(PID.TID 0000.0001)                 8.874277443041928E+10,      /* I =206 */
(PID.TID 0000.0001)                 9.008620045350865E+10,      /* I =207 */
(PID.TID 0000.0001)                 9.076111290418457E+10,      /* I =208 */
(PID.TID 0000.0001)                 9.076111290422060E+10,      /* I =209 */
(PID.TID 0000.0001)                 9.008620045354469E+10,      /* I =210 */
(PID.TID 0000.0001)                 8.874277443041928E+10,      /* I =211 */
(PID.TID 0000.0001)                 8.674306976741121E+10,      /* I =212 */
(PID.TID 0000.0001)                 8.410423102799828E+10,      /* I =213 */
(PID.TID 0000.0001)                 8.084683449728902E+10,      /* I =214 */
(PID.TID 0000.0001)                 7.699293007098555E+10,      /* I =215 */
(PID.TID 0000.0001)                 7.256353271748119E+10,      /* I =216 */
(PID.TID 0000.0001)                 6.757541173817516E+10,      /* I =217 */
(PID.TID 0000.0001)                 6.203683527772523E+10,      /* I =218 */
(PID.TID 0000.0001)                 5.594154126611156E+10,      /* I =219 */
(PID.TID 0000.0001)                 4.925938996118163E+10,      /* I =220 */
(PID.TID 0000.0001)                 4.192037169898667E+10,      /* I =221 */
(PID.TID 0000.0001)                 3.378518544304265E+10,      /* I =222 */
(PID.TID 0000.0001)                 2.459906945574446E+10,      /* I =223 */
(PID.TID 0000.0001)                 1.401900702259215E+10,      /* I =224 */
(PID.TID 0000.0001)                 9.076111290422060E+10,      /* I =225 */
(PID.TID 0000.0001)                 9.103111035233499E+10,      /* I =226 */
(PID.TID 0000.0001)                 9.156064070993231E+10,      /* I =227 */
(PID.TID 0000.0001)                 9.232920428260213E+10,      /* I =228 */
(PID.TID 0000.0001)                 9.330709899483766E+10,      /* I =229 */
(PID.TID 0000.0001)                 9.445660930090860E+10,      /* I =230 */
(PID.TID 0000.0001)                 9.573349030317511E+10,      /* I =231 */
(PID.TID 0000.0001)                 9.708868016530809E+10,      /* I =232 */
(PID.TID 0000.0001)                 9.847017339806476E+10,      /* I =233 */
(PID.TID 0000.0001)                 9.982498936271980E+10,      /* I =234 */
(PID.TID 0000.0001)                 1.011011716698855E+11,      /* I =235 */
(PID.TID 0000.0001)                 1.022497537646060E+11,      /* I =236 */
(PID.TID 0000.0001)                 1.032266241858423E+11,      /* I =237 */
(PID.TID 0000.0001)                 1.039942233001552E+11,      /* I =238 */
(PID.TID 0000.0001)                 1.045230037451501E+11,      /* I =239 */
(PID.TID 0000.0001)     2 @  1.047926024841940E+11,             /* I =240:241 */
(PID.TID 0000.0001)                 1.045230037451861E+11,      /* I =242 */
(PID.TID 0000.0001)                 1.039942233001552E+11,      /* I =243 */
(PID.TID 0000.0001)                 1.032266241858783E+11,      /* I =244 */
(PID.TID 0000.0001)                 1.022497537646060E+11,      /* I =245 */
(PID.TID 0000.0001)                 1.011011716699215E+11,      /* I =246 */
(PID.TID 0000.0001)                 9.982498936268376E+10,      /* I =247 */
(PID.TID 0000.0001)                 9.847017339806476E+10,      /* I =248 */
(PID.TID 0000.0001)                 9.708868016527205E+10,      /* I =249 */
(PID.TID 0000.0001)                 9.573349030313907E+10,      /* I =250 */
(PID.TID 0000.0001)                 9.445660930090860E+10,      /* I =251 */
(PID.TID 0000.0001)                 9.330709899483766E+10,      /* I =252 */
(PID.TID 0000.0001)                 9.232920428256609E+10,      /* I =253 */
(PID.TID 0000.0001)                 9.156064070993231E+10,      /* I =254 */
(PID.TID 0000.0001)                 9.103111035233499E+10,      /* I =255 */
(PID.TID 0000.0001)                 9.076111290418457E+10,      /* I =256 */
(PID.TID 0000.0001)                 1.401900702255611E+10,      /* I =257 */
(PID.TID 0000.0001)                 2.459906945574446E+10,      /* I =258 */
(PID.TID 0000.0001)                 3.378518544307869E+10,      /* I =259 */
(PID.TID 0000.0001)                 4.192037169898667E+10,      /* I =260 */
(PID.TID 0000.0001)                 4.925938996118163E+10,      /* I =261 */
(PID.TID 0000.0001)                 5.594154126607553E+10,      /* I =262 */
(PID.TID 0000.0001)                 6.203683527772523E+10,      /* I =263 */
(PID.TID 0000.0001)                 6.757541173817516E+10,      /* I =264 */
(PID.TID 0000.0001)                 7.256353271748119E+10,      /* I =265 */
(PID.TID 0000.0001)                 7.699293007098555E+10,      /* I =266 */
(PID.TID 0000.0001)                 8.084683449728902E+10,      /* I =267 */
(PID.TID 0000.0001)                 8.410423102796223E+10,      /* I =268 */
(PID.TID 0000.0001)                 8.674306976737517E+10,      /* I =269 */
(PID.TID 0000.0001)                 8.874277443041928E+10,      /* I =270 */
(PID.TID 0000.0001)                 9.008620045350865E+10,      /* I =271 */
(PID.TID 0000.0001)                 9.076111290418457E+10,      /* I =272 */
(PID.TID 0000.0001)                 9.076111290422060E+10,      /* I =273 */
(PID.TID 0000.0001)                 9.008620045354469E+10,      /* I =274 */
(PID.TID 0000.0001)                 8.874277443041928E+10,      /* I =275 */
(PID.TID 0000.0001)                 8.674306976741121E+10,      /* I =276 */
(PID.TID 0000.0001)                 8.410423102799828E+10,      /* I =277 */
(PID.TID 0000.0001)                 8.084683449728902E+10,      /* I =278 */
(PID.TID 0000.0001)                 7.699293007098555E+10,      /* I =279 */
(PID.TID 0000.0001)                 7.256353271748119E+10,      /* I =280 */
(PID.TID 0000.0001)                 6.757541173817516E+10,      /* I =281 */
(PID.TID 0000.0001)                 6.203683527772523E+10,      /* I =282 */
(PID.TID 0000.0001)                 5.594154126611156E+10,      /* I =283 */
(PID.TID 0000.0001)                 4.925938996118163E+10,      /* I =284 */
(PID.TID 0000.0001)                 4.192037169898667E+10,      /* I =285 */
(PID.TID 0000.0001)                 3.378518544304265E+10,      /* I =286 */
(PID.TID 0000.0001)                 2.459906945574446E+10,      /* I =287 */
(PID.TID 0000.0001)                 1.401900702259215E+10,      /* I =288 */
(PID.TID 0000.0001)                 9.076111290422060E+10,      /* I =289 */
(PID.TID 0000.0001)                 9.103111035233499E+10,      /* I =290 */
(PID.TID 0000.0001)                 9.156064070993231E+10,      /* I =291 */
(PID.TID 0000.0001)                 9.232920428260213E+10,      /* I =292 */
(PID.TID 0000.0001)                 9.330709899483766E+10,      /* I =293 */
(PID.TID 0000.0001)                 9.445660930090860E+10,      /* I =294 */
(PID.TID 0000.0001)                 9.573349030317511E+10,      /* I =295 */
(PID.TID 0000.0001)                 9.708868016530809E+10,      /* I =296 */
(PID.TID 0000.0001)                 9.847017339806476E+10,      /* I =297 */
(PID.TID 0000.0001)                 9.982498936271980E+10,      /* I =298 */
(PID.TID 0000.0001)                 1.011011716698855E+11,      /* I =299 */
(PID.TID 0000.0001)                 1.022497537646060E+11,      /* I =300 */
(PID.TID 0000.0001)                 1.032266241858423E+11,      /* I =301 */
(PID.TID 0000.0001)                 1.039942233001552E+11,      /* I =302 */
(PID.TID 0000.0001)                 1.045230037451501E+11,      /* I =303 */
(PID.TID 0000.0001)     2 @  1.047926024841940E+11,             /* I =304:305 */
(PID.TID 0000.0001)                 1.045230037451861E+11,      /* I =306 */
(PID.TID 0000.0001)                 1.039942233001552E+11,      /* I =307 */
(PID.TID 0000.0001)                 1.032266241858783E+11,      /* I =308 */
(PID.TID 0000.0001)                 1.022497537646060E+11,      /* I =309 */
(PID.TID 0000.0001)                 1.011011716699215E+11,      /* I =310 */
(PID.TID 0000.0001)                 9.982498936268376E+10,      /* I =311 */
(PID.TID 0000.0001)                 9.847017339806476E+10,      /* I =312 */
(PID.TID 0000.0001)                 9.708868016527205E+10,      /* I =313 */
(PID.TID 0000.0001)                 9.573349030313907E+10,      /* I =314 */
(PID.TID 0000.0001)                 9.445660930090860E+10,      /* I =315 */
(PID.TID 0000.0001)                 9.330709899483766E+10,      /* I =316 */
(PID.TID 0000.0001)                 9.232920428256609E+10,      /* I =317 */
(PID.TID 0000.0001)                 9.156064070993231E+10,      /* I =318 */
(PID.TID 0000.0001)                 9.103111035233499E+10,      /* I =319 */
(PID.TID 0000.0001)                 9.076111290418457E+10,      /* I =320 */
(PID.TID 0000.0001)                 1.401900702255611E+10,      /* I =321 */
(PID.TID 0000.0001)                 2.459906945574446E+10,      /* I =322 */
(PID.TID 0000.0001)                 3.378518544307869E+10,      /* I =323 */
(PID.TID 0000.0001)                 4.192037169898667E+10,      /* I =324 */
(PID.TID 0000.0001)                 4.925938996118163E+10,      /* I =325 */
(PID.TID 0000.0001)                 5.594154126607553E+10,      /* I =326 */
(PID.TID 0000.0001)                 6.203683527772523E+10,      /* I =327 */
(PID.TID 0000.0001)                 6.757541173817516E+10,      /* I =328 */
(PID.TID 0000.0001)                 7.256353271748119E+10,      /* I =329 */
(PID.TID 0000.0001)                 7.699293007098555E+10,      /* I =330 */
(PID.TID 0000.0001)                 8.084683449728902E+10,      /* I =331 */
(PID.TID 0000.0001)                 8.410423102796223E+10,      /* I =332 */
(PID.TID 0000.0001)                 8.674306976737517E+10,      /* I =333 */
(PID.TID 0000.0001)                 8.874277443041928E+10,      /* I =334 */
(PID.TID 0000.0001)                 9.008620045350865E+10,      /* I =335 */
(PID.TID 0000.0001)                 9.076111290418457E+10,      /* I =336 */
(PID.TID 0000.0001)                 9.076111290422060E+10,      /* I =337 */
(PID.TID 0000.0001)                 9.008620045354469E+10,      /* I =338 */
(PID.TID 0000.0001)                 8.874277443041928E+10,      /* I =339 */
(PID.TID 0000.0001)                 8.674306976741121E+10,      /* I =340 */
(PID.TID 0000.0001)                 8.410423102799828E+10,      /* I =341 */
(PID.TID 0000.0001)                 8.084683449728902E+10,      /* I =342 */
(PID.TID 0000.0001)                 7.699293007098555E+10,      /* I =343 */
(PID.TID 0000.0001)                 7.256353271748119E+10,      /* I =344 */
(PID.TID 0000.0001)                 6.757541173817516E+10,      /* I =345 */
(PID.TID 0000.0001)                 6.203683527772523E+10,      /* I =346 */
(PID.TID 0000.0001)                 5.594154126611156E+10,      /* I =347 */
(PID.TID 0000.0001)                 4.925938996118163E+10,      /* I =348 */
(PID.TID 0000.0001)                 4.192037169898667E+10,      /* I =349 */
(PID.TID 0000.0001)                 3.378518544304265E+10,      /* I =350 */
(PID.TID 0000.0001)                 2.459906945574446E+10,      /* I =351 */
(PID.TID 0000.0001)                 1.401900702259215E+10,      /* I =352 */
(PID.TID 0000.0001)                 9.076111290422060E+10,      /* I =353 */
(PID.TID 0000.0001)                 9.103111035233499E+10,      /* I =354 */
(PID.TID 0000.0001)                 9.156064070993231E+10,      /* I =355 */
(PID.TID 0000.0001)                 9.232920428260213E+10,      /* I =356 */
(PID.TID 0000.0001)                 9.330709899483766E+10,      /* I =357 */
(PID.TID 0000.0001)                 9.445660930090860E+10,      /* I =358 */
(PID.TID 0000.0001)                 9.573349030317511E+10,      /* I =359 */
(PID.TID 0000.0001)                 9.708868016530809E+10,      /* I =360 */
(PID.TID 0000.0001)                 9.847017339806476E+10,      /* I =361 */
(PID.TID 0000.0001)                 9.982498936271980E+10,      /* I =362 */
(PID.TID 0000.0001)                 1.011011716698855E+11,      /* I =363 */
(PID.TID 0000.0001)                 1.022497537646060E+11,      /* I =364 */
(PID.TID 0000.0001)                 1.032266241858423E+11,      /* I =365 */
(PID.TID 0000.0001)                 1.039942233001552E+11,      /* I =366 */
(PID.TID 0000.0001)                 1.045230037451501E+11,      /* I =367 */
(PID.TID 0000.0001)     2 @  1.047926024841940E+11,             /* I =368:369 */
(PID.TID 0000.0001)                 1.045230037451861E+11,      /* I =370 */
(PID.TID 0000.0001)                 1.039942233001552E+11,      /* I =371 */
(PID.TID 0000.0001)                 1.032266241858783E+11,      /* I =372 */
(PID.TID 0000.0001)                 1.022497537646060E+11,      /* I =373 */
(PID.TID 0000.0001)                 1.011011716699215E+11,      /* I =374 */
(PID.TID 0000.0001)                 9.982498936268376E+10,      /* I =375 */
(PID.TID 0000.0001)                 9.847017339806476E+10,      /* I =376 */
(PID.TID 0000.0001)                 9.708868016527205E+10,      /* I =377 */
(PID.TID 0000.0001)                 9.573349030313907E+10,      /* I =378 */
(PID.TID 0000.0001)                 9.445660930090860E+10,      /* I =379 */
(PID.TID 0000.0001)                 9.330709899483766E+10,      /* I =380 */
(PID.TID 0000.0001)                 9.232920428256609E+10,      /* I =381 */
(PID.TID 0000.0001)                 9.156064070993231E+10,      /* I =382 */
(PID.TID 0000.0001)                 9.103111035233499E+10,      /* I =383 */
(PID.TID 0000.0001)                 9.076111290418457E+10       /* I =384 */
(PID.TID 0000.0001)     ;
(PID.TID 0000.0001) rA =  /* rA(1,:,1,:) ( m - cartesian, degrees - spherical ) */
(PID.TID 0000.0001)                 1.401900702255611E+10,      /* J =  1 */
(PID.TID 0000.0001)                 2.459906945574446E+10,      /* J =  2 */
(PID.TID 0000.0001)                 3.378518544307869E+10,      /* J =  3 */
(PID.TID 0000.0001)                 4.192037169898667E+10,      /* J =  4 */
(PID.TID 0000.0001)                 4.925938996118163E+10,      /* J =  5 */
(PID.TID 0000.0001)                 5.594154126607553E+10,      /* J =  6 */
(PID.TID 0000.0001)                 6.203683527776127E+10,      /* J =  7 */
(PID.TID 0000.0001)                 6.757541173817516E+10,      /* J =  8 */
(PID.TID 0000.0001)                 7.256353271748119E+10,      /* J =  9 */
(PID.TID 0000.0001)                 7.699293007098555E+10,      /* J = 10 */
(PID.TID 0000.0001)                 8.084683449728902E+10,      /* J = 11 */
(PID.TID 0000.0001)                 8.410423102799828E+10,      /* J = 12 */
(PID.TID 0000.0001)                 8.674306976737517E+10,      /* J = 13 */
(PID.TID 0000.0001)                 8.874277443041928E+10,      /* J = 14 */
(PID.TID 0000.0001)                 9.008620045350865E+10,      /* J = 15 */
(PID.TID 0000.0001)                 9.076111290418457E+10       /* J = 16 */
(PID.TID 0000.0001)     ;
(PID.TID 0000.0001) rAw =  /* rAw(:,1,:,1) ( m - cartesian, degrees - spherical ) */
(PID.TID 0000.0001)                 1.216690346714270E+10,      /* I =  1 */
(PID.TID 0000.0001)                 1.974052138506315E+10,      /* I =  2 */
(PID.TID 0000.0001)                 2.943712825252015E+10,      /* I =  3 */
(PID.TID 0000.0001)                 3.801790263324359E+10,      /* I =  4 */
(PID.TID 0000.0001)                 4.571243814189866E+10,      /* I =  5 */
(PID.TID 0000.0001)                 5.269930713599979E+10,      /* I =  6 */
(PID.TID 0000.0001)                 5.907428494299063E+10,      /* I =  7 */
(PID.TID 0000.0001)                 6.488320895111514E+10,      /* I =  8 */
(PID.TID 0000.0001)                 7.014205907741882E+10,      /* I =  9 */
(PID.TID 0000.0001)                 7.484854821847499E+10,      /* I = 10 */
(PID.TID 0000.0001)                 7.898934631431560E+10,      /* I = 11 */
(PID.TID 0000.0001)                 8.254500894894537E+10,      /* I = 12 */
(PID.TID 0000.0001)                 8.549360686473492E+10,      /* I = 13 */
(PID.TID 0000.0001)                 8.781353403175085E+10,      /* I = 14 */
(PID.TID 0000.0001)                 8.948571540392021E+10,      /* I = 15 */
(PID.TID 0000.0001)                 9.049530583086168E+10,      /* I = 16 */
(PID.TID 0000.0001)                 9.083293515008307E+10,      /* I = 17 */
(PID.TID 0000.0001)                 9.049530583087070E+10,      /* I = 18 */
(PID.TID 0000.0001)                 8.948571540391121E+10,      /* I = 19 */
(PID.TID 0000.0001)                 8.781353403174185E+10,      /* I = 20 */
(PID.TID 0000.0001)                 8.549360686467184E+10,      /* I = 21 */
(PID.TID 0000.0001)                 8.254500894890933E+10,      /* I = 22 */
(PID.TID 0000.0001)                 7.898934631434262E+10,      /* I = 23 */
(PID.TID 0000.0001)                 7.484854821844795E+10,      /* I = 24 */
(PID.TID 0000.0001)                 7.014205907742783E+10,      /* I = 25 */
(PID.TID 0000.0001)                 6.488320895111514E+10,      /* I = 26 */
(PID.TID 0000.0001)                 5.907428494299063E+10,      /* I = 27 */
(PID.TID 0000.0001)                 5.269930713599078E+10,      /* I = 28 */
(PID.TID 0000.0001)                 4.571243814190767E+10,      /* I = 29 */
(PID.TID 0000.0001)                 3.801790263325260E+10,      /* I = 30 */
(PID.TID 0000.0001)                 2.943712825251114E+10,      /* I = 31 */
(PID.TID 0000.0001)                 1.974052138509018E+10,      /* I = 32 */
(PID.TID 0000.0001)                 9.071447638299399E+10,      /* I = 33 */
(PID.TID 0000.0001)                 9.085012105610597E+10,      /* I = 34 */
(PID.TID 0000.0001)                 9.125179254955583E+10,      /* I = 35 */
(PID.TID 0000.0001)                 9.190392048045309E+10,      /* I = 36 */
(PID.TID 0000.0001)                 9.278126467409492E+10,      /* I = 37 */
(PID.TID 0000.0001)                 9.384993610263170E+10,      /* I = 38 */
(PID.TID 0000.0001)                 9.506874487174457E+10,      /* I = 39 */
(PID.TID 0000.0001)                 9.639080978465117E+10,      /* I = 40 */
(PID.TID 0000.0001)                 9.776536132335065E+10,      /* I = 41 */
(PID.TID 0000.0001)                 9.913967116446748E+10,      /* I = 42 */
(PID.TID 0000.0001)                 1.004610434085146E+11,      /* I = 43 */
(PID.TID 0000.0001)                 1.016788034168886E+11,      /* I = 44 */
(PID.TID 0000.0001)                 1.027462190489479E+11,      /* I = 45 */
(PID.TID 0000.0001)                 1.036222871661027E+11,      /* I = 46 */
(PID.TID 0000.0001)                 1.042733173971964E+11,      /* I = 47 */
(PID.TID 0000.0001)                 1.046742473574501E+11,      /* I = 48 */
(PID.TID 0000.0001)                 1.048096527455915E+11,      /* I = 49 */
(PID.TID 0000.0001)                 1.046742473574591E+11,      /* I = 50 */
(PID.TID 0000.0001)                 1.042733173971784E+11,      /* I = 51 */
(PID.TID 0000.0001)                 1.036222871660937E+11,      /* I = 52 */
(PID.TID 0000.0001)                 1.027462190489479E+11,      /* I = 53 */
(PID.TID 0000.0001)                 1.016788034168886E+11,      /* I = 54 */
(PID.TID 0000.0001)                 1.004610434084966E+11,      /* I = 55 */
(PID.TID 0000.0001)                 9.913967116446748E+10,      /* I = 56 */
(PID.TID 0000.0001)                 9.776536132332361E+10,      /* I = 57 */
(PID.TID 0000.0001)                 9.639080978466919E+10,      /* I = 58 */
(PID.TID 0000.0001)                 9.506874487171754E+10,      /* I = 59 */
(PID.TID 0000.0001)                 9.384993610260466E+10,      /* I = 60 */
(PID.TID 0000.0001)                 9.278126467408592E+10,      /* I = 61 */
(PID.TID 0000.0001)                 9.190392048045309E+10,      /* I = 62 */
(PID.TID 0000.0001)                 9.125179254954683E+10,      /* I = 63 */
(PID.TID 0000.0001)                 9.085012105606993E+10,      /* I = 64 */
(PID.TID 0000.0001)                 1.216690346714270E+10,      /* I = 65 */
(PID.TID 0000.0001)                 1.974052138506315E+10,      /* I = 66 */
(PID.TID 0000.0001)                 2.943712825252015E+10,      /* I = 67 */
(PID.TID 0000.0001)                 3.801790263324359E+10,      /* I = 68 */
(PID.TID 0000.0001)                 4.571243814189866E+10,      /* I = 69 */
(PID.TID 0000.0001)                 5.269930713599979E+10,      /* I = 70 */
(PID.TID 0000.0001)                 5.907428494299063E+10,      /* I = 71 */
(PID.TID 0000.0001)                 6.488320895111514E+10,      /* I = 72 */
(PID.TID 0000.0001)                 7.014205907741882E+10,      /* I = 73 */
(PID.TID 0000.0001)                 7.484854821847499E+10,      /* I = 74 */
(PID.TID 0000.0001)                 7.898934631431560E+10,      /* I = 75 */
(PID.TID 0000.0001)                 8.254500894894537E+10,      /* I = 76 */
(PID.TID 0000.0001)                 8.549360686473492E+10,      /* I = 77 */
(PID.TID 0000.0001)                 8.781353403175085E+10,      /* I = 78 */
(PID.TID 0000.0001)                 8.948571540392021E+10,      /* I = 79 */
(PID.TID 0000.0001)                 9.049530583086168E+10,      /* I = 80 */
(PID.TID 0000.0001)                 9.083293515008307E+10,      /* I = 81 */
(PID.TID 0000.0001)                 9.049530583087070E+10,      /* I = 82 */
(PID.TID 0000.0001)                 8.948571540391121E+10,      /* I = 83 */
(PID.TID 0000.0001)                 8.781353403174185E+10,      /* I = 84 */
(PID.TID 0000.0001)                 8.549360686467184E+10,      /* I = 85 */
(PID.TID 0000.0001)                 8.254500894890933E+10,      /* I = 86 */
(PID.TID 0000.0001)                 7.898934631434262E+10,      /* I = 87 */
(PID.TID 0000.0001)                 7.484854821844795E+10,      /* I = 88 */
(PID.TID 0000.0001)                 7.014205907742783E+10,      /* I = 89 */
(PID.TID 0000.0001)                 6.488320895111514E+10,      /* I = 90 */
(PID.TID 0000.0001)                 5.907428494299063E+10,      /* I = 91 */
(PID.TID 0000.0001)                 5.269930713599078E+10,      /* I = 92 */
(PID.TID 0000.0001)                 4.571243814190767E+10,      /* I = 93 */
(PID.TID 0000.0001)                 3.801790263325260E+10,      /* I = 94 */
(PID.TID 0000.0001)                 2.943712825251114E+10,      /* I = 95 */
(PID.TID 0000.0001)                 1.974052138509018E+10,      /* I = 96 */
(PID.TID 0000.0001)                 9.071447638299399E+10,      /* I = 97 */
(PID.TID 0000.0001)                 9.085012105610597E+10,      /* I = 98 */
(PID.TID 0000.0001)                 9.125179254955583E+10,      /* I = 99 */
(PID.TID 0000.0001)                 9.190392048045309E+10,      /* I =100 */
(PID.TID 0000.0001)                 9.278126467409492E+10,      /* I =101 */
(PID.TID 0000.0001)                 9.384993610263170E+10,      /* I =102 */
(PID.TID 0000.0001)                 9.506874487174457E+10,      /* I =103 */
(PID.TID 0000.0001)                 9.639080978465117E+10,      /* I =104 */
(PID.TID 0000.0001)                 9.776536132335065E+10,      /* I =105 */
(PID.TID 0000.0001)                 9.913967116446748E+10,      /* I =106 */
(PID.TID 0000.0001)                 1.004610434085146E+11,      /* I =107 */
(PID.TID 0000.0001)                 1.016788034168886E+11,      /* I =108 */
(PID.TID 0000.0001)                 1.027462190489479E+11,      /* I =109 */
(PID.TID 0000.0001)                 1.036222871661027E+11,      /* I =110 */
(PID.TID 0000.0001)                 1.042733173971964E+11,      /* I =111 */
(PID.TID 0000.0001)                 1.046742473574501E+11,      /* I =112 */
(PID.TID 0000.0001)                 1.048096527455915E+11,      /* I =113 */
(PID.TID 0000.0001)                 1.046742473574591E+11,      /* I =114 */
(PID.TID 0000.0001)                 1.042733173971784E+11,      /* I =115 */
(PID.TID 0000.0001)                 1.036222871660937E+11,      /* I =116 */
(PID.TID 0000.0001)                 1.027462190489479E+11,      /* I =117 */
(PID.TID 0000.0001)                 1.016788034168886E+11,      /* I =118 */
(PID.TID 0000.0001)                 1.004610434084966E+11,      /* I =119 */
(PID.TID 0000.0001)                 9.913967116446748E+10,      /* I =120 */
(PID.TID 0000.0001)                 9.776536132332361E+10,      /* I =121 */
(PID.TID 0000.0001)                 9.639080978466919E+10,      /* I =122 */
(PID.TID 0000.0001)                 9.506874487171754E+10,      /* I =123 */
(PID.TID 0000.0001)                 9.384993610260466E+10,      /* I =124 */
(PID.TID 0000.0001)                 9.278126467408592E+10,      /* I =125 */
(PID.TID 0000.0001)                 9.190392048045309E+10,      /* I =126 */
(PID.TID 0000.0001)                 9.125179254954683E+10,      /* I =127 */
(PID.TID 0000.0001)                 9.085012105606993E+10,      /* I =128 */
(PID.TID 0000.0001)                 1.216690346714270E+10,      /* I =129 */
(PID.TID 0000.0001)                 1.974052138506315E+10,      /* I =130 */
(PID.TID 0000.0001)                 2.943712825252015E+10,      /* I =131 */
(PID.TID 0000.0001)                 3.801790263324359E+10,      /* I =132 */
(PID.TID 0000.0001)                 4.571243814189866E+10,      /* I =133 */
(PID.TID 0000.0001)                 5.269930713599979E+10,      /* I =134 */
(PID.TID 0000.0001)                 5.907428494299063E+10,      /* I =135 */
(PID.TID 0000.0001)                 6.488320895111514E+10,      /* I =136 */
(PID.TID 0000.0001)                 7.014205907741882E+10,      /* I =137 */
(PID.TID 0000.0001)                 7.484854821847499E+10,      /* I =138 */
(PID.TID 0000.0001)                 7.898934631431560E+10,      /* I =139 */
(PID.TID 0000.0001)                 8.254500894894537E+10,      /* I =140 */
(PID.TID 0000.0001)                 8.549360686473492E+10,      /* I =141 */
(PID.TID 0000.0001)                 8.781353403175085E+10,      /* I =142 */
(PID.TID 0000.0001)                 8.948571540392021E+10,      /* I =143 */
(PID.TID 0000.0001)                 9.049530583086168E+10,      /* I =144 */
(PID.TID 0000.0001)                 9.083293515008307E+10,      /* I =145 */
(PID.TID 0000.0001)                 9.049530583087070E+10,      /* I =146 */
(PID.TID 0000.0001)                 8.948571540391121E+10,      /* I =147 */
(PID.TID 0000.0001)                 8.781353403174185E+10,      /* I =148 */
(PID.TID 0000.0001)                 8.549360686467184E+10,      /* I =149 */
(PID.TID 0000.0001)                 8.254500894890933E+10,      /* I =150 */
(PID.TID 0000.0001)                 7.898934631434262E+10,      /* I =151 */
(PID.TID 0000.0001)                 7.484854821844795E+10,      /* I =152 */
(PID.TID 0000.0001)                 7.014205907742783E+10,      /* I =153 */
(PID.TID 0000.0001)                 6.488320895111514E+10,      /* I =154 */
(PID.TID 0000.0001)                 5.907428494299063E+10,      /* I =155 */
(PID.TID 0000.0001)                 5.269930713599078E+10,      /* I =156 */
(PID.TID 0000.0001)                 4.571243814190767E+10,      /* I =157 */
(PID.TID 0000.0001)                 3.801790263325260E+10,      /* I =158 */
(PID.TID 0000.0001)                 2.943712825251114E+10,      /* I =159 */
(PID.TID 0000.0001)                 1.974052138509018E+10,      /* I =160 */
(PID.TID 0000.0001)                 9.071447638299399E+10,      /* I =161 */
(PID.TID 0000.0001)                 9.085012105610597E+10,      /* I =162 */
(PID.TID 0000.0001)                 9.125179254955583E+10,      /* I =163 */
(PID.TID 0000.0001)                 9.190392048045309E+10,      /* I =164 */
(PID.TID 0000.0001)                 9.278126467409492E+10,      /* I =165 */
(PID.TID 0000.0001)                 9.384993610263170E+10,      /* I =166 */
(PID.TID 0000.0001)                 9.506874487174457E+10,      /* I =167 */
(PID.TID 0000.0001)                 9.639080978465117E+10,      /* I =168 */
(PID.TID 0000.0001)                 9.776536132335065E+10,      /* I =169 */
(PID.TID 0000.0001)                 9.913967116446748E+10,      /* I =170 */
(PID.TID 0000.0001)                 1.004610434085146E+11,      /* I =171 */
(PID.TID 0000.0001)                 1.016788034168886E+11,      /* I =172 */
(PID.TID 0000.0001)                 1.027462190489479E+11,      /* I =173 */
(PID.TID 0000.0001)                 1.036222871661027E+11,      /* I =174 */
(PID.TID 0000.0001)                 1.042733173971964E+11,      /* I =175 */
(PID.TID 0000.0001)                 1.046742473574501E+11,      /* I =176 */
(PID.TID 0000.0001)                 1.048096527455915E+11,      /* I =177 */
(PID.TID 0000.0001)                 1.046742473574591E+11,      /* I =178 */
(PID.TID 0000.0001)                 1.042733173971784E+11,      /* I =179 */
(PID.TID 0000.0001)                 1.036222871660937E+11,      /* I =180 */
(PID.TID 0000.0001)                 1.027462190489479E+11,      /* I =181 */
(PID.TID 0000.0001)                 1.016788034168886E+11,      /* I =182 */
(PID.TID 0000.0001)                 1.004610434084966E+11,      /* I =183 */
(PID.TID 0000.0001)                 9.913967116446748E+10,      /* I =184 */
(PID.TID 0000.0001)                 9.776536132332361E+10,      /* I =185 */
(PID.TID 0000.0001)                 9.639080978466919E+10,      /* I =186 */
(PID.TID 0000.0001)                 9.506874487171754E+10,      /* I =187 */
(PID.TID 0000.0001)                 9.384993610260466E+10,      /* I =188 */
(PID.TID 0000.0001)                 9.278126467408592E+10,      /* I =189 */
(PID.TID 0000.0001)                 9.190392048045309E+10,      /* I =190 */
(PID.TID 0000.0001)                 9.125179254954683E+10,      /* I =191 */
(PID.TID 0000.0001)                 9.085012105606993E+10,      /* I =192 */
(PID.TID 0000.0001)                 1.216690346714270E+10,      /* I =193 */
(PID.TID 0000.0001)                 1.974052138506315E+10,      /* I =194 */
(PID.TID 0000.0001)                 2.943712825252015E+10,      /* I =195 */
(PID.TID 0000.0001)                 3.801790263324359E+10,      /* I =196 */
(PID.TID 0000.0001)                 4.571243814189866E+10,      /* I =197 */
(PID.TID 0000.0001)                 5.269930713599979E+10,      /* I =198 */
(PID.TID 0000.0001)                 5.907428494299063E+10,      /* I =199 */
(PID.TID 0000.0001)                 6.488320895111514E+10,      /* I =200 */
(PID.TID 0000.0001)                 7.014205907741882E+10,      /* I =201 */
(PID.TID 0000.0001)                 7.484854821847499E+10,      /* I =202 */
(PID.TID 0000.0001)                 7.898934631431560E+10,      /* I =203 */
(PID.TID 0000.0001)                 8.254500894894537E+10,      /* I =204 */
(PID.TID 0000.0001)                 8.549360686473492E+10,      /* I =205 */
(PID.TID 0000.0001)                 8.781353403175085E+10,      /* I =206 */
(PID.TID 0000.0001)                 8.948571540392021E+10,      /* I =207 */
(PID.TID 0000.0001)                 9.049530583086168E+10,      /* I =208 */
(PID.TID 0000.0001)                 9.083293515008307E+10,      /* I =209 */
(PID.TID 0000.0001)                 9.049530583087070E+10,      /* I =210 */
(PID.TID 0000.0001)                 8.948571540391121E+10,      /* I =211 */
(PID.TID 0000.0001)                 8.781353403174185E+10,      /* I =212 */
(PID.TID 0000.0001)                 8.549360686467184E+10,      /* I =213 */
(PID.TID 0000.0001)                 8.254500894890933E+10,      /* I =214 */
(PID.TID 0000.0001)                 7.898934631434262E+10,      /* I =215 */
(PID.TID 0000.0001)                 7.484854821844795E+10,      /* I =216 */
(PID.TID 0000.0001)                 7.014205907742783E+10,      /* I =217 */
(PID.TID 0000.0001)                 6.488320895111514E+10,      /* I =218 */
(PID.TID 0000.0001)                 5.907428494299063E+10,      /* I =219 */
(PID.TID 0000.0001)                 5.269930713599078E+10,      /* I =220 */
(PID.TID 0000.0001)                 4.571243814190767E+10,      /* I =221 */
(PID.TID 0000.0001)                 3.801790263325260E+10,      /* I =222 */
(PID.TID 0000.0001)                 2.943712825251114E+10,      /* I =223 */
(PID.TID 0000.0001)                 1.974052138509018E+10,      /* I =224 */
(PID.TID 0000.0001)                 9.071447638299399E+10,      /* I =225 */
(PID.TID 0000.0001)                 9.085012105610597E+10,      /* I =226 */
(PID.TID 0000.0001)                 9.125179254955583E+10,      /* I =227 */
(PID.TID 0000.0001)                 9.190392048045309E+10,      /* I =228 */
(PID.TID 0000.0001)                 9.278126467409492E+10,      /* I =229 */
(PID.TID 0000.0001)                 9.384993610263170E+10,      /* I =230 */
(PID.TID 0000.0001)                 9.506874487174457E+10,      /* I =231 */
(PID.TID 0000.0001)                 9.639080978465117E+10,      /* I =232 */
(PID.TID 0000.0001)                 9.776536132335065E+10,      /* I =233 */
(PID.TID 0000.0001)                 9.913967116446748E+10,      /* I =234 */
(PID.TID 0000.0001)                 1.004610434085146E+11,      /* I =235 */
(PID.TID 0000.0001)                 1.016788034168886E+11,      /* I =236 */
(PID.TID 0000.0001)                 1.027462190489479E+11,      /* I =237 */
(PID.TID 0000.0001)                 1.036222871661027E+11,      /* I =238 */
(PID.TID 0000.0001)                 1.042733173971964E+11,      /* I =239 */
(PID.TID 0000.0001)                 1.046742473574501E+11,      /* I =240 */
(PID.TID 0000.0001)                 1.048096527455915E+11,      /* I =241 */
(PID.TID 0000.0001)                 1.046742473574591E+11,      /* I =242 */
(PID.TID 0000.0001)                 1.042733173971784E+11,      /* I =243 */
(PID.TID 0000.0001)                 1.036222871660937E+11,      /* I =244 */
(PID.TID 0000.0001)                 1.027462190489479E+11,      /* I =245 */
(PID.TID 0000.0001)                 1.016788034168886E+11,      /* I =246 */
(PID.TID 0000.0001)                 1.004610434084966E+11,      /* I =247 */
(PID.TID 0000.0001)                 9.913967116446748E+10,      /* I =248 */
(PID.TID 0000.0001)                 9.776536132332361E+10,      /* I =249 */
(PID.TID 0000.0001)                 9.639080978466919E+10,      /* I =250 */
(PID.TID 0000.0001)                 9.506874487171754E+10,      /* I =251 */
(PID.TID 0000.0001)                 9.384993610260466E+10,      /* I =252 */
(PID.TID 0000.0001)                 9.278126467408592E+10,      /* I =253 */
(PID.TID 0000.0001)                 9.190392048045309E+10,      /* I =254 */
(PID.TID 0000.0001)                 9.125179254954683E+10,      /* I =255 */
(PID.TID 0000.0001)                 9.085012105606993E+10,      /* I =256 */
(PID.TID 0000.0001)                 1.216690346714270E+10,      /* I =257 */
(PID.TID 0000.0001)                 1.974052138506315E+10,      /* I =258 */
(PID.TID 0000.0001)                 2.943712825252015E+10,      /* I =259 */
(PID.TID 0000.0001)                 3.801790263324359E+10,      /* I =260 */
(PID.TID 0000.0001)                 4.571243814189866E+10,      /* I =261 */
(PID.TID 0000.0001)                 5.269930713599979E+10,      /* I =262 */
(PID.TID 0000.0001)                 5.907428494299063E+10,      /* I =263 */
(PID.TID 0000.0001)                 6.488320895111514E+10,      /* I =264 */
(PID.TID 0000.0001)                 7.014205907741882E+10,      /* I =265 */
(PID.TID 0000.0001)                 7.484854821847499E+10,      /* I =266 */
(PID.TID 0000.0001)                 7.898934631431560E+10,      /* I =267 */
(PID.TID 0000.0001)                 8.254500894894537E+10,      /* I =268 */
(PID.TID 0000.0001)                 8.549360686473492E+10,      /* I =269 */
(PID.TID 0000.0001)                 8.781353403175085E+10,      /* I =270 */
(PID.TID 0000.0001)                 8.948571540392021E+10,      /* I =271 */
(PID.TID 0000.0001)                 9.049530583086168E+10,      /* I =272 */
(PID.TID 0000.0001)                 9.083293515008307E+10,      /* I =273 */
(PID.TID 0000.0001)                 9.049530583087070E+10,      /* I =274 */
(PID.TID 0000.0001)                 8.948571540391121E+10,      /* I =275 */
(PID.TID 0000.0001)                 8.781353403174185E+10,      /* I =276 */
(PID.TID 0000.0001)                 8.549360686467184E+10,      /* I =277 */
(PID.TID 0000.0001)                 8.254500894890933E+10,      /* I =278 */
(PID.TID 0000.0001)                 7.898934631434262E+10,      /* I =279 */
(PID.TID 0000.0001)                 7.484854821844795E+10,      /* I =280 */
(PID.TID 0000.0001)                 7.014205907742783E+10,      /* I =281 */
(PID.TID 0000.0001)                 6.488320895111514E+10,      /* I =282 */
(PID.TID 0000.0001)                 5.907428494299063E+10,      /* I =283 */
(PID.TID 0000.0001)                 5.269930713599078E+10,      /* I =284 */
(PID.TID 0000.0001)                 4.571243814190767E+10,      /* I =285 */
(PID.TID 0000.0001)                 3.801790263325260E+10,      /* I =286 */
(PID.TID 0000.0001)                 2.943712825251114E+10,      /* I =287 */
(PID.TID 0000.0001)                 1.974052138509018E+10,      /* I =288 */
(PID.TID 0000.0001)                 9.071447638299399E+10,      /* I =289 */
(PID.TID 0000.0001)                 9.085012105610597E+10,      /* I =290 */
(PID.TID 0000.0001)                 9.125179254955583E+10,      /* I =291 */
(PID.TID 0000.0001)                 9.190392048045309E+10,      /* I =292 */
(PID.TID 0000.0001)                 9.278126467409492E+10,      /* I =293 */
(PID.TID 0000.0001)                 9.384993610263170E+10,      /* I =294 */
(PID.TID 0000.0001)                 9.506874487174457E+10,      /* I =295 */
(PID.TID 0000.0001)                 9.639080978465117E+10,      /* I =296 */
(PID.TID 0000.0001)                 9.776536132335065E+10,      /* I =297 */
(PID.TID 0000.0001)                 9.913967116446748E+10,      /* I =298 */
(PID.TID 0000.0001)                 1.004610434085146E+11,      /* I =299 */
(PID.TID 0000.0001)                 1.016788034168886E+11,      /* I =300 */
(PID.TID 0000.0001)                 1.027462190489479E+11,      /* I =301 */
(PID.TID 0000.0001)                 1.036222871661027E+11,      /* I =302 */
(PID.TID 0000.0001)                 1.042733173971964E+11,      /* I =303 */
(PID.TID 0000.0001)                 1.046742473574501E+11,      /* I =304 */
(PID.TID 0000.0001)                 1.048096527455915E+11,      /* I =305 */
(PID.TID 0000.0001)                 1.046742473574591E+11,      /* I =306 */
(PID.TID 0000.0001)                 1.042733173971784E+11,      /* I =307 */
(PID.TID 0000.0001)                 1.036222871660937E+11,      /* I =308 */
(PID.TID 0000.0001)                 1.027462190489479E+11,      /* I =309 */
(PID.TID 0000.0001)                 1.016788034168886E+11,      /* I =310 */
(PID.TID 0000.0001)                 1.004610434084966E+11,      /* I =311 */
(PID.TID 0000.0001)                 9.913967116446748E+10,      /* I =312 */
(PID.TID 0000.0001)                 9.776536132332361E+10,      /* I =313 */
(PID.TID 0000.0001)                 9.639080978466919E+10,      /* I =314 */
(PID.TID 0000.0001)                 9.506874487171754E+10,      /* I =315 */
(PID.TID 0000.0001)                 9.384993610260466E+10,      /* I =316 */
(PID.TID 0000.0001)                 9.278126467408592E+10,      /* I =317 */
(PID.TID 0000.0001)                 9.190392048045309E+10,      /* I =318 */
(PID.TID 0000.0001)                 9.125179254954683E+10,      /* I =319 */
(PID.TID 0000.0001)                 9.085012105606993E+10,      /* I =320 */
(PID.TID 0000.0001)                 1.216690346714270E+10,      /* I =321 */
(PID.TID 0000.0001)                 1.974052138506315E+10,      /* I =322 */
(PID.TID 0000.0001)                 2.943712825252015E+10,      /* I =323 */
(PID.TID 0000.0001)                 3.801790263324359E+10,      /* I =324 */
(PID.TID 0000.0001)                 4.571243814189866E+10,      /* I =325 */
(PID.TID 0000.0001)                 5.269930713599979E+10,      /* I =326 */
(PID.TID 0000.0001)                 5.907428494299063E+10,      /* I =327 */
(PID.TID 0000.0001)                 6.488320895111514E+10,      /* I =328 */
(PID.TID 0000.0001)                 7.014205907741882E+10,      /* I =329 */
(PID.TID 0000.0001)                 7.484854821847499E+10,      /* I =330 */
(PID.TID 0000.0001)                 7.898934631431560E+10,      /* I =331 */
(PID.TID 0000.0001)                 8.254500894894537E+10,      /* I =332 */
(PID.TID 0000.0001)                 8.549360686473492E+10,      /* I =333 */
(PID.TID 0000.0001)                 8.781353403175085E+10,      /* I =334 */
(PID.TID 0000.0001)                 8.948571540392021E+10,      /* I =335 */
(PID.TID 0000.0001)                 9.049530583086168E+10,      /* I =336 */
(PID.TID 0000.0001)                 9.083293515008307E+10,      /* I =337 */
(PID.TID 0000.0001)                 9.049530583087070E+10,      /* I =338 */
(PID.TID 0000.0001)                 8.948571540391121E+10,      /* I =339 */
(PID.TID 0000.0001)                 8.781353403174185E+10,      /* I =340 */
(PID.TID 0000.0001)                 8.549360686467184E+10,      /* I =341 */
(PID.TID 0000.0001)                 8.254500894890933E+10,      /* I =342 */
(PID.TID 0000.0001)                 7.898934631434262E+10,      /* I =343 */
(PID.TID 0000.0001)                 7.484854821844795E+10,      /* I =344 */
(PID.TID 0000.0001)                 7.014205907742783E+10,      /* I =345 */
(PID.TID 0000.0001)                 6.488320895111514E+10,      /* I =346 */
(PID.TID 0000.0001)                 5.907428494299063E+10,      /* I =347 */
(PID.TID 0000.0001)                 5.269930713599078E+10,      /* I =348 */
(PID.TID 0000.0001)                 4.571243814190767E+10,      /* I =349 */
(PID.TID 0000.0001)                 3.801790263325260E+10,      /* I =350 */
(PID.TID 0000.0001)                 2.943712825251114E+10,      /* I =351 */
(PID.TID 0000.0001)                 1.974052138509018E+10,      /* I =352 */
(PID.TID 0000.0001)                 9.071447638299399E+10,      /* I =353 */
(PID.TID 0000.0001)                 9.085012105610597E+10,      /* I =354 */
(PID.TID 0000.0001)                 9.125179254955583E+10,      /* I =355 */
(PID.TID 0000.0001)                 9.190392048045309E+10,      /* I =356 */
(PID.TID 0000.0001)                 9.278126467409492E+10,      /* I =357 */
(PID.TID 0000.0001)                 9.384993610263170E+10,      /* I =358 */
(PID.TID 0000.0001)                 9.506874487174457E+10,      /* I =359 */
(PID.TID 0000.0001)                 9.639080978465117E+10,      /* I =360 */
(PID.TID 0000.0001)                 9.776536132335065E+10,      /* I =361 */
(PID.TID 0000.0001)                 9.913967116446748E+10,      /* I =362 */
(PID.TID 0000.0001)                 1.004610434085146E+11,      /* I =363 */
(PID.TID 0000.0001)                 1.016788034168886E+11,      /* I =364 */
(PID.TID 0000.0001)                 1.027462190489479E+11,      /* I =365 */
(PID.TID 0000.0001)                 1.036222871661027E+11,      /* I =366 */
(PID.TID 0000.0001)                 1.042733173971964E+11,      /* I =367 */
(PID.TID 0000.0001)                 1.046742473574501E+11,      /* I =368 */
(PID.TID 0000.0001)                 1.048096527455915E+11,      /* I =369 */
(PID.TID 0000.0001)                 1.046742473574591E+11,      /* I =370 */
(PID.TID 0000.0001)                 1.042733173971784E+11,      /* I =371 */
(PID.TID 0000.0001)                 1.036222871660937E+11,      /* I =372 */
(PID.TID 0000.0001)                 1.027462190489479E+11,      /* I =373 */
(PID.TID 0000.0001)                 1.016788034168886E+11,      /* I =374 */
(PID.TID 0000.0001)                 1.004610434084966E+11,      /* I =375 */
(PID.TID 0000.0001)                 9.913967116446748E+10,      /* I =376 */
(PID.TID 0000.0001)                 9.776536132332361E+10,      /* I =377 */
(PID.TID 0000.0001)                 9.639080978466919E+10,      /* I =378 */
(PID.TID 0000.0001)                 9.506874487171754E+10,      /* I =379 */
(PID.TID 0000.0001)                 9.384993610260466E+10,      /* I =380 */
(PID.TID 0000.0001)                 9.278126467408592E+10,      /* I =381 */
(PID.TID 0000.0001)                 9.190392048045309E+10,      /* I =382 */
(PID.TID 0000.0001)                 9.125179254954683E+10,      /* I =383 */
(PID.TID 0000.0001)                 9.085012105606993E+10       /* I =384 */
(PID.TID 0000.0001)     ;
(PID.TID 0000.0001) rAw =  /* rAw(1,:,1,:) ( m - cartesian, degrees - spherical ) */
(PID.TID 0000.0001)                 1.216690346714270E+10,      /* J =  1 */
(PID.TID 0000.0001)                 2.390126200743558E+10,      /* J =  2 */
(PID.TID 0000.0001)                 3.341968103208270E+10,      /* J =  3 */
(PID.TID 0000.0001)                 4.168532893152940E+10,      /* J =  4 */
(PID.TID 0000.0001)                 4.909074590409593E+10,      /* J =  5 */
(PID.TID 0000.0001)                 5.581203765722643E+10,      /* J =  6 */
(PID.TID 0000.0001)                 6.193257577506788E+10,      /* J =  7 */
(PID.TID 0000.0001)                 6.748840226738273E+10,      /* J =  8 */
(PID.TID 0000.0001)                 7.248875782324815E+10,      /* J =  9 */
(PID.TID 0000.0001)                 7.692702995909871E+10,      /* J = 10 */
(PID.TID 0000.0001)                 8.078743937057304E+10,      /* J = 11 */
(PID.TID 0000.0001)                 8.404959656062837E+10,      /* J = 12 */
(PID.TID 0000.0001)                 8.669186205742538E+10,      /* J = 13 */
(PID.TID 0000.0001)                 8.869393350723613E+10,      /* J = 14 */
(PID.TID 0000.0001)                 9.003884657168852E+10,      /* J = 15 */
(PID.TID 0000.0001)                 9.071447638299399E+10       /* J = 16 */
(PID.TID 0000.0001)     ;
(PID.TID 0000.0001) rAs =  /* rAs(:,1,:,1) ( m - cartesian, degrees - spherical ) */
(PID.TID 0000.0001)                 1.216690346714270E+10,      /* I =  1 */
(PID.TID 0000.0001)                 2.390126200743558E+10,      /* I =  2 */
(PID.TID 0000.0001)                 3.341968103208270E+10,      /* I =  3 */
(PID.TID 0000.0001)                 4.168532893152940E+10,      /* I =  4 */
(PID.TID 0000.0001)                 4.909074590409593E+10,      /* I =  5 */
(PID.TID 0000.0001)                 5.581203765722643E+10,      /* I =  6 */
(PID.TID 0000.0001)                 6.193257577506788E+10,      /* I =  7 */
(PID.TID 0000.0001)                 6.748840226738273E+10,      /* I =  8 */
(PID.TID 0000.0001)                 7.248875782324815E+10,      /* I =  9 */
(PID.TID 0000.0001)                 7.692702995909871E+10,      /* I = 10 */
(PID.TID 0000.0001)                 8.078743937057304E+10,      /* I = 11 */
(PID.TID 0000.0001)                 8.404959656062837E+10,      /* I = 12 */
(PID.TID 0000.0001)                 8.669186205742538E+10,      /* I = 13 */
(PID.TID 0000.0001)                 8.869393350723613E+10,      /* I = 14 */
(PID.TID 0000.0001)                 9.003884657168852E+10,      /* I = 15 */
(PID.TID 0000.0001)     2 @  9.071447638299399E+10,             /* I = 16: 17 */
(PID.TID 0000.0001)                 9.003884657168852E+10,      /* I = 18 */
(PID.TID 0000.0001)                 8.869393350723613E+10,      /* I = 19 */
(PID.TID 0000.0001)                 8.669186205742538E+10,      /* I = 20 */
(PID.TID 0000.0001)                 8.404959656062837E+10,      /* I = 21 */
(PID.TID 0000.0001)                 8.078743937057304E+10,      /* I = 22 */
(PID.TID 0000.0001)                 7.692702995909871E+10,      /* I = 23 */
(PID.TID 0000.0001)                 7.248875782324815E+10,      /* I = 24 */
(PID.TID 0000.0001)                 6.748840226738273E+10,      /* I = 25 */
(PID.TID 0000.0001)                 6.193257577506788E+10,      /* I = 26 */
(PID.TID 0000.0001)                 5.581203765722643E+10,      /* I = 27 */
(PID.TID 0000.0001)                 4.909074590409593E+10,      /* I = 28 */
(PID.TID 0000.0001)                 4.168532893152940E+10,      /* I = 29 */
(PID.TID 0000.0001)                 3.341968103208270E+10,      /* I = 30 */
(PID.TID 0000.0001)                 2.390126200743558E+10,      /* I = 31 */
(PID.TID 0000.0001)                 1.216690346714270E+10,      /* I = 32 */
(PID.TID 0000.0001)                 9.083293515008307E+10,      /* I = 33 */
(PID.TID 0000.0001)                 9.110170898494536E+10,      /* I = 34 */
(PID.TID 0000.0001)                 9.162886297688426E+10,      /* I = 35 */
(PID.TID 0000.0001)                 9.239403136821951E+10,      /* I = 36 */
(PID.TID 0000.0001)                 9.336769520564153E+10,      /* I = 37 */
(PID.TID 0000.0001)                 9.451235404855287E+10,      /* I = 38 */
(PID.TID 0000.0001)                 9.578399259392229E+10,      /* I = 39 */
(PID.TID 0000.0001)                 9.713377776174072E+10,      /* I = 40 */
(PID.TID 0000.0001)                 9.850992024629108E+10,      /* I = 41 */
(PID.TID 0000.0001)                 9.985963523714983E+10,      /* I = 42 */
(PID.TID 0000.0001)                 1.011311375396738E+11,      /* I = 43 */
(PID.TID 0000.0001)                 1.022756055022041E+11,      /* I = 44 */
(PID.TID 0000.0001)                 1.032490462723345E+11,      /* I = 45 */
(PID.TID 0000.0001)                 1.040139933533592E+11,      /* I = 46 */
(PID.TID 0000.0001)                 1.045409681097387E+11,      /* I = 47 */
(PID.TID 0000.0001)     2 @  1.048096527455915E+11,             /* I = 48: 49 */
(PID.TID 0000.0001)                 1.045409681097387E+11,      /* I = 50 */
(PID.TID 0000.0001)                 1.040139933533592E+11,      /* I = 51 */
(PID.TID 0000.0001)                 1.032490462723345E+11,      /* I = 52 */
(PID.TID 0000.0001)                 1.022756055022041E+11,      /* I = 53 */
(PID.TID 0000.0001)                 1.011311375396738E+11,      /* I = 54 */
(PID.TID 0000.0001)                 9.985963523714983E+10,      /* I = 55 */
(PID.TID 0000.0001)                 9.850992024629108E+10,      /* I = 56 */
(PID.TID 0000.0001)                 9.713377776174072E+10,      /* I = 57 */
(PID.TID 0000.0001)                 9.578399259392229E+10,      /* I = 58 */
(PID.TID 0000.0001)                 9.451235404855287E+10,      /* I = 59 */
(PID.TID 0000.0001)                 9.336769520564153E+10,      /* I = 60 */
(PID.TID 0000.0001)                 9.239403136821951E+10,      /* I = 61 */
(PID.TID 0000.0001)                 9.162886297688426E+10,      /* I = 62 */
(PID.TID 0000.0001)                 9.110170898494536E+10,      /* I = 63 */
(PID.TID 0000.0001)                 9.083293515008307E+10,      /* I = 64 */
(PID.TID 0000.0001)                 1.216690346714270E+10,      /* I = 65 */
(PID.TID 0000.0001)                 2.390126200743558E+10,      /* I = 66 */
(PID.TID 0000.0001)                 3.341968103208270E+10,      /* I = 67 */
(PID.TID 0000.0001)                 4.168532893152940E+10,      /* I = 68 */
(PID.TID 0000.0001)                 4.909074590409593E+10,      /* I = 69 */
(PID.TID 0000.0001)                 5.581203765722643E+10,      /* I = 70 */
(PID.TID 0000.0001)                 6.193257577506788E+10,      /* I = 71 */
(PID.TID 0000.0001)                 6.748840226738273E+10,      /* I = 72 */
(PID.TID 0000.0001)                 7.248875782324815E+10,      /* I = 73 */
(PID.TID 0000.0001)                 7.692702995909871E+10,      /* I = 74 */
(PID.TID 0000.0001)                 8.078743937057304E+10,      /* I = 75 */
(PID.TID 0000.0001)                 8.404959656062837E+10,      /* I = 76 */
(PID.TID 0000.0001)                 8.669186205742538E+10,      /* I = 77 */
(PID.TID 0000.0001)                 8.869393350723613E+10,      /* I = 78 */
(PID.TID 0000.0001)                 9.003884657168852E+10,      /* I = 79 */
(PID.TID 0000.0001)     2 @  9.071447638299399E+10,             /* I = 80: 81 */
(PID.TID 0000.0001)                 9.003884657168852E+10,      /* I = 82 */
(PID.TID 0000.0001)                 8.869393350723613E+10,      /* I = 83 */
(PID.TID 0000.0001)                 8.669186205742538E+10,      /* I = 84 */
(PID.TID 0000.0001)                 8.404959656062837E+10,      /* I = 85 */
(PID.TID 0000.0001)                 8.078743937057304E+10,      /* I = 86 */
(PID.TID 0000.0001)                 7.692702995909871E+10,      /* I = 87 */
(PID.TID 0000.0001)                 7.248875782324815E+10,      /* I = 88 */
(PID.TID 0000.0001)                 6.748840226738273E+10,      /* I = 89 */
(PID.TID 0000.0001)                 6.193257577506788E+10,      /* I = 90 */
(PID.TID 0000.0001)                 5.581203765722643E+10,      /* I = 91 */
(PID.TID 0000.0001)                 4.909074590409593E+10,      /* I = 92 */
(PID.TID 0000.0001)                 4.168532893152940E+10,      /* I = 93 */
(PID.TID 0000.0001)                 3.341968103208270E+10,      /* I = 94 */
(PID.TID 0000.0001)                 2.390126200743558E+10,      /* I = 95 */
(PID.TID 0000.0001)                 1.216690346714270E+10,      /* I = 96 */
(PID.TID 0000.0001)                 9.083293515008307E+10,      /* I = 97 */
(PID.TID 0000.0001)                 9.110170898494536E+10,      /* I = 98 */
(PID.TID 0000.0001)                 9.162886297688426E+10,      /* I = 99 */
(PID.TID 0000.0001)                 9.239403136821951E+10,      /* I =100 */
(PID.TID 0000.0001)                 9.336769520564153E+10,      /* I =101 */
(PID.TID 0000.0001)                 9.451235404855287E+10,      /* I =102 */
(PID.TID 0000.0001)                 9.578399259392229E+10,      /* I =103 */
(PID.TID 0000.0001)                 9.713377776174072E+10,      /* I =104 */
(PID.TID 0000.0001)                 9.850992024629108E+10,      /* I =105 */
(PID.TID 0000.0001)                 9.985963523714983E+10,      /* I =106 */
(PID.TID 0000.0001)                 1.011311375396738E+11,      /* I =107 */
(PID.TID 0000.0001)                 1.022756055022041E+11,      /* I =108 */
(PID.TID 0000.0001)                 1.032490462723345E+11,      /* I =109 */
(PID.TID 0000.0001)                 1.040139933533592E+11,      /* I =110 */
(PID.TID 0000.0001)                 1.045409681097387E+11,      /* I =111 */
(PID.TID 0000.0001)     2 @  1.048096527455915E+11,             /* I =112:113 */
(PID.TID 0000.0001)                 1.045409681097387E+11,      /* I =114 */
(PID.TID 0000.0001)                 1.040139933533592E+11,      /* I =115 */
(PID.TID 0000.0001)                 1.032490462723345E+11,      /* I =116 */
(PID.TID 0000.0001)                 1.022756055022041E+11,      /* I =117 */
(PID.TID 0000.0001)                 1.011311375396738E+11,      /* I =118 */
(PID.TID 0000.0001)                 9.985963523714983E+10,      /* I =119 */
(PID.TID 0000.0001)                 9.850992024629108E+10,      /* I =120 */
(PID.TID 0000.0001)                 9.713377776174072E+10,      /* I =121 */
(PID.TID 0000.0001)                 9.578399259392229E+10,      /* I =122 */
(PID.TID 0000.0001)                 9.451235404855287E+10,      /* I =123 */
(PID.TID 0000.0001)                 9.336769520564153E+10,      /* I =124 */
(PID.TID 0000.0001)                 9.239403136821951E+10,      /* I =125 */
(PID.TID 0000.0001)                 9.162886297688426E+10,      /* I =126 */
(PID.TID 0000.0001)                 9.110170898494536E+10,      /* I =127 */
(PID.TID 0000.0001)                 9.083293515008307E+10,      /* I =128 */
(PID.TID 0000.0001)                 1.216690346714270E+10,      /* I =129 */
(PID.TID 0000.0001)                 2.390126200743558E+10,      /* I =130 */
(PID.TID 0000.0001)                 3.341968103208270E+10,      /* I =131 */
(PID.TID 0000.0001)                 4.168532893152940E+10,      /* I =132 */
(PID.TID 0000.0001)                 4.909074590409593E+10,      /* I =133 */
(PID.TID 0000.0001)                 5.581203765722643E+10,      /* I =134 */
(PID.TID 0000.0001)                 6.193257577506788E+10,      /* I =135 */
(PID.TID 0000.0001)                 6.748840226738273E+10,      /* I =136 */
(PID.TID 0000.0001)                 7.248875782324815E+10,      /* I =137 */
(PID.TID 0000.0001)                 7.692702995909871E+10,      /* I =138 */
(PID.TID 0000.0001)                 8.078743937057304E+10,      /* I =139 */
(PID.TID 0000.0001)                 8.404959656062837E+10,      /* I =140 */
(PID.TID 0000.0001)                 8.669186205742538E+10,      /* I =141 */
(PID.TID 0000.0001)                 8.869393350723613E+10,      /* I =142 */
(PID.TID 0000.0001)                 9.003884657168852E+10,      /* I =143 */
(PID.TID 0000.0001)     2 @  9.071447638299399E+10,             /* I =144:145 */
(PID.TID 0000.0001)                 9.003884657168852E+10,      /* I =146 */
(PID.TID 0000.0001)                 8.869393350723613E+10,      /* I =147 */
(PID.TID 0000.0001)                 8.669186205742538E+10,      /* I =148 */
(PID.TID 0000.0001)                 8.404959656062837E+10,      /* I =149 */
(PID.TID 0000.0001)                 8.078743937057304E+10,      /* I =150 */
(PID.TID 0000.0001)                 7.692702995909871E+10,      /* I =151 */
(PID.TID 0000.0001)                 7.248875782324815E+10,      /* I =152 */
(PID.TID 0000.0001)                 6.748840226738273E+10,      /* I =153 */
(PID.TID 0000.0001)                 6.193257577506788E+10,      /* I =154 */
(PID.TID 0000.0001)                 5.581203765722643E+10,      /* I =155 */
(PID.TID 0000.0001)                 4.909074590409593E+10,      /* I =156 */
(PID.TID 0000.0001)                 4.168532893152940E+10,      /* I =157 */
(PID.TID 0000.0001)                 3.341968103208270E+10,      /* I =158 */
(PID.TID 0000.0001)                 2.390126200743558E+10,      /* I =159 */
(PID.TID 0000.0001)                 1.216690346714270E+10,      /* I =160 */
(PID.TID 0000.0001)                 9.083293515008307E+10,      /* I =161 */
(PID.TID 0000.0001)                 9.110170898494536E+10,      /* I =162 */
(PID.TID 0000.0001)                 9.162886297688426E+10,      /* I =163 */
(PID.TID 0000.0001)                 9.239403136821951E+10,      /* I =164 */
(PID.TID 0000.0001)                 9.336769520564153E+10,      /* I =165 */
(PID.TID 0000.0001)                 9.451235404855287E+10,      /* I =166 */
(PID.TID 0000.0001)                 9.578399259392229E+10,      /* I =167 */
(PID.TID 0000.0001)                 9.713377776174072E+10,      /* I =168 */
(PID.TID 0000.0001)                 9.850992024629108E+10,      /* I =169 */
(PID.TID 0000.0001)                 9.985963523714983E+10,      /* I =170 */
(PID.TID 0000.0001)                 1.011311375396738E+11,      /* I =171 */
(PID.TID 0000.0001)                 1.022756055022041E+11,      /* I =172 */
(PID.TID 0000.0001)                 1.032490462723345E+11,      /* I =173 */
(PID.TID 0000.0001)                 1.040139933533592E+11,      /* I =174 */
(PID.TID 0000.0001)                 1.045409681097387E+11,      /* I =175 */
(PID.TID 0000.0001)     2 @  1.048096527455915E+11,             /* I =176:177 */
(PID.TID 0000.0001)                 1.045409681097387E+11,      /* I =178 */
(PID.TID 0000.0001)                 1.040139933533592E+11,      /* I =179 */
(PID.TID 0000.0001)                 1.032490462723345E+11,      /* I =180 */
(PID.TID 0000.0001)                 1.022756055022041E+11,      /* I =181 */
(PID.TID 0000.0001)                 1.011311375396738E+11,      /* I =182 */
(PID.TID 0000.0001)                 9.985963523714983E+10,      /* I =183 */
(PID.TID 0000.0001)                 9.850992024629108E+10,      /* I =184 */
(PID.TID 0000.0001)                 9.713377776174072E+10,      /* I =185 */
(PID.TID 0000.0001)                 9.578399259392229E+10,      /* I =186 */
(PID.TID 0000.0001)                 9.451235404855287E+10,      /* I =187 */
(PID.TID 0000.0001)                 9.336769520564153E+10,      /* I =188 */
(PID.TID 0000.0001)                 9.239403136821951E+10,      /* I =189 */
(PID.TID 0000.0001)                 9.162886297688426E+10,      /* I =190 */
(PID.TID 0000.0001)                 9.110170898494536E+10,      /* I =191 */
(PID.TID 0000.0001)                 9.083293515008307E+10,      /* I =192 */
(PID.TID 0000.0001)                 1.216690346714270E+10,      /* I =193 */
(PID.TID 0000.0001)                 2.390126200743558E+10,      /* I =194 */
(PID.TID 0000.0001)                 3.341968103208270E+10,      /* I =195 */
(PID.TID 0000.0001)                 4.168532893152940E+10,      /* I =196 */
(PID.TID 0000.0001)                 4.909074590409593E+10,      /* I =197 */
(PID.TID 0000.0001)                 5.581203765722643E+10,      /* I =198 */
(PID.TID 0000.0001)                 6.193257577506788E+10,      /* I =199 */
(PID.TID 0000.0001)                 6.748840226738273E+10,      /* I =200 */
(PID.TID 0000.0001)                 7.248875782324815E+10,      /* I =201 */
(PID.TID 0000.0001)                 7.692702995909871E+10,      /* I =202 */
(PID.TID 0000.0001)                 8.078743937057304E+10,      /* I =203 */
(PID.TID 0000.0001)                 8.404959656062837E+10,      /* I =204 */
(PID.TID 0000.0001)                 8.669186205742538E+10,      /* I =205 */
(PID.TID 0000.0001)                 8.869393350723613E+10,      /* I =206 */
(PID.TID 0000.0001)                 9.003884657168852E+10,      /* I =207 */
(PID.TID 0000.0001)     2 @  9.071447638299399E+10,             /* I =208:209 */
(PID.TID 0000.0001)                 9.003884657168852E+10,      /* I =210 */
(PID.TID 0000.0001)                 8.869393350723613E+10,      /* I =211 */
(PID.TID 0000.0001)                 8.669186205742538E+10,      /* I =212 */
(PID.TID 0000.0001)                 8.404959656062837E+10,      /* I =213 */
(PID.TID 0000.0001)                 8.078743937057304E+10,      /* I =214 */
(PID.TID 0000.0001)                 7.692702995909871E+10,      /* I =215 */
(PID.TID 0000.0001)                 7.248875782324815E+10,      /* I =216 */
(PID.TID 0000.0001)                 6.748840226738273E+10,      /* I =217 */
(PID.TID 0000.0001)                 6.193257577506788E+10,      /* I =218 */
(PID.TID 0000.0001)                 5.581203765722643E+10,      /* I =219 */
(PID.TID 0000.0001)                 4.909074590409593E+10,      /* I =220 */
(PID.TID 0000.0001)                 4.168532893152940E+10,      /* I =221 */
(PID.TID 0000.0001)                 3.341968103208270E+10,      /* I =222 */
(PID.TID 0000.0001)                 2.390126200743558E+10,      /* I =223 */
(PID.TID 0000.0001)                 1.216690346714270E+10,      /* I =224 */
(PID.TID 0000.0001)                 9.083293515008307E+10,      /* I =225 */
(PID.TID 0000.0001)                 9.110170898494536E+10,      /* I =226 */
(PID.TID 0000.0001)                 9.162886297688426E+10,      /* I =227 */
(PID.TID 0000.0001)                 9.239403136821951E+10,      /* I =228 */
(PID.TID 0000.0001)                 9.336769520564153E+10,      /* I =229 */
(PID.TID 0000.0001)                 9.451235404855287E+10,      /* I =230 */
(PID.TID 0000.0001)                 9.578399259392229E+10,      /* I =231 */
(PID.TID 0000.0001)                 9.713377776174072E+10,      /* I =232 */
(PID.TID 0000.0001)                 9.850992024629108E+10,      /* I =233 */
(PID.TID 0000.0001)                 9.985963523714983E+10,      /* I =234 */
(PID.TID 0000.0001)                 1.011311375396738E+11,      /* I =235 */
(PID.TID 0000.0001)                 1.022756055022041E+11,      /* I =236 */
(PID.TID 0000.0001)                 1.032490462723345E+11,      /* I =237 */
(PID.TID 0000.0001)                 1.040139933533592E+11,      /* I =238 */
(PID.TID 0000.0001)                 1.045409681097387E+11,      /* I =239 */
(PID.TID 0000.0001)     2 @  1.048096527455915E+11,             /* I =240:241 */
(PID.TID 0000.0001)                 1.045409681097387E+11,      /* I =242 */
(PID.TID 0000.0001)                 1.040139933533592E+11,      /* I =243 */
(PID.TID 0000.0001)                 1.032490462723345E+11,      /* I =244 */
(PID.TID 0000.0001)                 1.022756055022041E+11,      /* I =245 */
(PID.TID 0000.0001)                 1.011311375396738E+11,      /* I =246 */
(PID.TID 0000.0001)                 9.985963523714983E+10,      /* I =247 */
(PID.TID 0000.0001)                 9.850992024629108E+10,      /* I =248 */
(PID.TID 0000.0001)                 9.713377776174072E+10,      /* I =249 */
(PID.TID 0000.0001)                 9.578399259392229E+10,      /* I =250 */
(PID.TID 0000.0001)                 9.451235404855287E+10,      /* I =251 */
(PID.TID 0000.0001)                 9.336769520564153E+10,      /* I =252 */
(PID.TID 0000.0001)                 9.239403136821951E+10,      /* I =253 */
(PID.TID 0000.0001)                 9.162886297688426E+10,      /* I =254 */
(PID.TID 0000.0001)                 9.110170898494536E+10,      /* I =255 */
(PID.TID 0000.0001)                 9.083293515008307E+10,      /* I =256 */
(PID.TID 0000.0001)                 1.216690346714270E+10,      /* I =257 */
(PID.TID 0000.0001)                 2.390126200743558E+10,      /* I =258 */
(PID.TID 0000.0001)                 3.341968103208270E+10,      /* I =259 */
(PID.TID 0000.0001)                 4.168532893152940E+10,      /* I =260 */
(PID.TID 0000.0001)                 4.909074590409593E+10,      /* I =261 */
(PID.TID 0000.0001)                 5.581203765722643E+10,      /* I =262 */
(PID.TID 0000.0001)                 6.193257577506788E+10,      /* I =263 */
(PID.TID 0000.0001)                 6.748840226738273E+10,      /* I =264 */
(PID.TID 0000.0001)                 7.248875782324815E+10,      /* I =265 */
(PID.TID 0000.0001)                 7.692702995909871E+10,      /* I =266 */
(PID.TID 0000.0001)                 8.078743937057304E+10,      /* I =267 */
(PID.TID 0000.0001)                 8.404959656062837E+10,      /* I =268 */
(PID.TID 0000.0001)                 8.669186205742538E+10,      /* I =269 */
(PID.TID 0000.0001)                 8.869393350723613E+10,      /* I =270 */
(PID.TID 0000.0001)                 9.003884657168852E+10,      /* I =271 */
(PID.TID 0000.0001)     2 @  9.071447638299399E+10,             /* I =272:273 */
(PID.TID 0000.0001)                 9.003884657168852E+10,      /* I =274 */
(PID.TID 0000.0001)                 8.869393350723613E+10,      /* I =275 */
(PID.TID 0000.0001)                 8.669186205742538E+10,      /* I =276 */
(PID.TID 0000.0001)                 8.404959656062837E+10,      /* I =277 */
(PID.TID 0000.0001)                 8.078743937057304E+10,      /* I =278 */
(PID.TID 0000.0001)                 7.692702995909871E+10,      /* I =279 */
(PID.TID 0000.0001)                 7.248875782324815E+10,      /* I =280 */
(PID.TID 0000.0001)                 6.748840226738273E+10,      /* I =281 */
(PID.TID 0000.0001)                 6.193257577506788E+10,      /* I =282 */
(PID.TID 0000.0001)                 5.581203765722643E+10,      /* I =283 */
(PID.TID 0000.0001)                 4.909074590409593E+10,      /* I =284 */
(PID.TID 0000.0001)                 4.168532893152940E+10,      /* I =285 */
(PID.TID 0000.0001)                 3.341968103208270E+10,      /* I =286 */
(PID.TID 0000.0001)                 2.390126200743558E+10,      /* I =287 */
(PID.TID 0000.0001)                 1.216690346714270E+10,      /* I =288 */
(PID.TID 0000.0001)                 9.083293515008307E+10,      /* I =289 */
(PID.TID 0000.0001)                 9.110170898494536E+10,      /* I =290 */
(PID.TID 0000.0001)                 9.162886297688426E+10,      /* I =291 */
(PID.TID 0000.0001)                 9.239403136821951E+10,      /* I =292 */
(PID.TID 0000.0001)                 9.336769520564153E+10,      /* I =293 */
(PID.TID 0000.0001)                 9.451235404855287E+10,      /* I =294 */
(PID.TID 0000.0001)                 9.578399259392229E+10,      /* I =295 */
(PID.TID 0000.0001)                 9.713377776174072E+10,      /* I =296 */
(PID.TID 0000.0001)                 9.850992024629108E+10,      /* I =297 */
(PID.TID 0000.0001)                 9.985963523714983E+10,      /* I =298 */
(PID.TID 0000.0001)                 1.011311375396738E+11,      /* I =299 */
(PID.TID 0000.0001)                 1.022756055022041E+11,      /* I =300 */
(PID.TID 0000.0001)                 1.032490462723345E+11,      /* I =301 */
(PID.TID 0000.0001)                 1.040139933533592E+11,      /* I =302 */
(PID.TID 0000.0001)                 1.045409681097387E+11,      /* I =303 */
(PID.TID 0000.0001)     2 @  1.048096527455915E+11,             /* I =304:305 */
(PID.TID 0000.0001)                 1.045409681097387E+11,      /* I =306 */
(PID.TID 0000.0001)                 1.040139933533592E+11,      /* I =307 */
(PID.TID 0000.0001)                 1.032490462723345E+11,      /* I =308 */
(PID.TID 0000.0001)                 1.022756055022041E+11,      /* I =309 */
(PID.TID 0000.0001)                 1.011311375396738E+11,      /* I =310 */
(PID.TID 0000.0001)                 9.985963523714983E+10,      /* I =311 */
(PID.TID 0000.0001)                 9.850992024629108E+10,      /* I =312 */
(PID.TID 0000.0001)                 9.713377776174072E+10,      /* I =313 */
(PID.TID 0000.0001)                 9.578399259392229E+10,      /* I =314 */
(PID.TID 0000.0001)                 9.451235404855287E+10,      /* I =315 */
(PID.TID 0000.0001)                 9.336769520564153E+10,      /* I =316 */
(PID.TID 0000.0001)                 9.239403136821951E+10,      /* I =317 */
(PID.TID 0000.0001)                 9.162886297688426E+10,      /* I =318 */
(PID.TID 0000.0001)                 9.110170898494536E+10,      /* I =319 */
(PID.TID 0000.0001)                 9.083293515008307E+10,      /* I =320 */
(PID.TID 0000.0001)                 1.216690346714270E+10,      /* I =321 */
(PID.TID 0000.0001)                 2.390126200743558E+10,      /* I =322 */
(PID.TID 0000.0001)                 3.341968103208270E+10,      /* I =323 */
(PID.TID 0000.0001)                 4.168532893152940E+10,      /* I =324 */
(PID.TID 0000.0001)                 4.909074590409593E+10,      /* I =325 */
(PID.TID 0000.0001)                 5.581203765722643E+10,      /* I =326 */
(PID.TID 0000.0001)                 6.193257577506788E+10,      /* I =327 */
(PID.TID 0000.0001)                 6.748840226738273E+10,      /* I =328 */
(PID.TID 0000.0001)                 7.248875782324815E+10,      /* I =329 */
(PID.TID 0000.0001)                 7.692702995909871E+10,      /* I =330 */
(PID.TID 0000.0001)                 8.078743937057304E+10,      /* I =331 */
(PID.TID 0000.0001)                 8.404959656062837E+10,      /* I =332 */
(PID.TID 0000.0001)                 8.669186205742538E+10,      /* I =333 */
(PID.TID 0000.0001)                 8.869393350723613E+10,      /* I =334 */
(PID.TID 0000.0001)                 9.003884657168852E+10,      /* I =335 */
(PID.TID 0000.0001)     2 @  9.071447638299399E+10,             /* I =336:337 */
(PID.TID 0000.0001)                 9.003884657168852E+10,      /* I =338 */
(PID.TID 0000.0001)                 8.869393350723613E+10,      /* I =339 */
(PID.TID 0000.0001)                 8.669186205742538E+10,      /* I =340 */
(PID.TID 0000.0001)                 8.404959656062837E+10,      /* I =341 */
(PID.TID 0000.0001)                 8.078743937057304E+10,      /* I =342 */
(PID.TID 0000.0001)                 7.692702995909871E+10,      /* I =343 */
(PID.TID 0000.0001)                 7.248875782324815E+10,      /* I =344 */
(PID.TID 0000.0001)                 6.748840226738273E+10,      /* I =345 */
(PID.TID 0000.0001)                 6.193257577506788E+10,      /* I =346 */
(PID.TID 0000.0001)                 5.581203765722643E+10,      /* I =347 */
(PID.TID 0000.0001)                 4.909074590409593E+10,      /* I =348 */
(PID.TID 0000.0001)                 4.168532893152940E+10,      /* I =349 */
(PID.TID 0000.0001)                 3.341968103208270E+10,      /* I =350 */
(PID.TID 0000.0001)                 2.390126200743558E+10,      /* I =351 */
(PID.TID 0000.0001)                 1.216690346714270E+10,      /* I =352 */
(PID.TID 0000.0001)                 9.083293515008307E+10,      /* I =353 */
(PID.TID 0000.0001)                 9.110170898494536E+10,      /* I =354 */
(PID.TID 0000.0001)                 9.162886297688426E+10,      /* I =355 */
(PID.TID 0000.0001)                 9.239403136821951E+10,      /* I =356 */
(PID.TID 0000.0001)                 9.336769520564153E+10,      /* I =357 */
(PID.TID 0000.0001)                 9.451235404855287E+10,      /* I =358 */
(PID.TID 0000.0001)                 9.578399259392229E+10,      /* I =359 */
(PID.TID 0000.0001)                 9.713377776174072E+10,      /* I =360 */
(PID.TID 0000.0001)                 9.850992024629108E+10,      /* I =361 */
(PID.TID 0000.0001)                 9.985963523714983E+10,      /* I =362 */
(PID.TID 0000.0001)                 1.011311375396738E+11,      /* I =363 */
(PID.TID 0000.0001)                 1.022756055022041E+11,      /* I =364 */
(PID.TID 0000.0001)                 1.032490462723345E+11,      /* I =365 */
(PID.TID 0000.0001)                 1.040139933533592E+11,      /* I =366 */
(PID.TID 0000.0001)                 1.045409681097387E+11,      /* I =367 */
(PID.TID 0000.0001)     2 @  1.048096527455915E+11,             /* I =368:369 */
(PID.TID 0000.0001)                 1.045409681097387E+11,      /* I =370 */
(PID.TID 0000.0001)                 1.040139933533592E+11,      /* I =371 */
(PID.TID 0000.0001)                 1.032490462723345E+11,      /* I =372 */
(PID.TID 0000.0001)                 1.022756055022041E+11,      /* I =373 */
(PID.TID 0000.0001)                 1.011311375396738E+11,      /* I =374 */
(PID.TID 0000.0001)                 9.985963523714983E+10,      /* I =375 */
(PID.TID 0000.0001)                 9.850992024629108E+10,      /* I =376 */
(PID.TID 0000.0001)                 9.713377776174072E+10,      /* I =377 */
(PID.TID 0000.0001)                 9.578399259392229E+10,      /* I =378 */
(PID.TID 0000.0001)                 9.451235404855287E+10,      /* I =379 */
(PID.TID 0000.0001)                 9.336769520564153E+10,      /* I =380 */
(PID.TID 0000.0001)                 9.239403136821951E+10,      /* I =381 */
(PID.TID 0000.0001)                 9.162886297688426E+10,      /* I =382 */
(PID.TID 0000.0001)                 9.110170898494536E+10,      /* I =383 */
(PID.TID 0000.0001)                 9.083293515008307E+10       /* I =384 */
(PID.TID 0000.0001)     ;
(PID.TID 0000.0001) rAs =  /* rAs(1,:,1,:) ( m - cartesian, degrees - spherical ) */
(PID.TID 0000.0001)                 1.216690346714270E+10,      /* J =  1 */
(PID.TID 0000.0001)                 1.974052138506315E+10,      /* J =  2 */
(PID.TID 0000.0001)                 2.943712825252015E+10,      /* J =  3 */
(PID.TID 0000.0001)                 3.801790263324359E+10,      /* J =  4 */
(PID.TID 0000.0001)                 4.571243814189866E+10,      /* J =  5 */
(PID.TID 0000.0001)                 5.269930713599979E+10,      /* J =  6 */
(PID.TID 0000.0001)                 5.907428494299063E+10,      /* J =  7 */
(PID.TID 0000.0001)                 6.488320895111514E+10,      /* J =  8 */
(PID.TID 0000.0001)                 7.014205907741882E+10,      /* J =  9 */
(PID.TID 0000.0001)                 7.484854821847499E+10,      /* J = 10 */
(PID.TID 0000.0001)                 7.898934631431560E+10,      /* J = 11 */
(PID.TID 0000.0001)                 8.254500894894537E+10,      /* J = 12 */
(PID.TID 0000.0001)                 8.549360686473492E+10,      /* J = 13 */
(PID.TID 0000.0001)                 8.781353403175085E+10,      /* J = 14 */
(PID.TID 0000.0001)                 8.948571540392021E+10,      /* J = 15 */
(PID.TID 0000.0001)                 9.049530583086168E+10       /* J = 16 */
(PID.TID 0000.0001)     ;
(PID.TID 0000.0001) 
(PID.TID 0000.0001)  MDSREADFIELD: opening global file: pickup.0000072000
(PID.TID 0000.0001)  MDSREADFIELD: opening global file: pickup.0000072000
(PID.TID 0000.0001)  MDSREADFIELD: opening global file: pickup.0000072000
(PID.TID 0000.0001)  MDSREADFIELD: opening global file: pickup.0000072000
(PID.TID 0000.0001)  MDSREADFIELD: opening global file: pickup.0000072000
(PID.TID 0000.0001)  MDSREADFIELD: opening global file: pickup.0000072000
(PID.TID 0000.0001)  MDSREADFIELD: opening global file: pickup.0000072000
(PID.TID 0000.0001)  MDSREADFIELD: opening global file: pickup.0000072000
(PID.TID 0000.0001)  MDSREADFIELD: opening global file: pickup.0000072000
(PID.TID 0000.0001)  MDSREADFIELD: opening global file: pickup.0000072000
(PID.TID 0000.0001)  MDSREADFIELD: opening global file: pickup.0000072000
(PID.TID 0000.0001)  MDSREADFIELD: opening global file: pickup.0000072000
(PID.TID 0000.0001)  MDSREADFIELD: opening global file: pickup.0000072000
(PID.TID 0000.0001)  MDSREADFIELD: opening global file: pickup.0000072000
(PID.TID 0000.0001)  MDSREADFIELD: opening global file: trenberth_taux.bin
(PID.TID 0000.0001)  MDSREADFIELD: opening global file: trenberth_tauy.bin
(PID.TID 0000.0001)  MDSREADFIELD: opening global file: shiQnet_cs32.bin
(PID.TID 0000.0001)  MDSREADFIELD: opening global file: shiEmPR_cs32.bin
(PID.TID 0000.0001)  MDSREADFIELD: opening global file: lev_surfT_cs_12m.bin
(PID.TID 0000.0001)  MDSREADFIELD: opening global file: lev_surfS_cs_12m.bin
(PID.TID 0000.0001) // =======================================================
(PID.TID 0000.0001) // Model current state
(PID.TID 0000.0001) // =======================================================
(PID.TID 0000.0001) 
(PID.TID 0000.0001) // =======================================================
(PID.TID 0000.0001) // Begin MONITOR dynamic field statistics
(PID.TID 0000.0001) // =======================================================
(PID.TID 0000.0001) %MON time_tsnumber                =                 72000
(PID.TID 0000.0001) %MON time_secondsf                =   6.2208000000000E+09
(PID.TID 0000.0001) %MON dynstat_eta_max              =   9.2031710416644E-01
(PID.TID 0000.0001) %MON dynstat_eta_min              =  -1.6158898521137E+00
(PID.TID 0000.0001) %MON dynstat_eta_mean             =   5.1475164406760E-13
(PID.TID 0000.0001) %MON dynstat_eta_sd               =   5.9847717066274E-01
(PID.TID 0000.0001) %MON dynstat_eta_del2             =   1.1251605767407E-02
(PID.TID 0000.0001) %MON dynstat_uvel_max             =   1.8517049457442E-01
(PID.TID 0000.0001) %MON dynstat_uvel_min             =  -2.8835551845614E-01
(PID.TID 0000.0001) %MON dynstat_uvel_mean            =  -4.9175745523437E-04
(PID.TID 0000.0001) %MON dynstat_uvel_sd              =   1.2027956592756E-02
(PID.TID 0000.0001) %MON dynstat_uvel_del2            =   1.5709654569602E-03
(PID.TID 0000.0001) %MON dynstat_vvel_max             =   1.7299533857874E-01
(PID.TID 0000.0001) %MON dynstat_vvel_min             =  -2.2520988227009E-01
(PID.TID 0000.0001) %MON dynstat_vvel_mean            =  -4.0634102594900E-04
(PID.TID 0000.0001) %MON dynstat_vvel_sd              =   1.2644734760550E-02
(PID.TID 0000.0001) %MON dynstat_vvel_del2            =   1.5971822645558E-03
(PID.TID 0000.0001) %MON dynstat_wvel_max             =   1.0345009107981E-04
(PID.TID 0000.0001) %MON dynstat_wvel_min             =  -2.0499843500452E-04
(PID.TID 0000.0001) %MON dynstat_wvel_mean            =   1.3526398554387E-10
(PID.TID 0000.0001) %MON dynstat_wvel_sd              =   3.9264301334608E-06
(PID.TID 0000.0001) %MON dynstat_wvel_del2            =   8.6584884665117E-07
(PID.TID 0000.0001) %MON dynstat_theta_max            =   3.0924013283713E+01
(PID.TID 0000.0001) %MON dynstat_theta_min            =  -1.9000000000000E+00
(PID.TID 0000.0001) %MON dynstat_theta_mean           =   3.9277645204241E+00
(PID.TID 0000.0001) %MON dynstat_theta_sd             =   4.5737217792203E+00
(PID.TID 0000.0001) %MON dynstat_theta_del2           =   8.7882177717031E-02
(PID.TID 0000.0001) %MON dynstat_salt_max             =   4.1446610064801E+01
(PID.TID 0000.0001) %MON dynstat_salt_min             =   1.8388095152689E+01
(PID.TID 0000.0001) %MON dynstat_salt_mean            =   3.4775231438108E+01
(PID.TID 0000.0001) %MON dynstat_salt_sd              =   5.3478918588473E-01
(PID.TID 0000.0001) %MON dynstat_salt_del2            =   1.8920977928815E-02
(PID.TID 0000.0001) %MON advcfl_uvel_max              =   8.1783094759596E-02
(PID.TID 0000.0001) %MON advcfl_vvel_max              =   7.5406230891088E-02
(PID.TID 0000.0001) %MON advcfl_wvel_max              =   6.6837225601475E-02
(PID.TID 0000.0001) %MON advcfl_W_hf_max              =   1.2196726726775E-01
(PID.TID 0000.0001) %MON pe_b_mean                    =   4.7715518783330E-04
(PID.TID 0000.0001) %MON ke_max                       =   4.0740789917671E-02
(PID.TID 0000.0001) %MON ke_mean                      =   1.4082933075705E-04
(PID.TID 0000.0001) %MON ke_vol                       =   1.3398024453628E+18
(PID.TID 0000.0001) %MON vort_r_min                   =  -1.1842642992323E-06
(PID.TID 0000.0001) %MON vort_r_max                   =   1.2117641406288E-06
(PID.TID 0000.0001) %MON vort_a_mean                  =  -2.0493733748264E-05
(PID.TID 0000.0001) %MON vort_a_sd                    =   7.5053946671692E-05
(PID.TID 0000.0001) %MON vort_p_mean                  =  -2.4715564517845E-05
(PID.TID 0000.0001) %MON vort_p_sd                    =   1.2775775264579E-04
(PID.TID 0000.0001) %MON surfExpan_theta_mean         =   4.8255934839135E-08
(PID.TID 0000.0001) %MON surfExpan_salt_mean          =   1.4770293622123E-08
(PID.TID 0000.0001) // =======================================================
(PID.TID 0000.0001) // End MONITOR dynamic field statistics
(PID.TID 0000.0001) // =======================================================
 S/R EXTERNAL_FIELDS_LOAD: Reading new data  6.2208E+09 72000
(PID.TID 0000.0001)  MDSREADFIELD: opening global file: trenberth_taux.bin
(PID.TID 0000.0001)  MDSREADFIELD: opening global file: trenberth_taux.bin
(PID.TID 0000.0001)  MDSREADFIELD: opening global file: trenberth_tauy.bin
(PID.TID 0000.0001)  MDSREADFIELD: opening global file: trenberth_tauy.bin
(PID.TID 0000.0001)  MDSREADFIELD: opening global file: shiQnet_cs32.bin
(PID.TID 0000.0001)  MDSREADFIELD: opening global file: shiQnet_cs32.bin
(PID.TID 0000.0001)  MDSREADFIELD: opening global file: shiEmPR_cs32.bin
(PID.TID 0000.0001)  MDSREADFIELD: opening global file: shiEmPR_cs32.bin
(PID.TID 0000.0001)  MDSREADFIELD: opening global file: lev_surfT_cs_12m.bin
(PID.TID 0000.0001)  MDSREADFIELD: opening global file: lev_surfT_cs_12m.bin
(PID.TID 0000.0001)  MDSREADFIELD: opening global file: lev_surfS_cs_12m.bin
(PID.TID 0000.0001)  MDSREADFIELD: opening global file: lev_surfS_cs_12m.bin
 cg2d: Sum(rhs),rhsMax =  -3.46149331420520E-10  4.25849579503662E+00
(PID.TID 0000.0001)                    cg2d_init_res =    1.60088401216965E-01
(PID.TID 0000.0001)                       cg2d_iters =    62
(PID.TID 0000.0001)                         cg2d_res =    4.67954269369675E-07
(PID.TID 0000.0001) // =======================================================
(PID.TID 0000.0001) // Begin MONITOR dynamic field statistics
(PID.TID 0000.0001) // =======================================================
(PID.TID 0000.0001) %MON time_tsnumber                =                 72001
(PID.TID 0000.0001) %MON time_secondsf                =   6.2208864000000E+09
(PID.TID 0000.0001) %MON dynstat_eta_max              =   9.1862193297979E-01
(PID.TID 0000.0001) %MON dynstat_eta_min              =  -1.6154084795689E+00
(PID.TID 0000.0001) %MON dynstat_eta_mean             =   5.1472603486919E-13
(PID.TID 0000.0001) %MON dynstat_eta_sd               =   5.9837583412049E-01
(PID.TID 0000.0001) %MON dynstat_eta_del2             =   1.1248823606420E-02
(PID.TID 0000.0001) %MON dynstat_uvel_max             =   1.8556575257459E-01
(PID.TID 0000.0001) %MON dynstat_uvel_min             =  -2.8809804481569E-01
(PID.TID 0000.0001) %MON dynstat_uvel_mean            =  -4.9152627932576E-04
(PID.TID 0000.0001) %MON dynstat_uvel_sd              =   1.2027774153283E-02
(PID.TID 0000.0001) %MON dynstat_uvel_del2            =   1.5708257853293E-03
(PID.TID 0000.0001) %MON dynstat_vvel_max             =   1.7328476181353E-01
(PID.TID 0000.0001) %MON dynstat_vvel_min             =  -2.2517541568161E-01
(PID.TID 0000.0001) %MON dynstat_vvel_mean            =  -4.0613746737248E-04
(PID.TID 0000.0001) %MON dynstat_vvel_sd              =   1.2647828376709E-02
(PID.TID 0000.0001) %MON dynstat_vvel_del2            =   1.5966902866164E-03
(PID.TID 0000.0001) %MON dynstat_wvel_max             =   1.0348488729003E-04
(PID.TID 0000.0001) %MON dynstat_wvel_min             =  -2.0531917320989E-04
(PID.TID 0000.0001) %MON dynstat_wvel_mean            =   1.3842948195560E-10
(PID.TID 0000.0001) %MON dynstat_wvel_sd              =   3.9241270816527E-06
(PID.TID 0000.0001) %MON dynstat_wvel_del2            =   8.6551063008239E-07
(PID.TID 0000.0001) %MON dynstat_theta_max            =   3.0939413979131E+01
(PID.TID 0000.0001) %MON dynstat_theta_min            =  -1.9636512373245E+00
(PID.TID 0000.0001) %MON dynstat_theta_mean           =   3.9278182539778E+00
(PID.TID 0000.0001) %MON dynstat_theta_sd             =   4.5737423308407E+00
(PID.TID 0000.0001) %MON dynstat_theta_del2           =   8.7871534275072E-02
(PID.TID 0000.0001) %MON dynstat_salt_max             =   4.1441235264632E+01
(PID.TID 0000.0001) %MON dynstat_salt_min             =   1.8388381652584E+01
(PID.TID 0000.0001) %MON dynstat_salt_mean            =   3.4775231830052E+01
(PID.TID 0000.0001) %MON dynstat_salt_sd              =   5.3478705683600E-01
(PID.TID 0000.0001) %MON dynstat_salt_del2            =   1.8923142568882E-02
(PID.TID 0000.0001) %MON advcfl_uvel_max              =   8.1710070351227E-02
(PID.TID 0000.0001) %MON advcfl_vvel_max              =   7.5532386401679E-02
(PID.TID 0000.0001) %MON advcfl_wvel_max              =   6.6941798359754E-02
(PID.TID 0000.0001) %MON advcfl_W_hf_max              =   1.2159357990102E-01
(PID.TID 0000.0001) %MON pe_b_mean                    =   4.7699361387347E-04
(PID.TID 0000.0001) %MON ke_max                       =   4.0639514625806E-02
(PID.TID 0000.0001) %MON ke_mean                      =   1.4086342543827E-04
(PID.TID 0000.0001) %MON ke_vol                       =   1.3398024453628E+18
(PID.TID 0000.0001) %MON vort_r_min                   =  -1.1879020245020E-06
(PID.TID 0000.0001) %MON vort_r_max                   =   1.2126499826216E-06
(PID.TID 0000.0001) %MON vort_a_mean                  =  -2.0493733748263E-05
(PID.TID 0000.0001) %MON vort_a_sd                    =   7.5053946540394E-05
(PID.TID 0000.0001) %MON vort_p_mean                  =  -2.4715564818764E-05
(PID.TID 0000.0001) %MON vort_p_sd                    =   1.2775775075866E-04
(PID.TID 0000.0001) %MON surfExpan_theta_mean         =   4.8463369428243E-08
(PID.TID 0000.0001) %MON surfExpan_salt_mean          =   1.4772428319210E-08
(PID.TID 0000.0001) // =======================================================
(PID.TID 0000.0001) // End MONITOR dynamic field statistics
(PID.TID 0000.0001) // =======================================================
 cg2d: Sum(rhs),rhsMax =  -3.46230655257074E-10  4.25548699718609E+00
(PID.TID 0000.0001)                    cg2d_init_res =    1.65147637758995E-01
(PID.TID 0000.0001)                       cg2d_iters =    62
(PID.TID 0000.0001)                         cg2d_res =    4.82216944418361E-07
(PID.TID 0000.0001) // =======================================================
(PID.TID 0000.0001) // Begin MONITOR dynamic field statistics
(PID.TID 0000.0001) // =======================================================
(PID.TID 0000.0001) %MON time_tsnumber                =                 72002
(PID.TID 0000.0001) %MON time_secondsf                =   6.2209728000000E+09
(PID.TID 0000.0001) %MON dynstat_eta_max              =   9.1694089434248E-01
(PID.TID 0000.0001) %MON dynstat_eta_min              =  -1.6149341104821E+00
(PID.TID 0000.0001) %MON dynstat_eta_mean             =   5.1474958432856E-13
(PID.TID 0000.0001) %MON dynstat_eta_sd               =   5.9827462600856E-01
(PID.TID 0000.0001) %MON dynstat_eta_del2             =   1.1244992588558E-02
(PID.TID 0000.0001) %MON dynstat_uvel_max             =   1.8590426341701E-01
(PID.TID 0000.0001) %MON dynstat_uvel_min             =  -2.8782710719641E-01
(PID.TID 0000.0001) %MON dynstat_uvel_mean            =  -4.9125133177959E-04
(PID.TID 0000.0001) %MON dynstat_uvel_sd              =   1.2027331667196E-02
(PID.TID 0000.0001) %MON dynstat_uvel_del2            =   1.5706945529276E-03
(PID.TID 0000.0001) %MON dynstat_vvel_max             =   1.7354816027174E-01
(PID.TID 0000.0001) %MON dynstat_vvel_min             =  -2.2513225477575E-01
(PID.TID 0000.0001) %MON dynstat_vvel_mean            =  -4.0591010529457E-04
(PID.TID 0000.0001) %MON dynstat_vvel_sd              =   1.2650984568798E-02
(PID.TID 0000.0001) %MON dynstat_vvel_del2            =   1.5960138907504E-03
(PID.TID 0000.0001) %MON dynstat_wvel_max             =   1.0359135290258E-04
(PID.TID 0000.0001) %MON dynstat_wvel_min             =  -2.0559215148152E-04
(PID.TID 0000.0001) %MON dynstat_wvel_mean            =   1.3984840901370E-10
(PID.TID 0000.0001) %MON dynstat_wvel_sd              =   3.9215152954711E-06
(PID.TID 0000.0001) %MON dynstat_wvel_del2            =   8.6430893475898E-07
(PID.TID 0000.0001) %MON dynstat_theta_max            =   3.0954276770658E+01
(PID.TID 0000.0001) %MON dynstat_theta_min            =  -1.9680120627722E+00
(PID.TID 0000.0001) %MON dynstat_theta_mean           =   3.9278754104496E+00
(PID.TID 0000.0001) %MON dynstat_theta_sd             =   4.5737652554647E+00
(PID.TID 0000.0001) %MON dynstat_theta_del2           =   8.7862206046028E-02
(PID.TID 0000.0001) %MON dynstat_salt_max             =   4.1438130364637E+01
(PID.TID 0000.0001) %MON dynstat_salt_min             =   1.8388675173948E+01
(PID.TID 0000.0001) %MON dynstat_salt_mean            =   3.4775232238179E+01
(PID.TID 0000.0001) %MON dynstat_salt_sd              =   5.3478589108980E-01
(PID.TID 0000.0001) %MON dynstat_salt_del2            =   1.8922402089695E-02
(PID.TID 0000.0001) %MON advcfl_uvel_max              =   8.1633227303068E-02
(PID.TID 0000.0001) %MON advcfl_vvel_max              =   7.5647198078796E-02
(PID.TID 0000.0001) %MON advcfl_wvel_max              =   6.7030799577371E-02
(PID.TID 0000.0001) %MON advcfl_W_hf_max              =   1.2113814934352E-01
(PID.TID 0000.0001) %MON pe_b_mean                    =   4.7683227199537E-04
(PID.TID 0000.0001) %MON ke_max                       =   4.0534882631448E-02
(PID.TID 0000.0001) %MON ke_mean                      =   1.4089536368989E-04
(PID.TID 0000.0001) %MON ke_vol                       =   1.3398024453628E+18
(PID.TID 0000.0001) %MON vort_r_min                   =  -1.1918732755407E-06
(PID.TID 0000.0001) %MON vort_r_max                   =   1.2138335588230E-06
(PID.TID 0000.0001) %MON vort_a_mean                  =  -2.0493733748263E-05
(PID.TID 0000.0001) %MON vort_a_sd                    =   7.5053946415160E-05
(PID.TID 0000.0001) %MON vort_p_mean                  =  -2.4715565117102E-05
(PID.TID 0000.0001) %MON vort_p_sd                    =   1.2775774902757E-04
(PID.TID 0000.0001) %MON surfExpan_theta_mean         =   4.8658050075601E-08
(PID.TID 0000.0001) %MON surfExpan_salt_mean          =   1.4809703193173E-08
(PID.TID 0000.0001) // =======================================================
(PID.TID 0000.0001) // End MONITOR dynamic field statistics
(PID.TID 0000.0001) // =======================================================
 cg2d: Sum(rhs),rhsMax =  -3.46127848604993E-10  4.25267386596450E+00
(PID.TID 0000.0001)                    cg2d_init_res =    1.57477829242058E-01
(PID.TID 0000.0001)                       cg2d_iters =    62
(PID.TID 0000.0001)                         cg2d_res =    4.69651914435937E-07
(PID.TID 0000.0001) // =======================================================
(PID.TID 0000.0001) // Begin MONITOR dynamic field statistics
(PID.TID 0000.0001) // =======================================================
(PID.TID 0000.0001) %MON time_tsnumber                =                 72003
(PID.TID 0000.0001) %MON time_secondsf                =   6.2210592000000E+09
(PID.TID 0000.0001) %MON dynstat_eta_max              =   9.1527166498704E-01
(PID.TID 0000.0001) %MON dynstat_eta_min              =  -1.6144645711342E+00
(PID.TID 0000.0001) %MON dynstat_eta_mean             =   5.1474512267885E-13
(PID.TID 0000.0001) %MON dynstat_eta_sd               =   5.9817362026517E-01
(PID.TID 0000.0001) %MON dynstat_eta_del2             =   1.1241904919832E-02
(PID.TID 0000.0001) %MON dynstat_uvel_max             =   1.8618175918066E-01
(PID.TID 0000.0001) %MON dynstat_uvel_min             =  -2.8754252309727E-01
(PID.TID 0000.0001) %MON dynstat_uvel_mean            =  -4.9093367380091E-04
(PID.TID 0000.0001) %MON dynstat_uvel_sd              =   1.2026681853300E-02
(PID.TID 0000.0001) %MON dynstat_uvel_del2            =   1.5705736111812E-03
(PID.TID 0000.0001) %MON dynstat_vvel_max             =   1.7378358680248E-01
(PID.TID 0000.0001) %MON dynstat_vvel_min             =  -2.2508084195469E-01
(PID.TID 0000.0001) %MON dynstat_vvel_mean            =  -4.0566198619164E-04
(PID.TID 0000.0001) %MON dynstat_vvel_sd              =   1.2654132350996E-02
(PID.TID 0000.0001) %MON dynstat_vvel_del2            =   1.5953224813831E-03
(PID.TID 0000.0001) %MON dynstat_wvel_max             =   1.0376511608183E-04
(PID.TID 0000.0001) %MON dynstat_wvel_min             =  -2.0581379849967E-04
(PID.TID 0000.0001) %MON dynstat_wvel_mean            =   1.3835098686720E-10
(PID.TID 0000.0001) %MON dynstat_wvel_sd              =   3.9186851563829E-06
(PID.TID 0000.0001) %MON dynstat_wvel_del2            =   8.6379622946292E-07
(PID.TID 0000.0001) %MON dynstat_theta_max            =   3.0968620772232E+01
(PID.TID 0000.0001) %MON dynstat_theta_min            =  -1.9695491911020E+00
(PID.TID 0000.0001) %MON dynstat_theta_mean           =   3.9279332153501E+00
(PID.TID 0000.0001) %MON dynstat_theta_sd             =   4.5737937701713E+00
(PID.TID 0000.0001) %MON dynstat_theta_del2           =   8.7874310037379E-02
(PID.TID 0000.0001) %MON dynstat_salt_max             =   4.1435024632468E+01
(PID.TID 0000.0001) %MON dynstat_salt_min             =   1.8388975569165E+01
(PID.TID 0000.0001) %MON dynstat_salt_mean            =   3.4775232663508E+01
(PID.TID 0000.0001) %MON dynstat_salt_sd              =   5.3478427804440E-01
(PID.TID 0000.0001) %MON dynstat_salt_del2            =   1.8923825147095E-02
(PID.TID 0000.0001) %MON advcfl_uvel_max              =   8.1552513854365E-02
(PID.TID 0000.0001) %MON advcfl_vvel_max              =   7.5749817186807E-02
(PID.TID 0000.0001) %MON advcfl_wvel_max              =   6.7103064869325E-02
(PID.TID 0000.0001) %MON advcfl_W_hf_max              =   1.2060164171633E-01
(PID.TID 0000.0001) %MON pe_b_mean                    =   4.7667127993458E-04
(PID.TID 0000.0001) %MON ke_max                       =   4.0426950898402E-02
(PID.TID 0000.0001) %MON ke_mean                      =   1.4092489728564E-04
(PID.TID 0000.0001) %MON ke_vol                       =   1.3398024453628E+18
(PID.TID 0000.0001) %MON vort_r_min                   =  -1.1961506451003E-06
(PID.TID 0000.0001) %MON vort_r_max                   =   1.2152798516605E-06
(PID.TID 0000.0001) %MON vort_a_mean                  =  -2.0493733748264E-05
(PID.TID 0000.0001) %MON vort_a_sd                    =   7.5053946295213E-05
(PID.TID 0000.0001) %MON vort_p_mean                  =  -2.4715565412731E-05
(PID.TID 0000.0001) %MON vort_p_sd                    =   1.2775774744158E-04
(PID.TID 0000.0001) %MON surfExpan_theta_mean         =   4.8825820135561E-08
(PID.TID 0000.0001) %MON surfExpan_salt_mean          =   1.4830807127371E-08
(PID.TID 0000.0001) // =======================================================
(PID.TID 0000.0001) // End MONITOR dynamic field statistics
(PID.TID 0000.0001) // =======================================================
 cg2d: Sum(rhs),rhsMax =  -3.46189577005163E-10  4.25006736097801E+00
(PID.TID 0000.0001)                    cg2d_init_res =    1.59034881017502E-01
(PID.TID 0000.0001)                       cg2d_iters =    62
(PID.TID 0000.0001)                         cg2d_res =    4.72062111651701E-07
(PID.TID 0000.0001) // =======================================================
(PID.TID 0000.0001) // Begin MONITOR dynamic field statistics
(PID.TID 0000.0001) // =======================================================
(PID.TID 0000.0001) %MON time_tsnumber                =                 72004
(PID.TID 0000.0001) %MON time_secondsf                =   6.2211456000000E+09
(PID.TID 0000.0001) %MON dynstat_eta_max              =   9.1362565751647E-01
(PID.TID 0000.0001) %MON dynstat_eta_min              =  -1.6139958403094E+00
(PID.TID 0000.0001) %MON dynstat_eta_mean             =   5.1471249560737E-13
(PID.TID 0000.0001) %MON dynstat_eta_sd               =   5.9807254247625E-01
(PID.TID 0000.0001) %MON dynstat_eta_del2             =   1.1239173613582E-02
(PID.TID 0000.0001) %MON dynstat_uvel_max             =   1.8639491662495E-01
(PID.TID 0000.0001) %MON dynstat_uvel_min             =  -2.8724409673424E-01
(PID.TID 0000.0001) %MON dynstat_uvel_mean            =  -4.9057449788878E-04
(PID.TID 0000.0001) %MON dynstat_uvel_sd              =   1.2025882217186E-02
(PID.TID 0000.0001) %MON dynstat_uvel_del2            =   1.5704882095646E-03
(PID.TID 0000.0001) %MON dynstat_vvel_max             =   1.7398953286005E-01
(PID.TID 0000.0001) %MON dynstat_vvel_min             =  -2.2502163302417E-01
(PID.TID 0000.0001) %MON dynstat_vvel_mean            =  -4.0539423568460E-04
(PID.TID 0000.0001) %MON dynstat_vvel_sd              =   1.2657199316794E-02
(PID.TID 0000.0001) %MON dynstat_vvel_del2            =   1.5947434185212E-03
(PID.TID 0000.0001) %MON dynstat_wvel_max             =   1.0400267504236E-04
(PID.TID 0000.0001) %MON dynstat_wvel_min             =  -2.0598136339996E-04
(PID.TID 0000.0001) %MON dynstat_wvel_mean            =   1.3513395780025E-10
(PID.TID 0000.0001) %MON dynstat_wvel_sd              =   3.9156624096599E-06
(PID.TID 0000.0001) %MON dynstat_wvel_del2            =   8.6314435187597E-07
(PID.TID 0000.0001) %MON dynstat_theta_max            =   3.0982464219878E+01
(PID.TID 0000.0001) %MON dynstat_theta_min            =  -1.9958110441010E+00
(PID.TID 0000.0001) %MON dynstat_theta_mean           =   3.9279911971885E+00
(PID.TID 0000.0001) %MON dynstat_theta_sd             =   4.5738290889940E+00
(PID.TID 0000.0001) %MON dynstat_theta_del2           =   8.7874525801757E-02
(PID.TID 0000.0001) %MON dynstat_salt_max             =   4.1431927245154E+01
(PID.TID 0000.0001) %MON dynstat_salt_min             =   1.8389282618894E+01
(PID.TID 0000.0001) %MON dynstat_salt_mean            =   3.4775233107669E+01
(PID.TID 0000.0001) %MON dynstat_salt_sd              =   5.3478259325646E-01
(PID.TID 0000.0001) %MON dynstat_salt_del2            =   1.8932286877305E-02
(PID.TID 0000.0001) %MON advcfl_uvel_max              =   8.1467874477056E-02
(PID.TID 0000.0001) %MON advcfl_vvel_max              =   7.5839586171889E-02
(PID.TID 0000.0001) %MON advcfl_wvel_max              =   6.7157697350025E-02
(PID.TID 0000.0001) %MON advcfl_W_hf_max              =   1.1998504117868E-01
(PID.TID 0000.0001) %MON pe_b_mean                    =   4.7651020025254E-04
(PID.TID 0000.0001) %MON ke_max                       =   4.0315773188714E-02
(PID.TID 0000.0001) %MON ke_mean                      =   1.4095181248881E-04
(PID.TID 0000.0001) %MON ke_vol                       =   1.3398024453628E+18
(PID.TID 0000.0001) %MON vort_r_min                   =  -1.2007051602626E-06
(PID.TID 0000.0001) %MON vort_r_max                   =   1.2169633771679E-06
(PID.TID 0000.0001) %MON vort_a_mean                  =  -2.0493733748263E-05
(PID.TID 0000.0001) %MON vort_a_sd                    =   7.5053946180264E-05
(PID.TID 0000.0001) %MON vort_p_mean                  =  -2.4715565704626E-05
(PID.TID 0000.0001) %MON vort_p_sd                    =   1.2775774598232E-04
(PID.TID 0000.0001) %MON surfExpan_theta_mean         =   4.8986931802703E-08
(PID.TID 0000.0001) %MON surfExpan_salt_mean          =   1.4862097728105E-08
(PID.TID 0000.0001) // =======================================================
(PID.TID 0000.0001) // End MONITOR dynamic field statistics
(PID.TID 0000.0001) // =======================================================
 cg2d: Sum(rhs),rhsMax =  -3.45930173395459E-10  4.24767409225093E+00
(PID.TID 0000.0001)                    cg2d_init_res =    1.59744290581158E-01
(PID.TID 0000.0001)                       cg2d_iters =    62
(PID.TID 0000.0001)                         cg2d_res =    4.73820079384809E-07
(PID.TID 0000.0001) // =======================================================
(PID.TID 0000.0001) // Begin MONITOR dynamic field statistics
(PID.TID 0000.0001) // =======================================================
(PID.TID 0000.0001) %MON time_tsnumber                =                 72005
(PID.TID 0000.0001) %MON time_secondsf                =   6.2212320000000E+09
(PID.TID 0000.0001) %MON dynstat_eta_max              =   9.1200816597825E-01
(PID.TID 0000.0001) %MON dynstat_eta_min              =  -1.6135251339688E+00
(PID.TID 0000.0001) %MON dynstat_eta_mean             =   5.1475028209032E-13
(PID.TID 0000.0001) %MON dynstat_eta_sd               =   5.9797129263092E-01
(PID.TID 0000.0001) %MON dynstat_eta_del2             =   1.1237036675633E-02
(PID.TID 0000.0001) %MON dynstat_uvel_max             =   1.8654137765742E-01
(PID.TID 0000.0001) %MON dynstat_uvel_min             =  -2.8693162334623E-01
(PID.TID 0000.0001) %MON dynstat_uvel_mean            =  -4.9017629291546E-04
(PID.TID 0000.0001) %MON dynstat_uvel_sd              =   1.2024994235045E-02
(PID.TID 0000.0001) %MON dynstat_uvel_del2            =   1.5704995212835E-03
(PID.TID 0000.0001) %MON dynstat_vvel_max             =   1.7416486199104E-01
(PID.TID 0000.0001) %MON dynstat_vvel_min             =  -2.2495509251344E-01
(PID.TID 0000.0001) %MON dynstat_vvel_mean            =  -4.0510755664229E-04
(PID.TID 0000.0001) %MON dynstat_vvel_sd              =   1.2660112118642E-02
(PID.TID 0000.0001) %MON dynstat_vvel_del2            =   1.5941495889488E-03
(PID.TID 0000.0001) %MON dynstat_wvel_max             =   1.0429849895628E-04
(PID.TID 0000.0001) %MON dynstat_wvel_min             =  -2.0609302148338E-04
(PID.TID 0000.0001) %MON dynstat_wvel_mean            =   1.2951052446455E-10
(PID.TID 0000.0001) %MON dynstat_wvel_sd              =   3.9124892272726E-06
(PID.TID 0000.0001) %MON dynstat_wvel_del2            =   8.6186490960205E-07
(PID.TID 0000.0001) %MON dynstat_theta_max            =   3.0995824467340E+01
(PID.TID 0000.0001) %MON dynstat_theta_min            =  -2.0240575211381E+00
(PID.TID 0000.0001) %MON dynstat_theta_mean           =   3.9280493057416E+00
(PID.TID 0000.0001) %MON dynstat_theta_sd             =   4.5738707111830E+00
(PID.TID 0000.0001) %MON dynstat_theta_del2           =   8.7860562076035E-02
(PID.TID 0000.0001) %MON dynstat_salt_max             =   4.1428837087217E+01
(PID.TID 0000.0001) %MON dynstat_salt_min             =   1.8389596156512E+01
(PID.TID 0000.0001) %MON dynstat_salt_mean            =   3.4775233568705E+01
(PID.TID 0000.0001) %MON dynstat_salt_sd              =   5.3478077615400E-01
(PID.TID 0000.0001) %MON dynstat_salt_del2            =   1.8926308712576E-02
(PID.TID 0000.0001) %MON advcfl_uvel_max              =   8.1379251097004E-02
(PID.TID 0000.0001) %MON advcfl_vvel_max              =   7.5916009670014E-02
(PID.TID 0000.0001) %MON advcfl_wvel_max              =   6.7194102098733E-02
(PID.TID 0000.0001) %MON advcfl_W_hf_max              =   1.1928971661562E-01
(PID.TID 0000.0001) %MON pe_b_mean                    =   4.7634887366845E-04
(PID.TID 0000.0001) %MON ke_max                       =   4.0201400296764E-02
(PID.TID 0000.0001) %MON ke_mean                      =   1.4097592785798E-04
(PID.TID 0000.0001) %MON ke_vol                       =   1.3398024453628E+18
(PID.TID 0000.0001) %MON vort_r_min                   =  -1.2055067973823E-06
(PID.TID 0000.0001) %MON vort_r_max                   =   1.2188467833302E-06
(PID.TID 0000.0001) %MON vort_a_mean                  =  -2.0493733748264E-05
(PID.TID 0000.0001) %MON vort_a_sd                    =   7.5053946070164E-05
(PID.TID 0000.0001) %MON vort_p_mean                  =  -2.4715565992390E-05
(PID.TID 0000.0001) %MON vort_p_sd                    =   1.2775774464391E-04
(PID.TID 0000.0001) %MON surfExpan_theta_mean         =   4.9095774206958E-08
(PID.TID 0000.0001) %MON surfExpan_salt_mean          =   1.4901440594212E-08
(PID.TID 0000.0001) // =======================================================
(PID.TID 0000.0001) // End MONITOR dynamic field statistics
(PID.TID 0000.0001) // =======================================================
 cg2d: Sum(rhs),rhsMax =  -3.46146833418715E-10  4.24549627114126E+00
(PID.TID 0000.0001)                    cg2d_init_res =    1.58946000487502E-01
(PID.TID 0000.0001)                       cg2d_iters =    62
(PID.TID 0000.0001)                         cg2d_res =    4.75365982396138E-07
(PID.TID 0000.0001) // =======================================================
(PID.TID 0000.0001) // Begin MONITOR dynamic field statistics
(PID.TID 0000.0001) // =======================================================
(PID.TID 0000.0001) %MON time_tsnumber                =                 72006
(PID.TID 0000.0001) %MON time_secondsf                =   6.2213184000000E+09
(PID.TID 0000.0001) %MON dynstat_eta_max              =   9.1044830981658E-01
(PID.TID 0000.0001) %MON dynstat_eta_min              =  -1.6130509342236E+00
(PID.TID 0000.0001) %MON dynstat_eta_mean             =   5.1473322718271E-13
(PID.TID 0000.0001) %MON dynstat_eta_sd               =   5.9787003060860E-01
(PID.TID 0000.0001) %MON dynstat_eta_del2             =   1.1235451205904E-02
(PID.TID 0000.0001) %MON dynstat_uvel_max             =   1.8661976706722E-01
(PID.TID 0000.0001) %MON dynstat_uvel_min             =  -2.8660488771955E-01
(PID.TID 0000.0001) %MON dynstat_uvel_mean            =  -4.8974132969389E-04
(PID.TID 0000.0001) %MON dynstat_uvel_sd              =   1.2024080714439E-02
(PID.TID 0000.0001) %MON dynstat_uvel_del2            =   1.5704146005285E-03
(PID.TID 0000.0001) %MON dynstat_vvel_max             =   1.7430839474906E-01
(PID.TID 0000.0001) %MON dynstat_vvel_min             =  -2.2488168953417E-01
(PID.TID 0000.0001) %MON dynstat_vvel_mean            =  -4.0480380574974E-04
(PID.TID 0000.0001) %MON dynstat_vvel_sd              =   1.2662798549318E-02
(PID.TID 0000.0001) %MON dynstat_vvel_del2            =   1.5935498651432E-03
(PID.TID 0000.0001) %MON dynstat_wvel_max             =   1.0464658493137E-04
(PID.TID 0000.0001) %MON dynstat_wvel_min             =  -2.0614785348334E-04
(PID.TID 0000.0001) %MON dynstat_wvel_mean            =   1.2209948630094E-10
(PID.TID 0000.0001) %MON dynstat_wvel_sd              =   3.9092364769336E-06
(PID.TID 0000.0001) %MON dynstat_wvel_del2            =   8.6054818298526E-07
(PID.TID 0000.0001) %MON dynstat_theta_max            =   3.1008717992287E+01
(PID.TID 0000.0001) %MON dynstat_theta_min            =  -2.0525234056300E+00
(PID.TID 0000.0001) %MON dynstat_theta_mean           =   3.9281074756403E+00
(PID.TID 0000.0001) %MON dynstat_theta_sd             =   4.5739180495258E+00
(PID.TID 0000.0001) %MON dynstat_theta_del2           =   8.7877781190211E-02
(PID.TID 0000.0001) %MON dynstat_salt_max             =   4.1425753777366E+01
(PID.TID 0000.0001) %MON dynstat_salt_min             =   1.8389916029929E+01
(PID.TID 0000.0001) %MON dynstat_salt_mean            =   3.4775234045943E+01
(PID.TID 0000.0001) %MON dynstat_salt_sd              =   5.3477826089877E-01
(PID.TID 0000.0001) %MON dynstat_salt_del2            =   1.8927634647788E-02
(PID.TID 0000.0001) %MON advcfl_uvel_max              =   8.1286582675533E-02
(PID.TID 0000.0001) %MON advcfl_vvel_max              =   7.5978573577115E-02
(PID.TID 0000.0001) %MON advcfl_wvel_max              =   6.7211979399853E-02
(PID.TID 0000.0001) %MON advcfl_W_hf_max              =   1.1851641999856E-01
(PID.TID 0000.0001) %MON pe_b_mean                    =   4.7618755500095E-04
(PID.TID 0000.0001) %MON ke_max                       =   4.0083878346812E-02
(PID.TID 0000.0001) %MON ke_mean                      =   1.4099708940920E-04
(PID.TID 0000.0001) %MON ke_vol                       =   1.3398024453628E+18
(PID.TID 0000.0001) %MON vort_r_min                   =  -1.2105246784135E-06
(PID.TID 0000.0001) %MON vort_r_max                   =   1.2209024692530E-06
(PID.TID 0000.0001) %MON vort_a_mean                  =  -2.0493733748263E-05
(PID.TID 0000.0001) %MON vort_a_sd                    =   7.5053945964525E-05
(PID.TID 0000.0001) %MON vort_p_mean                  =  -2.4715566274665E-05
(PID.TID 0000.0001) %MON vort_p_sd                    =   1.2775774340648E-04
(PID.TID 0000.0001) %MON surfExpan_theta_mean         =   4.9169883374096E-08
(PID.TID 0000.0001) %MON surfExpan_salt_mean          =   1.4948660976833E-08
(PID.TID 0000.0001) // =======================================================
(PID.TID 0000.0001) // End MONITOR dynamic field statistics
(PID.TID 0000.0001) // =======================================================
 cg2d: Sum(rhs),rhsMax =  -3.46328077327485E-10  4.24353168108187E+00
(PID.TID 0000.0001)                    cg2d_init_res =    1.58276858740031E-01
(PID.TID 0000.0001)                       cg2d_iters =    62
(PID.TID 0000.0001)                         cg2d_res =    4.78582345509312E-07
(PID.TID 0000.0001) // =======================================================
(PID.TID 0000.0001) // Begin MONITOR dynamic field statistics
(PID.TID 0000.0001) // =======================================================
(PID.TID 0000.0001) %MON time_tsnumber                =                 72007
(PID.TID 0000.0001) %MON time_secondsf                =   6.2214048000000E+09
(PID.TID 0000.0001) %MON dynstat_eta_max              =   9.0894711374304E-01
(PID.TID 0000.0001) %MON dynstat_eta_min              =  -1.6125702446074E+00
(PID.TID 0000.0001) %MON dynstat_eta_mean             =   5.1475125493123E-13
(PID.TID 0000.0001) %MON dynstat_eta_sd               =   5.9776900368940E-01
(PID.TID 0000.0001) %MON dynstat_eta_del2             =   1.1234540305509E-02
(PID.TID 0000.0001) %MON dynstat_uvel_max             =   1.8662969384353E-01
(PID.TID 0000.0001) %MON dynstat_uvel_min             =  -2.8626366488274E-01
(PID.TID 0000.0001) %MON dynstat_uvel_mean            =  -4.8927240041167E-04
(PID.TID 0000.0001) %MON dynstat_uvel_sd              =   1.2023202842008E-02
(PID.TID 0000.0001) %MON dynstat_uvel_del2            =   1.5702566375728E-03
(PID.TID 0000.0001) %MON dynstat_vvel_max             =   1.7441911914335E-01
(PID.TID 0000.0001) %MON dynstat_vvel_min             =  -2.2480189436253E-01
(PID.TID 0000.0001) %MON dynstat_vvel_mean            =  -4.0448504191823E-04
(PID.TID 0000.0001) %MON dynstat_vvel_sd              =   1.2665190954678E-02
(PID.TID 0000.0001) %MON dynstat_vvel_del2            =   1.5929925731700E-03
(PID.TID 0000.0001) %MON dynstat_wvel_max             =   1.0503950709637E-04
(PID.TID 0000.0001) %MON dynstat_wvel_min             =  -2.0614533864908E-04
(PID.TID 0000.0001) %MON dynstat_wvel_mean            =   1.1382416971422E-10
(PID.TID 0000.0001) %MON dynstat_wvel_sd              =   3.9059749609340E-06
(PID.TID 0000.0001) %MON dynstat_wvel_del2            =   8.5986777788678E-07
(PID.TID 0000.0001) %MON dynstat_theta_max            =   3.1021160397139E+01
(PID.TID 0000.0001) %MON dynstat_theta_min            =  -2.0811687055045E+00
(PID.TID 0000.0001) %MON dynstat_theta_mean           =   3.9281657631053E+00
(PID.TID 0000.0001) %MON dynstat_theta_sd             =   4.5739719444694E+00
(PID.TID 0000.0001) %MON dynstat_theta_del2           =   8.7888342158732E-02
(PID.TID 0000.0001) %MON dynstat_salt_max             =   4.1422677250683E+01
(PID.TID 0000.0001) %MON dynstat_salt_min             =   1.8390242102174E+01
(PID.TID 0000.0001) %MON dynstat_salt_mean            =   3.4775234541217E+01
(PID.TID 0000.0001) %MON dynstat_salt_sd              =   5.3477574909706E-01
(PID.TID 0000.0001) %MON dynstat_salt_del2            =   1.8928821761662E-02
(PID.TID 0000.0001) %MON advcfl_uvel_max              =   8.1189805406466E-02
(PID.TID 0000.0001) %MON advcfl_vvel_max              =   7.6026836780675E-02
(PID.TID 0000.0001) %MON advcfl_wvel_max              =   6.7211159468982E-02
(PID.TID 0000.0001) %MON advcfl_W_hf_max              =   1.1766706269576E-01
(PID.TID 0000.0001) %MON pe_b_mean                    =   4.7602663809726E-04
(PID.TID 0000.0001) %MON ke_max                       =   3.9963248150239E-02
(PID.TID 0000.0001) %MON ke_mean                      =   1.4101517823457E-04
(PID.TID 0000.0001) %MON ke_vol                       =   1.3398024453628E+18
(PID.TID 0000.0001) %MON vort_r_min                   =  -1.2157273853935E-06
(PID.TID 0000.0001) %MON vort_r_max                   =   1.2230869080335E-06
(PID.TID 0000.0001) %MON vort_a_mean                  =  -2.0493733748264E-05
(PID.TID 0000.0001) %MON vort_a_sd                    =   7.5053945863075E-05
(PID.TID 0000.0001) %MON vort_p_mean                  =  -2.4715566552196E-05
(PID.TID 0000.0001) %MON vort_p_sd                    =   1.2775774225867E-04
(PID.TID 0000.0001) %MON surfExpan_theta_mean         =   4.9237060665559E-08
(PID.TID 0000.0001) %MON surfExpan_salt_mean          =   1.5005094297552E-08
(PID.TID 0000.0001) // =======================================================
(PID.TID 0000.0001) // End MONITOR dynamic field statistics
(PID.TID 0000.0001) // =======================================================
 cg2d: Sum(rhs),rhsMax =  -3.46039585874536E-10  4.24177376558880E+00
(PID.TID 0000.0001)                    cg2d_init_res =    1.57750683864965E-01
(PID.TID 0000.0001)                       cg2d_iters =    62
(PID.TID 0000.0001)                         cg2d_res =    4.81320365271059E-07
(PID.TID 0000.0001) // =======================================================
(PID.TID 0000.0001) // Begin MONITOR dynamic field statistics
(PID.TID 0000.0001) // =======================================================
(PID.TID 0000.0001) %MON time_tsnumber                =                 72008
(PID.TID 0000.0001) %MON time_secondsf                =   6.2214912000000E+09
(PID.TID 0000.0001) %MON dynstat_eta_max              =   9.0746129231070E-01
(PID.TID 0000.0001) %MON dynstat_eta_min              =  -1.6120820020296E+00
(PID.TID 0000.0001) %MON dynstat_eta_mean             =   5.1472044606588E-13
(PID.TID 0000.0001) %MON dynstat_eta_sd               =   5.9766855813262E-01
(PID.TID 0000.0001) %MON dynstat_eta_del2             =   1.1234205651763E-02
(PID.TID 0000.0001) %MON dynstat_uvel_max             =   1.8657173889728E-01
(PID.TID 0000.0001) %MON dynstat_uvel_min             =  -2.8590772658101E-01
(PID.TID 0000.0001) %MON dynstat_uvel_mean            =  -4.8877281175044E-04
(PID.TID 0000.0001) %MON dynstat_uvel_sd              =   1.2022416033112E-02
(PID.TID 0000.0001) %MON dynstat_uvel_del2            =   1.5700002689631E-03
(PID.TID 0000.0001) %MON dynstat_vvel_max             =   1.7449605340859E-01
(PID.TID 0000.0001) %MON dynstat_vvel_min             =  -2.2471617592584E-01
(PID.TID 0000.0001) %MON dynstat_vvel_mean            =  -4.0415206247164E-04
(PID.TID 0000.0001) %MON dynstat_vvel_sd              =   1.2667229445482E-02
(PID.TID 0000.0001) %MON dynstat_vvel_del2            =   1.5924809799970E-03
(PID.TID 0000.0001) %MON dynstat_wvel_max             =   1.0546928216224E-04
(PID.TID 0000.0001) %MON dynstat_wvel_min             =  -2.0608561636447E-04
(PID.TID 0000.0001) %MON dynstat_wvel_mean            =   1.0391876871164E-10
(PID.TID 0000.0001) %MON dynstat_wvel_sd              =   3.9027538374308E-06
(PID.TID 0000.0001) %MON dynstat_wvel_del2            =   8.5947211877237E-07
(PID.TID 0000.0001) %MON dynstat_theta_max            =   3.1033166411491E+01
(PID.TID 0000.0001) %MON dynstat_theta_min            =  -2.1099578695635E+00
(PID.TID 0000.0001) %MON dynstat_theta_mean           =   3.9282241333424E+00
(PID.TID 0000.0001) %MON dynstat_theta_sd             =   4.5740310244490E+00
(PID.TID 0000.0001) %MON dynstat_theta_del2           =   8.7898375292550E-02
(PID.TID 0000.0001) %MON dynstat_salt_max             =   4.1419607758055E+01
(PID.TID 0000.0001) %MON dynstat_salt_min             =   1.8390574252590E+01
(PID.TID 0000.0001) %MON dynstat_salt_mean            =   3.4775235053815E+01
(PID.TID 0000.0001) %MON dynstat_salt_sd              =   5.3477242397302E-01
(PID.TID 0000.0001) %MON dynstat_salt_del2            =   1.8931130392412E-02
(PID.TID 0000.0001) %MON advcfl_uvel_max              =   8.1088854552413E-02
(PID.TID 0000.0001) %MON advcfl_vvel_max              =   7.6060371343030E-02
(PID.TID 0000.0001) %MON advcfl_wvel_max              =   6.7191687750528E-02
(PID.TID 0000.0001) %MON advcfl_W_hf_max              =   1.1674308730761E-01
(PID.TID 0000.0001) %MON pe_b_mean                    =   4.7586667415415E-04
(PID.TID 0000.0001) %MON ke_max                       =   3.9839546365033E-02
(PID.TID 0000.0001) %MON ke_mean                      =   1.4103010218210E-04
(PID.TID 0000.0001) %MON ke_vol                       =   1.3398024453628E+18
(PID.TID 0000.0001) %MON vort_r_min                   =  -1.2210832524619E-06
(PID.TID 0000.0001) %MON vort_r_max                   =   1.2253758936156E-06
(PID.TID 0000.0001) %MON vort_a_mean                  =  -2.0493733748264E-05
(PID.TID 0000.0001) %MON vort_a_sd                    =   7.5053945765705E-05
(PID.TID 0000.0001) %MON vort_p_mean                  =  -2.4715566824004E-05
(PID.TID 0000.0001) %MON vort_p_sd                    =   1.2775774118489E-04
(PID.TID 0000.0001) %MON surfExpan_theta_mean         =   4.9282027746786E-08
(PID.TID 0000.0001) %MON surfExpan_salt_mean          =   1.5067192356018E-08
(PID.TID 0000.0001) // =======================================================
(PID.TID 0000.0001) // End MONITOR dynamic field statistics
(PID.TID 0000.0001) // =======================================================
 cg2d: Sum(rhs),rhsMax =  -3.46172146503676E-10  4.24021181084958E+00
(PID.TID 0000.0001)                    cg2d_init_res =    1.60175622535002E-01
(PID.TID 0000.0001)                       cg2d_iters =    62
(PID.TID 0000.0001)                         cg2d_res =    4.87787045455952E-07
(PID.TID 0000.0001) // =======================================================
(PID.TID 0000.0001) // Begin MONITOR dynamic field statistics
(PID.TID 0000.0001) // =======================================================
(PID.TID 0000.0001) %MON time_tsnumber                =                 72009
(PID.TID 0000.0001) %MON time_secondsf                =   6.2215776000000E+09
(PID.TID 0000.0001) %MON dynstat_eta_max              =   9.0601800397923E-01
(PID.TID 0000.0001) %MON dynstat_eta_min              =  -1.6115853193761E+00
(PID.TID 0000.0001) %MON dynstat_eta_mean             =   5.1475087250411E-13
(PID.TID 0000.0001) %MON dynstat_eta_sd               =   5.9756908456822E-01
(PID.TID 0000.0001) %MON dynstat_eta_del2             =   1.1233958705417E-02
(PID.TID 0000.0001) %MON dynstat_uvel_max             =   1.8644742928921E-01
(PID.TID 0000.0001) %MON dynstat_uvel_min             =  -2.8553684303521E-01
(PID.TID 0000.0001) %MON dynstat_uvel_mean            =  -4.8824508934812E-04
(PID.TID 0000.0001) %MON dynstat_uvel_sd              =   1.2021767526313E-02
(PID.TID 0000.0001) %MON dynstat_uvel_del2            =   1.5696410180154E-03
(PID.TID 0000.0001) %MON dynstat_vvel_max             =   1.7453834195626E-01
(PID.TID 0000.0001) %MON dynstat_vvel_min             =  -2.2462499571438E-01
(PID.TID 0000.0001) %MON dynstat_vvel_mean            =  -4.0380722755635E-04
(PID.TID 0000.0001) %MON dynstat_vvel_sd              =   1.2668864527176E-02
(PID.TID 0000.0001) %MON dynstat_vvel_del2            =   1.5919768971613E-03
(PID.TID 0000.0001) %MON dynstat_wvel_max             =   1.0592699519181E-04
(PID.TID 0000.0001) %MON dynstat_wvel_min             =  -2.0596939658322E-04
(PID.TID 0000.0001) %MON dynstat_wvel_mean            =   9.3785303418033E-11
(PID.TID 0000.0001) %MON dynstat_wvel_sd              =   3.8996053507092E-06
(PID.TID 0000.0001) %MON dynstat_wvel_del2            =   8.5902844083907E-07
(PID.TID 0000.0001) %MON dynstat_theta_max            =   3.1044749894511E+01
(PID.TID 0000.0001) %MON dynstat_theta_min            =  -2.1388537152304E+00
(PID.TID 0000.0001) %MON dynstat_theta_mean           =   3.9282825475450E+00
(PID.TID 0000.0001) %MON dynstat_theta_sd             =   4.5740937861459E+00
(PID.TID 0000.0001) %MON dynstat_theta_del2           =   8.7932298031119E-02
(PID.TID 0000.0001) %MON dynstat_salt_max             =   4.1416545698537E+01
(PID.TID 0000.0001) %MON dynstat_salt_min             =   1.8390912378077E+01
(PID.TID 0000.0001) %MON dynstat_salt_mean            =   3.4775235583101E+01
(PID.TID 0000.0001) %MON dynstat_salt_sd              =   5.3476751807904E-01
(PID.TID 0000.0001) %MON dynstat_salt_del2            =   1.8939603230777E-02
(PID.TID 0000.0001) %MON advcfl_uvel_max              =   8.0983664943649E-02
(PID.TID 0000.0001) %MON advcfl_vvel_max              =   7.6078804325187E-02
(PID.TID 0000.0001) %MON advcfl_wvel_max              =   6.7153795716190E-02
(PID.TID 0000.0001) %MON advcfl_W_hf_max              =   1.1574642573766E-01
(PID.TID 0000.0001) %MON pe_b_mean                    =   4.7570828464414E-04
(PID.TID 0000.0001) %MON ke_max                       =   3.9712804802052E-02
(PID.TID 0000.0001) %MON ke_mean                      =   1.4104180087544E-04
(PID.TID 0000.0001) %MON ke_vol                       =   1.3398024453628E+18
(PID.TID 0000.0001) %MON vort_r_min                   =  -1.2265606464279E-06
(PID.TID 0000.0001) %MON vort_r_max                   =   1.2277144850759E-06
(PID.TID 0000.0001) %MON vort_a_mean                  =  -2.0493733748264E-05
(PID.TID 0000.0001) %MON vort_a_sd                    =   7.5053945672131E-05
(PID.TID 0000.0001) %MON vort_p_mean                  =  -2.4715567088978E-05
(PID.TID 0000.0001) %MON vort_p_sd                    =   1.2775774016262E-04
(PID.TID 0000.0001) %MON surfExpan_theta_mean         =   4.9317297998445E-08
(PID.TID 0000.0001) %MON surfExpan_salt_mean          =   1.5130146820157E-08
(PID.TID 0000.0001) // =======================================================
(PID.TID 0000.0001) // End MONITOR dynamic field statistics
(PID.TID 0000.0001) // =======================================================
 cg2d: Sum(rhs),rhsMax =  -3.46185302646518E-10  4.23883118375421E+00
(PID.TID 0000.0001)                    cg2d_init_res =    1.82629977680534E-01
(PID.TID 0000.0001)                       cg2d_iters =    62
(PID.TID 0000.0001)                         cg2d_res =    5.28614543692629E-07
(PID.TID 0000.0001) // =======================================================
(PID.TID 0000.0001) // Begin MONITOR dynamic field statistics
(PID.TID 0000.0001) // =======================================================
(PID.TID 0000.0001) %MON time_tsnumber                =                 72010
(PID.TID 0000.0001) %MON time_secondsf                =   6.2216640000000E+09
(PID.TID 0000.0001) %MON dynstat_eta_max              =   9.0461494471036E-01
(PID.TID 0000.0001) %MON dynstat_eta_min              =  -1.6110797011325E+00
(PID.TID 0000.0001) %MON dynstat_eta_mean             =   5.1475492488971E-13
(PID.TID 0000.0001) %MON dynstat_eta_sd               =   5.9747133236939E-01
(PID.TID 0000.0001) %MON dynstat_eta_del2             =   1.1234141583105E-02
(PID.TID 0000.0001) %MON dynstat_uvel_max             =   1.8625920147975E-01
(PID.TID 0000.0001) %MON dynstat_uvel_min             =  -2.8515078104219E-01
(PID.TID 0000.0001) %MON dynstat_uvel_mean            =  -4.8769158920304E-04
(PID.TID 0000.0001) %MON dynstat_uvel_sd              =   1.2021294140900E-02
(PID.TID 0000.0001) %MON dynstat_uvel_del2            =   1.5692808122311E-03
(PID.TID 0000.0001) %MON dynstat_vvel_max             =   1.7454612585823E-01
(PID.TID 0000.0001) %MON dynstat_vvel_min             =  -2.2452880574678E-01
(PID.TID 0000.0001) %MON dynstat_vvel_mean            =  -4.0345173647902E-04
(PID.TID 0000.0001) %MON dynstat_vvel_sd              =   1.2670058061594E-02
(PID.TID 0000.0001) %MON dynstat_vvel_del2            =   1.5914395790693E-03
(PID.TID 0000.0001) %MON dynstat_wvel_max             =   1.0640345365640E-04
(PID.TID 0000.0001) %MON dynstat_wvel_min             =  -2.0579824776481E-04
(PID.TID 0000.0001) %MON dynstat_wvel_mean            =   8.4230299708885E-11
(PID.TID 0000.0001) %MON dynstat_wvel_sd              =   3.8965506539853E-06
(PID.TID 0000.0001) %MON dynstat_wvel_del2            =   8.5844940353543E-07
(PID.TID 0000.0001) %MON dynstat_theta_max            =   3.1055923837759E+01
(PID.TID 0000.0001) %MON dynstat_theta_min            =  -2.1678262380061E+00
(PID.TID 0000.0001) %MON dynstat_theta_mean           =   3.9283410732184E+00
(PID.TID 0000.0001) %MON dynstat_theta_sd             =   4.5741630696530E+00
(PID.TID 0000.0001) %MON dynstat_theta_del2           =   8.7971020474937E-02
(PID.TID 0000.0001) %MON dynstat_salt_max             =   4.1413491082265E+01
(PID.TID 0000.0001) %MON dynstat_salt_min             =   1.8391256394152E+01
(PID.TID 0000.0001) %MON dynstat_salt_mean            =   3.4775236131200E+01
(PID.TID 0000.0001) %MON dynstat_salt_sd              =   5.3476275836107E-01
(PID.TID 0000.0001) %MON dynstat_salt_del2            =   1.8956855399523E-02
(PID.TID 0000.0001) %MON advcfl_uvel_max              =   8.0874170439339E-02
(PID.TID 0000.0001) %MON advcfl_vvel_max              =   7.6082197218395E-02
(PID.TID 0000.0001) %MON advcfl_wvel_max              =   6.7097994742942E-02
(PID.TID 0000.0001) %MON advcfl_W_hf_max              =   1.1467902849185E-01
(PID.TID 0000.0001) %MON pe_b_mean                    =   4.7555266170916E-04
(PID.TID 0000.0001) %MON ke_max                       =   3.9583048951282E-02
(PID.TID 0000.0001) %MON ke_mean                      =   1.4105023190677E-04
(PID.TID 0000.0001) %MON ke_vol                       =   1.3398024453628E+18
(PID.TID 0000.0001) %MON vort_r_min                   =  -1.2321282337014E-06
(PID.TID 0000.0001) %MON vort_r_max                   =   1.2300849945096E-06
(PID.TID 0000.0001) %MON vort_a_mean                  =  -2.0493733748263E-05
(PID.TID 0000.0001) %MON vort_a_sd                    =   7.5053945582297E-05
(PID.TID 0000.0001) %MON vort_p_mean                  =  -2.4715567347130E-05
(PID.TID 0000.0001) %MON vort_p_sd                    =   1.2775773917570E-04
(PID.TID 0000.0001) %MON surfExpan_theta_mean         =   4.9373618388391E-08
(PID.TID 0000.0001) %MON surfExpan_salt_mean          =   1.5198517445782E-08
(PID.TID 0000.0001) // =======================================================
(PID.TID 0000.0001) // End MONITOR dynamic field statistics
(PID.TID 0000.0001) // =======================================================
 cg2d: Sum(rhs),rhsMax =  -3.46131789896731E-10  4.23761362892512E+00
(PID.TID 0000.0001)                    cg2d_init_res =    1.86781502657308E-01
(PID.TID 0000.0001)                       cg2d_iters =    62
(PID.TID 0000.0001)                         cg2d_res =    5.37064902517682E-07
(PID.TID 0000.0001) // =======================================================
(PID.TID 0000.0001) // Begin MONITOR dynamic field statistics
(PID.TID 0000.0001) // =======================================================
(PID.TID 0000.0001) %MON time_tsnumber                =                 72011
(PID.TID 0000.0001) %MON time_secondsf                =   6.2217504000000E+09
(PID.TID 0000.0001) %MON dynstat_eta_max              =   9.0325162352071E-01
(PID.TID 0000.0001) %MON dynstat_eta_min              =  -1.6105650485176E+00
(PID.TID 0000.0001) %MON dynstat_eta_mean             =   5.1476553221030E-13
(PID.TID 0000.0001) %MON dynstat_eta_sd               =   5.9737544842030E-01
(PID.TID 0000.0001) %MON dynstat_eta_del2             =   1.1234698925323E-02
(PID.TID 0000.0001) %MON dynstat_uvel_max             =   1.8601034374749E-01
(PID.TID 0000.0001) %MON dynstat_uvel_min             =  -2.8474931807464E-01
(PID.TID 0000.0001) %MON dynstat_uvel_mean            =  -4.8711696493856E-04
(PID.TID 0000.0001) %MON dynstat_uvel_sd              =   1.2021019672841E-02
(PID.TID 0000.0001) %MON dynstat_uvel_del2            =   1.5688692552930E-03
(PID.TID 0000.0001) %MON dynstat_vvel_max             =   1.7451810827519E-01
(PID.TID 0000.0001) %MON dynstat_vvel_min             =  -2.2442804592889E-01
(PID.TID 0000.0001) %MON dynstat_vvel_mean            =  -4.0308608338949E-04
(PID.TID 0000.0001) %MON dynstat_vvel_sd              =   1.2670788575477E-02
(PID.TID 0000.0001) %MON dynstat_vvel_del2            =   1.5910637201005E-03
(PID.TID 0000.0001) %MON dynstat_wvel_max             =   1.0688903246134E-04
(PID.TID 0000.0001) %MON dynstat_wvel_min             =  -2.0557427025714E-04
(PID.TID 0000.0001) %MON dynstat_wvel_mean            =   7.5143114839468E-11
(PID.TID 0000.0001) %MON dynstat_wvel_sd              =   3.8936183869678E-06
(PID.TID 0000.0001) %MON dynstat_wvel_del2            =   8.5798608557788E-07
(PID.TID 0000.0001) %MON dynstat_theta_max            =   3.1066700369084E+01
(PID.TID 0000.0001) %MON dynstat_theta_min            =  -2.1968410958265E+00
(PID.TID 0000.0001) %MON dynstat_theta_mean           =   3.9283995486124E+00
(PID.TID 0000.0001) %MON dynstat_theta_sd             =   4.5742416270357E+00
(PID.TID 0000.0001) %MON dynstat_theta_del2           =   8.7969622776170E-02
(PID.TID 0000.0001) %MON dynstat_salt_max             =   4.1410443452414E+01
(PID.TID 0000.0001) %MON dynstat_salt_min             =   1.8391606235630E+01
(PID.TID 0000.0001) %MON dynstat_salt_mean            =   3.4775236694562E+01
(PID.TID 0000.0001) %MON dynstat_salt_sd              =   5.3475961154889E-01
(PID.TID 0000.0001) %MON dynstat_salt_del2            =   1.8956774764747E-02
(PID.TID 0000.0001) %MON advcfl_uvel_max              =   8.0760307926517E-02
(PID.TID 0000.0001) %MON advcfl_vvel_max              =   7.6069984748667E-02
(PID.TID 0000.0001) %MON advcfl_wvel_max              =   6.7024969623459E-02
(PID.TID 0000.0001) %MON advcfl_W_hf_max              =   1.1354300729587E-01
(PID.TID 0000.0001) %MON pe_b_mean                    =   4.7540003778934E-04
(PID.TID 0000.0001) %MON ke_max                       =   3.9450301935186E-02
(PID.TID 0000.0001) %MON ke_mean                      =   1.4105540607179E-04
(PID.TID 0000.0001) %MON ke_vol                       =   1.3398024453628E+18
(PID.TID 0000.0001) %MON vort_r_min                   =  -1.2377552644630E-06
(PID.TID 0000.0001) %MON vort_r_max                   =   1.2324302259597E-06
(PID.TID 0000.0001) %MON vort_a_mean                  =  -2.0493733748264E-05
(PID.TID 0000.0001) %MON vort_a_sd                    =   7.5053945495815E-05
(PID.TID 0000.0001) %MON vort_p_mean                  =  -2.4715567597885E-05
(PID.TID 0000.0001) %MON vort_p_sd                    =   1.2775773820236E-04
(PID.TID 0000.0001) %MON surfExpan_theta_mean         =   4.9422504044394E-08
(PID.TID 0000.0001) %MON surfExpan_salt_mean          =   1.5259942343069E-08
(PID.TID 0000.0001) // =======================================================
(PID.TID 0000.0001) // End MONITOR dynamic field statistics
(PID.TID 0000.0001) // =======================================================
 cg2d: Sum(rhs),rhsMax =  -3.45960038394821E-10  4.23653758637937E+00
(PID.TID 0000.0001)                    cg2d_init_res =    1.58177220222348E-01
(PID.TID 0000.0001)                       cg2d_iters =    62
(PID.TID 0000.0001)                         cg2d_res =    4.82874597527962E-07
(PID.TID 0000.0001) // =======================================================
(PID.TID 0000.0001) // Begin MONITOR dynamic field statistics
(PID.TID 0000.0001) // =======================================================
(PID.TID 0000.0001) %MON time_tsnumber                =                 72012
(PID.TID 0000.0001) %MON time_secondsf                =   6.2218368000000E+09
(PID.TID 0000.0001) %MON dynstat_eta_max              =   9.0192647465119E-01
(PID.TID 0000.0001) %MON dynstat_eta_min              =  -1.6100415981445E+00
(PID.TID 0000.0001) %MON dynstat_eta_mean             =   5.1475893701983E-13
(PID.TID 0000.0001) %MON dynstat_eta_sd               =   5.9728104731072E-01
(PID.TID 0000.0001) %MON dynstat_eta_del2             =   1.1235595751535E-02
(PID.TID 0000.0001) %MON dynstat_uvel_max             =   1.8570494398042E-01
(PID.TID 0000.0001) %MON dynstat_uvel_min             =  -2.8433226741251E-01
(PID.TID 0000.0001) %MON dynstat_uvel_mean            =  -4.8652850425320E-04
(PID.TID 0000.0001) %MON dynstat_uvel_sd              =   1.2020955404180E-02
(PID.TID 0000.0001) %MON dynstat_uvel_del2            =   1.5683820004682E-03
(PID.TID 0000.0001) %MON dynstat_vvel_max             =   1.7445397889672E-01
(PID.TID 0000.0001) %MON dynstat_vvel_min             =  -2.2432314048761E-01
(PID.TID 0000.0001) %MON dynstat_vvel_mean            =  -4.0270922523973E-04
(PID.TID 0000.0001) %MON dynstat_vvel_sd              =   1.2671048749318E-02
(PID.TID 0000.0001) %MON dynstat_vvel_del2            =   1.5907816725980E-03
(PID.TID 0000.0001) %MON dynstat_wvel_max             =   1.0738296982363E-04
(PID.TID 0000.0001) %MON dynstat_wvel_min             =  -2.0530349884746E-04
(PID.TID 0000.0001) %MON dynstat_wvel_mean            =   6.4702914738682E-11
(PID.TID 0000.0001) %MON dynstat_wvel_sd              =   3.8908443409758E-06
(PID.TID 0000.0001) %MON dynstat_wvel_del2            =   8.5787792807483E-07
(PID.TID 0000.0001) %MON dynstat_theta_max            =   3.1077090757110E+01
(PID.TID 0000.0001) %MON dynstat_theta_min            =  -2.2258751576450E+00
(PID.TID 0000.0001) %MON dynstat_theta_mean           =   3.9284580972335E+00
(PID.TID 0000.0001) %MON dynstat_theta_sd             =   4.5743253887066E+00
(PID.TID 0000.0001) %MON dynstat_theta_del2           =   8.8006756288803E-02
(PID.TID 0000.0001) %MON dynstat_salt_max             =   4.1407402375792E+01
(PID.TID 0000.0001) %MON dynstat_salt_min             =   1.8391961857095E+01
(PID.TID 0000.0001) %MON dynstat_salt_mean            =   3.4775237276182E+01
(PID.TID 0000.0001) %MON dynstat_salt_sd              =   5.3475550926374E-01
(PID.TID 0000.0001) %MON dynstat_salt_del2            =   1.8960155175146E-02
(PID.TID 0000.0001) %MON advcfl_uvel_max              =   8.0642024447834E-02
(PID.TID 0000.0001) %MON advcfl_vvel_max              =   7.6042031656059E-02
(PID.TID 0000.0001) %MON advcfl_wvel_max              =   6.6936687926115E-02
(PID.TID 0000.0001) %MON advcfl_W_hf_max              =   1.1289837127562E-01
(PID.TID 0000.0001) %MON pe_b_mean                    =   4.7524979811945E-04
(PID.TID 0000.0001) %MON ke_max                       =   3.9314591783745E-02
(PID.TID 0000.0001) %MON ke_mean                      =   1.4105736351269E-04
(PID.TID 0000.0001) %MON ke_vol                       =   1.3398024453628E+18
(PID.TID 0000.0001) %MON vort_r_min                   =  -1.2434117894305E-06
(PID.TID 0000.0001) %MON vort_r_max                   =   1.2347323535276E-06
(PID.TID 0000.0001) %MON vort_a_mean                  =  -2.0493733748263E-05
(PID.TID 0000.0001) %MON vort_a_sd                    =   7.5053945411373E-05
(PID.TID 0000.0001) %MON vort_p_mean                  =  -2.4715567843312E-05
(PID.TID 0000.0001) %MON vort_p_sd                    =   1.2775773722749E-04
(PID.TID 0000.0001) %MON surfExpan_theta_mean         =   4.9426839600581E-08
(PID.TID 0000.0001) %MON surfExpan_salt_mean          =   1.5308674952011E-08
(PID.TID 0000.0001) // =======================================================
(PID.TID 0000.0001) // End MONITOR dynamic field statistics
(PID.TID 0000.0001) // =======================================================
 cg2d: Sum(rhs),rhsMax =  -3.45957762437621E-10  4.23557857857251E+00
(PID.TID 0000.0001)                    cg2d_init_res =    1.55953730652574E-01
(PID.TID 0000.0001)                       cg2d_iters =    62
(PID.TID 0000.0001)                         cg2d_res =    4.82615945691257E-07
(PID.TID 0000.0001) // =======================================================
(PID.TID 0000.0001) // Begin MONITOR dynamic field statistics
(PID.TID 0000.0001) // =======================================================
(PID.TID 0000.0001) %MON time_tsnumber                =                 72013
(PID.TID 0000.0001) %MON time_secondsf                =   6.2219232000000E+09
(PID.TID 0000.0001) %MON dynstat_eta_max              =   9.0063775011935E-01
(PID.TID 0000.0001) %MON dynstat_eta_min              =  -1.6095098905954E+00
(PID.TID 0000.0001) %MON dynstat_eta_mean             =   5.1472794700478E-13
(PID.TID 0000.0001) %MON dynstat_eta_sd               =   5.9718945522189E-01
(PID.TID 0000.0001) %MON dynstat_eta_del2             =   1.1237390083767E-02
(PID.TID 0000.0001) %MON dynstat_uvel_max             =   1.8534780492409E-01
(PID.TID 0000.0001) %MON dynstat_uvel_min             =  -2.8389944977337E-01
(PID.TID 0000.0001) %MON dynstat_uvel_mean            =  -4.8592332084677E-04
(PID.TID 0000.0001) %MON dynstat_uvel_sd              =   1.2021097741176E-02
(PID.TID 0000.0001) %MON dynstat_uvel_del2            =   1.5678672056445E-03
(PID.TID 0000.0001) %MON dynstat_vvel_max             =   1.7435347705409E-01
(PID.TID 0000.0001) %MON dynstat_vvel_min             =  -2.2421449518131E-01
(PID.TID 0000.0001) %MON dynstat_vvel_mean            =  -4.0232308873847E-04
(PID.TID 0000.0001) %MON dynstat_vvel_sd              =   1.2670846458696E-02
(PID.TID 0000.0001) %MON dynstat_vvel_del2            =   1.5905708253746E-03
(PID.TID 0000.0001) %MON dynstat_wvel_max             =   1.0786699905351E-04
(PID.TID 0000.0001) %MON dynstat_wvel_min             =  -2.0498613560552E-04
(PID.TID 0000.0001) %MON dynstat_wvel_mean            =   5.6418939967074E-11
(PID.TID 0000.0001) %MON dynstat_wvel_sd              =   3.8881981669278E-06
(PID.TID 0000.0001) %MON dynstat_wvel_del2            =   8.5779437596303E-07
(PID.TID 0000.0001) %MON dynstat_theta_max            =   3.1087105417589E+01
(PID.TID 0000.0001) %MON dynstat_theta_min            =  -2.2548957982676E+00
(PID.TID 0000.0001) %MON dynstat_theta_mean           =   3.9285168046196E+00
(PID.TID 0000.0001) %MON dynstat_theta_sd             =   4.5744154401276E+00
(PID.TID 0000.0001) %MON dynstat_theta_del2           =   8.8012975396830E-02
(PID.TID 0000.0001) %MON dynstat_salt_max             =   4.1404367562554E+01
(PID.TID 0000.0001) %MON dynstat_salt_min             =   1.8392323233388E+01
(PID.TID 0000.0001) %MON dynstat_salt_mean            =   3.4775237878404E+01
(PID.TID 0000.0001) %MON dynstat_salt_sd              =   5.3475151028911E-01
(PID.TID 0000.0001) %MON dynstat_salt_del2            =   1.8956403035303E-02
(PID.TID 0000.0001) %MON advcfl_uvel_max              =   8.0519269155393E-02
(PID.TID 0000.0001) %MON advcfl_vvel_max              =   7.5998224318749E-02
(PID.TID 0000.0001) %MON advcfl_wvel_max              =   6.6833215533270E-02
(PID.TID 0000.0001) %MON advcfl_W_hf_max              =   1.1273988675916E-01
(PID.TID 0000.0001) %MON pe_b_mean                    =   4.7510405170958E-04
(PID.TID 0000.0001) %MON ke_max                       =   3.9175940635034E-02
(PID.TID 0000.0001) %MON ke_mean                      =   1.4105615594101E-04
(PID.TID 0000.0001) %MON ke_vol                       =   1.3398024453628E+18
(PID.TID 0000.0001) %MON vort_r_min                   =  -1.2490689406151E-06
(PID.TID 0000.0001) %MON vort_r_max                   =   1.2369308409171E-06
(PID.TID 0000.0001) %MON vort_a_mean                  =  -2.0493733748264E-05
(PID.TID 0000.0001) %MON vort_a_sd                    =   7.5053945329367E-05
(PID.TID 0000.0001) %MON vort_p_mean                  =  -2.4715568086170E-05
(PID.TID 0000.0001) %MON vort_p_sd                    =   1.2775773624703E-04
(PID.TID 0000.0001) %MON surfExpan_theta_mean         =   4.9463329651511E-08
(PID.TID 0000.0001) %MON surfExpan_salt_mean          =   1.5350228049659E-08
(PID.TID 0000.0001) // =======================================================
(PID.TID 0000.0001) // End MONITOR dynamic field statistics
(PID.TID 0000.0001) // =======================================================
 cg2d: Sum(rhs),rhsMax =  -3.45881712160434E-10  4.23470964376108E+00
(PID.TID 0000.0001)                    cg2d_init_res =    1.57763093749216E-01
(PID.TID 0000.0001)                       cg2d_iters =    62
(PID.TID 0000.0001)                         cg2d_res =    4.96845610535463E-07
(PID.TID 0000.0001) // =======================================================
(PID.TID 0000.0001) // Begin MONITOR dynamic field statistics
(PID.TID 0000.0001) // =======================================================
(PID.TID 0000.0001) %MON time_tsnumber                =                 72014
(PID.TID 0000.0001) %MON time_secondsf                =   6.2220096000000E+09
(PID.TID 0000.0001) %MON dynstat_eta_max              =   8.9938394656628E-01
(PID.TID 0000.0001) %MON dynstat_eta_min              =  -1.6089707072107E+00
(PID.TID 0000.0001) %MON dynstat_eta_mean             =   5.1476838364056E-13
(PID.TID 0000.0001) %MON dynstat_eta_sd               =   5.9710110989891E-01
(PID.TID 0000.0001) %MON dynstat_eta_del2             =   1.1239698955628E-02
(PID.TID 0000.0001) %MON dynstat_uvel_max             =   1.8494436871637E-01
(PID.TID 0000.0001) %MON dynstat_uvel_min             =  -2.8345068314444E-01
(PID.TID 0000.0001) %MON dynstat_uvel_mean            =  -4.8530459058474E-04
(PID.TID 0000.0001) %MON dynstat_uvel_sd              =   1.2021430536143E-02
(PID.TID 0000.0001) %MON dynstat_uvel_del2            =   1.5675251877362E-03
(PID.TID 0000.0001) %MON dynstat_vvel_max             =   1.7421665631273E-01
(PID.TID 0000.0001) %MON dynstat_vvel_min             =  -2.2410249637326E-01
(PID.TID 0000.0001) %MON dynstat_vvel_mean            =  -4.0192663770671E-04
(PID.TID 0000.0001) %MON dynstat_vvel_sd              =   1.2670204700424E-02
(PID.TID 0000.0001) %MON dynstat_vvel_del2            =   1.5904324322727E-03
(PID.TID 0000.0001) %MON dynstat_wvel_max             =   1.0833365028748E-04
(PID.TID 0000.0001) %MON dynstat_wvel_min             =  -2.0462745284445E-04
(PID.TID 0000.0001) %MON dynstat_wvel_mean            =   4.7999505052493E-11
(PID.TID 0000.0001) %MON dynstat_wvel_sd              =   3.8856666483633E-06
(PID.TID 0000.0001) %MON dynstat_wvel_del2            =   8.5771568743406E-07
(PID.TID 0000.0001) %MON dynstat_theta_max            =   3.1096753921182E+01
(PID.TID 0000.0001) %MON dynstat_theta_min            =  -2.2838881713617E+00
(PID.TID 0000.0001) %MON dynstat_theta_mean           =   3.9285756298697E+00
(PID.TID 0000.0001) %MON dynstat_theta_sd             =   4.5745107137890E+00
(PID.TID 0000.0001) %MON dynstat_theta_del2           =   8.8014040894775E-02
(PID.TID 0000.0001) %MON dynstat_salt_max             =   4.1401339001436E+01
(PID.TID 0000.0001) %MON dynstat_salt_min             =   1.8392690360237E+01
(PID.TID 0000.0001) %MON dynstat_salt_mean            =   3.4775238500234E+01
(PID.TID 0000.0001) %MON dynstat_salt_sd              =   5.3474677578395E-01
(PID.TID 0000.0001) %MON dynstat_salt_del2            =   1.8947149507977E-02
(PID.TID 0000.0001) %MON advcfl_uvel_max              =   8.0391990426914E-02
(PID.TID 0000.0001) %MON advcfl_vvel_max              =   7.5938586085151E-02
(PID.TID 0000.0001) %MON advcfl_wvel_max              =   6.6716271417965E-02
(PID.TID 0000.0001) %MON advcfl_W_hf_max              =   1.1251863144654E-01
(PID.TID 0000.0001) %MON pe_b_mean                    =   4.7496349291078E-04
(PID.TID 0000.0001) %MON ke_max                       =   3.9034361174875E-02
(PID.TID 0000.0001) %MON ke_mean                      =   1.4105187654378E-04
(PID.TID 0000.0001) %MON ke_vol                       =   1.3398024453628E+18
(PID.TID 0000.0001) %MON vort_r_min                   =  -1.2546991355455E-06
(PID.TID 0000.0001) %MON vort_r_max                   =   1.2390157001088E-06
(PID.TID 0000.0001) %MON vort_a_mean                  =  -2.0493733748264E-05
(PID.TID 0000.0001) %MON vort_a_sd                    =   7.5053945249740E-05
(PID.TID 0000.0001) %MON vort_p_mean                  =  -2.4715568322139E-05
(PID.TID 0000.0001) %MON vort_p_sd                    =   1.2775773521489E-04
(PID.TID 0000.0001) %MON surfExpan_theta_mean         =   4.9494638599326E-08
(PID.TID 0000.0001) %MON surfExpan_salt_mean          =   1.5378570856650E-08
(PID.TID 0000.0001) // =======================================================
(PID.TID 0000.0001) // End MONITOR dynamic field statistics
(PID.TID 0000.0001) // =======================================================
 cg2d: Sum(rhs),rhsMax =  -3.45977579918610E-10  4.23390176959270E+00
(PID.TID 0000.0001)                    cg2d_init_res =    1.55686762902566E-01
(PID.TID 0000.0001)                       cg2d_iters =    62
(PID.TID 0000.0001)                         cg2d_res =    4.88684870794602E-07
(PID.TID 0000.0001) // =======================================================
(PID.TID 0000.0001) // Begin MONITOR dynamic field statistics
(PID.TID 0000.0001) // =======================================================
(PID.TID 0000.0001) %MON time_tsnumber                =                 72015
(PID.TID 0000.0001) %MON time_secondsf                =   6.2220960000000E+09
(PID.TID 0000.0001) %MON dynstat_eta_max              =   8.9815377060913E-01
(PID.TID 0000.0001) %MON dynstat_eta_min              =  -1.6084250050810E+00
(PID.TID 0000.0001) %MON dynstat_eta_mean             =   5.1473233485277E-13
(PID.TID 0000.0001) %MON dynstat_eta_sd               =   5.9701645085546E-01
(PID.TID 0000.0001) %MON dynstat_eta_del2             =   1.1242311535153E-02
(PID.TID 0000.0001) %MON dynstat_uvel_max             =   1.8450062179603E-01
(PID.TID 0000.0001) %MON dynstat_uvel_min             =  -2.8298579741443E-01
(PID.TID 0000.0001) %MON dynstat_uvel_mean            =  -4.8467631409643E-04
(PID.TID 0000.0001) %MON dynstat_uvel_sd              =   1.2021925067175E-02
(PID.TID 0000.0001) %MON dynstat_uvel_del2            =   1.5673854085594E-03
(PID.TID 0000.0001) %MON dynstat_vvel_max             =   1.7404393347457E-01
(PID.TID 0000.0001) %MON dynstat_vvel_min             =  -2.2398750814791E-01
(PID.TID 0000.0001) %MON dynstat_vvel_mean            =  -4.0151866547165E-04
(PID.TID 0000.0001) %MON dynstat_vvel_sd              =   1.2669160219915E-02
(PID.TID 0000.0001) %MON dynstat_vvel_del2            =   1.5903335482078E-03
(PID.TID 0000.0001) %MON dynstat_wvel_max             =   1.0878428089897E-04
(PID.TID 0000.0001) %MON dynstat_wvel_min             =  -2.0423599568631E-04
(PID.TID 0000.0001) %MON dynstat_wvel_mean            =   4.0913510971527E-11
(PID.TID 0000.0001) %MON dynstat_wvel_sd              =   3.8832347109368E-06
(PID.TID 0000.0001) %MON dynstat_wvel_del2            =   8.5767591323402E-07
(PID.TID 0000.0001) %MON dynstat_theta_max            =   3.1106045004028E+01
(PID.TID 0000.0001) %MON dynstat_theta_min            =  -2.3128187840653E+00
(PID.TID 0000.0001) %MON dynstat_theta_mean           =   3.9286345951699E+00
(PID.TID 0000.0001) %MON dynstat_theta_sd             =   4.5746116762522E+00
(PID.TID 0000.0001) %MON dynstat_theta_del2           =   8.7977458582758E-02
(PID.TID 0000.0001) %MON dynstat_salt_max             =   4.1398316843095E+01
(PID.TID 0000.0001) %MON dynstat_salt_min             =   1.8393063255149E+01
(PID.TID 0000.0001) %MON dynstat_salt_mean            =   3.4775239142744E+01
(PID.TID 0000.0001) %MON dynstat_salt_sd              =   5.3474192229363E-01
(PID.TID 0000.0001) %MON dynstat_salt_del2            =   1.8931939789406E-02
(PID.TID 0000.0001) %MON advcfl_uvel_max              =   8.0260140015613E-02
(PID.TID 0000.0001) %MON advcfl_vvel_max              =   7.5863298633350E-02
(PID.TID 0000.0001) %MON advcfl_wvel_max              =   6.6588641612442E-02
(PID.TID 0000.0001) %MON advcfl_W_hf_max              =   1.1223517274150E-01
(PID.TID 0000.0001) %MON pe_b_mean                    =   4.7482881855240E-04
(PID.TID 0000.0001) %MON ke_max                       =   3.8889860928977E-02
(PID.TID 0000.0001) %MON ke_mean                      =   1.4104464211580E-04
(PID.TID 0000.0001) %MON ke_vol                       =   1.3398024453628E+18
(PID.TID 0000.0001) %MON vort_r_min                   =  -1.2602762962037E-06
(PID.TID 0000.0001) %MON vort_r_max                   =   1.2409274518239E-06
(PID.TID 0000.0001) %MON vort_a_mean                  =  -2.0493733748264E-05
(PID.TID 0000.0001) %MON vort_a_sd                    =   7.5053945171875E-05
(PID.TID 0000.0001) %MON vort_p_mean                  =  -2.4715568551405E-05
(PID.TID 0000.0001) %MON vort_p_sd                    =   1.2775773411024E-04
(PID.TID 0000.0001) %MON surfExpan_theta_mean         =   4.9543180983982E-08
(PID.TID 0000.0001) %MON surfExpan_salt_mean          =   1.5395266548316E-08
(PID.TID 0000.0001) // =======================================================
(PID.TID 0000.0001) // End MONITOR dynamic field statistics
(PID.TID 0000.0001) // =======================================================
 S/R EXTERNAL_FIELDS_LOAD: Reading new data  6.222096E+09 72015
(PID.TID 0000.0001)  MDSREADFIELD: opening global file: trenberth_taux.bin
(PID.TID 0000.0001)  MDSREADFIELD: opening global file: trenberth_taux.bin
(PID.TID 0000.0001)  MDSREADFIELD: opening global file: trenberth_tauy.bin
(PID.TID 0000.0001)  MDSREADFIELD: opening global file: trenberth_tauy.bin
(PID.TID 0000.0001)  MDSREADFIELD: opening global file: shiQnet_cs32.bin
(PID.TID 0000.0001)  MDSREADFIELD: opening global file: shiQnet_cs32.bin
(PID.TID 0000.0001)  MDSREADFIELD: opening global file: shiEmPR_cs32.bin
(PID.TID 0000.0001)  MDSREADFIELD: opening global file: shiEmPR_cs32.bin
(PID.TID 0000.0001)  MDSREADFIELD: opening global file: lev_surfT_cs_12m.bin
(PID.TID 0000.0001)  MDSREADFIELD: opening global file: lev_surfT_cs_12m.bin
(PID.TID 0000.0001)  MDSREADFIELD: opening global file: lev_surfS_cs_12m.bin
(PID.TID 0000.0001)  MDSREADFIELD: opening global file: lev_surfS_cs_12m.bin
 cg2d: Sum(rhs),rhsMax =  -3.46005779583436E-10  4.23312442287560E+00
(PID.TID 0000.0001)                    cg2d_init_res =    1.57570570617082E-01
(PID.TID 0000.0001)                       cg2d_iters =    62
(PID.TID 0000.0001)                         cg2d_res =    4.88492712601007E-07
(PID.TID 0000.0001) // =======================================================
(PID.TID 0000.0001) // Begin MONITOR dynamic field statistics
(PID.TID 0000.0001) // =======================================================
(PID.TID 0000.0001) %MON time_tsnumber                =                 72016
(PID.TID 0000.0001) %MON time_secondsf                =   6.2221824000000E+09
(PID.TID 0000.0001) %MON dynstat_eta_max              =   8.9695151870951E-01
(PID.TID 0000.0001) %MON dynstat_eta_min              =  -1.6078739518055E+00
(PID.TID 0000.0001) %MON dynstat_eta_mean             =   5.1471277739578E-13
(PID.TID 0000.0001) %MON dynstat_eta_sd               =   5.9693600869903E-01
(PID.TID 0000.0001) %MON dynstat_eta_del2             =   1.1245287833145E-02
(PID.TID 0000.0001) %MON dynstat_uvel_max             =   1.8402300161240E-01
(PID.TID 0000.0001) %MON dynstat_uvel_min             =  -2.8250464588809E-01
(PID.TID 0000.0001) %MON dynstat_uvel_mean            =  -4.8404013497301E-04
(PID.TID 0000.0001) %MON dynstat_uvel_sd              =   1.2022543412301E-02
(PID.TID 0000.0001) %MON dynstat_uvel_del2            =   1.5673393244531E-03
(PID.TID 0000.0001) %MON dynstat_vvel_max             =   1.7383620490996E-01
(PID.TID 0000.0001) %MON dynstat_vvel_min             =  -2.2386987227584E-01
(PID.TID 0000.0001) %MON dynstat_vvel_mean            =  -4.0109887618620E-04
(PID.TID 0000.0001) %MON dynstat_vvel_sd              =   1.2667760177405E-02
(PID.TID 0000.0001) %MON dynstat_vvel_del2            =   1.5901714317109E-03
(PID.TID 0000.0001) %MON dynstat_wvel_max             =   1.0920236260021E-04
(PID.TID 0000.0001) %MON dynstat_wvel_min             =  -2.0381355726637E-04
(PID.TID 0000.0001) %MON dynstat_wvel_mean            =   3.4175726441740E-11
(PID.TID 0000.0001) %MON dynstat_wvel_sd              =   3.8808285030050E-06
(PID.TID 0000.0001) %MON dynstat_wvel_del2            =   8.5764487616884E-07
(PID.TID 0000.0001) %MON dynstat_theta_max            =   3.1114986579810E+01
(PID.TID 0000.0001) %MON dynstat_theta_min            =  -2.3416833724184E+00
(PID.TID 0000.0001) %MON dynstat_theta_mean           =   3.9286936151920E+00
(PID.TID 0000.0001) %MON dynstat_theta_sd             =   4.5747160658065E+00
(PID.TID 0000.0001) %MON dynstat_theta_del2           =   8.7972486555386E-02
(PID.TID 0000.0001) %MON dynstat_salt_max             =   4.1395301444153E+01
(PID.TID 0000.0001) %MON dynstat_salt_min             =   1.8393441958678E+01
(PID.TID 0000.0001) %MON dynstat_salt_mean            =   3.4775239804356E+01
(PID.TID 0000.0001) %MON dynstat_salt_sd              =   5.3473541393818E-01
(PID.TID 0000.0001) %MON dynstat_salt_del2            =   1.8933508885342E-02
(PID.TID 0000.0001) %MON advcfl_uvel_max              =   8.0123676315930E-02
(PID.TID 0000.0001) %MON advcfl_vvel_max              =   7.5772752678562E-02
(PID.TID 0000.0001) %MON advcfl_wvel_max              =   6.6450910746469E-02
(PID.TID 0000.0001) %MON advcfl_W_hf_max              =   1.1189014756793E-01
(PID.TID 0000.0001) %MON pe_b_mean                    =   4.7470087004862E-04
(PID.TID 0000.0001) %MON ke_max                       =   3.8742445623072E-02
(PID.TID 0000.0001) %MON ke_mean                      =   1.4103458990939E-04
(PID.TID 0000.0001) %MON ke_vol                       =   1.3398024453628E+18
(PID.TID 0000.0001) %MON vort_r_min                   =  -1.2657760206123E-06
(PID.TID 0000.0001) %MON vort_r_max                   =   1.2426539595995E-06
(PID.TID 0000.0001) %MON vort_a_mean                  =  -2.0493733748263E-05
(PID.TID 0000.0001) %MON vort_a_sd                    =   7.5053945095393E-05
(PID.TID 0000.0001) %MON vort_p_mean                  =  -2.4715568775542E-05
(PID.TID 0000.0001) %MON vort_p_sd                    =   1.2775773291089E-04
(PID.TID 0000.0001) %MON surfExpan_theta_mean         =   4.9574113699033E-08
(PID.TID 0000.0001) %MON surfExpan_salt_mean          =   1.5392708961297E-08
(PID.TID 0000.0001) // =======================================================
(PID.TID 0000.0001) // End MONITOR dynamic field statistics
(PID.TID 0000.0001) // =======================================================
 cg2d: Sum(rhs),rhsMax =  -3.46285222718734E-10  4.23225142735149E+00
(PID.TID 0000.0001)                    cg2d_init_res =    1.64201916820879E-01
(PID.TID 0000.0001)                       cg2d_iters =    62
(PID.TID 0000.0001)                         cg2d_res =    4.95706877320762E-07
(PID.TID 0000.0001) // =======================================================
(PID.TID 0000.0001) // Begin MONITOR dynamic field statistics
(PID.TID 0000.0001) // =======================================================
(PID.TID 0000.0001) %MON time_tsnumber                =                 72017
(PID.TID 0000.0001) %MON time_secondsf                =   6.2222688000000E+09
(PID.TID 0000.0001) %MON dynstat_eta_max              =   8.9580247225720E-01
(PID.TID 0000.0001) %MON dynstat_eta_min              =  -1.6072618442149E+00
(PID.TID 0000.0001) %MON dynstat_eta_mean             =   5.1474651820237E-13
(PID.TID 0000.0001) %MON dynstat_eta_sd               =   5.9685671715537E-01
(PID.TID 0000.0001) %MON dynstat_eta_del2             =   1.1246736237723E-02
(PID.TID 0000.0001) %MON dynstat_uvel_max             =   1.8392035532082E-01
(PID.TID 0000.0001) %MON dynstat_uvel_min             =  -2.8201149779777E-01
(PID.TID 0000.0001) %MON dynstat_uvel_mean            =  -4.8343065640080E-04
(PID.TID 0000.0001) %MON dynstat_uvel_sd              =   1.2023277987783E-02
(PID.TID 0000.0001) %MON dynstat_uvel_del2            =   1.5673167711062E-03
(PID.TID 0000.0001) %MON dynstat_vvel_max             =   1.7359452695634E-01
(PID.TID 0000.0001) %MON dynstat_vvel_min             =  -2.2374274250398E-01
(PID.TID 0000.0001) %MON dynstat_vvel_mean            =  -4.0068612117854E-04
(PID.TID 0000.0001) %MON dynstat_vvel_sd              =   1.2665595311171E-02
(PID.TID 0000.0001) %MON dynstat_vvel_del2            =   1.5899913389398E-03
(PID.TID 0000.0001) %MON dynstat_wvel_max             =   1.0958489257702E-04
(PID.TID 0000.0001) %MON dynstat_wvel_min             =  -2.0335956583912E-04
(PID.TID 0000.0001) %MON dynstat_wvel_mean            =   1.7407522525058E-11
(PID.TID 0000.0001) %MON dynstat_wvel_sd              =   3.8783989223670E-06
(PID.TID 0000.0001) %MON dynstat_wvel_del2            =   8.5761403355142E-07
(PID.TID 0000.0001) %MON dynstat_theta_max            =   3.1123402235610E+01
(PID.TID 0000.0001) %MON dynstat_theta_min            =  -2.3704429554045E+00
(PID.TID 0000.0001) %MON dynstat_theta_mean           =   3.9287532147171E+00
(PID.TID 0000.0001) %MON dynstat_theta_sd             =   4.5748315812783E+00
(PID.TID 0000.0001) %MON dynstat_theta_del2           =   8.7995027929982E-02
(PID.TID 0000.0001) %MON dynstat_salt_max             =   4.1392313104927E+01
(PID.TID 0000.0001) %MON dynstat_salt_min             =   1.8393823061146E+01
(PID.TID 0000.0001) %MON dynstat_salt_mean            =   3.4775240486912E+01
(PID.TID 0000.0001) %MON dynstat_salt_sd              =   5.3472961450076E-01
(PID.TID 0000.0001) %MON dynstat_salt_del2            =   1.8947050777729E-02
(PID.TID 0000.0001) %MON advcfl_uvel_max              =   7.9983810163144E-02
(PID.TID 0000.0001) %MON advcfl_vvel_max              =   7.5667408663389E-02
(PID.TID 0000.0001) %MON advcfl_wvel_max              =   6.6302892409434E-02
(PID.TID 0000.0001) %MON advcfl_W_hf_max              =   1.1148642835492E-01
(PID.TID 0000.0001) %MON pe_b_mean                    =   4.7457476854242E-04
(PID.TID 0000.0001) %MON ke_max                       =   3.8594702939148E-02
(PID.TID 0000.0001) %MON ke_mean                      =   1.4101684999979E-04
(PID.TID 0000.0001) %MON ke_vol                       =   1.3398024453628E+18
(PID.TID 0000.0001) %MON vort_r_min                   =  -1.2710031765249E-06
(PID.TID 0000.0001) %MON vort_r_max                   =   1.2439652319821E-06
(PID.TID 0000.0001) %MON vort_a_mean                  =  -2.0493733748264E-05
(PID.TID 0000.0001) %MON vort_a_sd                    =   7.5053945020230E-05
(PID.TID 0000.0001) %MON vort_p_mean                  =  -2.4715568993915E-05
(PID.TID 0000.0001) %MON vort_p_sd                    =   1.2775773164508E-04
(PID.TID 0000.0001) %MON surfExpan_theta_mean         =   4.9572080343827E-08
(PID.TID 0000.0001) %MON surfExpan_salt_mean          =   1.5405559287203E-08
(PID.TID 0000.0001) // =======================================================
(PID.TID 0000.0001) // End MONITOR dynamic field statistics
(PID.TID 0000.0001) // =======================================================
 cg2d: Sum(rhs),rhsMax =  -3.46218553826105E-10  4.23145544843226E+00
(PID.TID 0000.0001)                    cg2d_init_res =    1.70090373001178E-01
(PID.TID 0000.0001)                       cg2d_iters =    62
(PID.TID 0000.0001)                         cg2d_res =    4.99900072107728E-07
(PID.TID 0000.0001) // =======================================================
(PID.TID 0000.0001) // Begin MONITOR dynamic field statistics
(PID.TID 0000.0001) // =======================================================
(PID.TID 0000.0001) %MON time_tsnumber                =                 72018
(PID.TID 0000.0001) %MON time_secondsf                =   6.2223552000000E+09
(PID.TID 0000.0001) %MON dynstat_eta_max              =   8.9469772304608E-01
(PID.TID 0000.0001) %MON dynstat_eta_min              =  -1.6066509689243E+00
(PID.TID 0000.0001) %MON dynstat_eta_mean             =   5.1471243522414E-13
(PID.TID 0000.0001) %MON dynstat_eta_sd               =   5.9678165381942E-01
(PID.TID 0000.0001) %MON dynstat_eta_del2             =   1.1247876241329E-02
(PID.TID 0000.0001) %MON dynstat_uvel_max             =   1.8390690263782E-01
(PID.TID 0000.0001) %MON dynstat_uvel_min             =  -2.8150473086518E-01
(PID.TID 0000.0001) %MON dynstat_uvel_mean            =  -4.8285362708355E-04
(PID.TID 0000.0001) %MON dynstat_uvel_sd              =   1.2024046741882E-02
(PID.TID 0000.0001) %MON dynstat_uvel_del2            =   1.5673606469768E-03
(PID.TID 0000.0001) %MON dynstat_vvel_max             =   1.7332070824969E-01
(PID.TID 0000.0001) %MON dynstat_vvel_min             =  -2.2360933664606E-01
(PID.TID 0000.0001) %MON dynstat_vvel_mean            =  -4.0026974365139E-04
(PID.TID 0000.0001) %MON dynstat_vvel_sd              =   1.2662865377019E-02
(PID.TID 0000.0001) %MON dynstat_vvel_del2            =   1.5898038766600E-03
(PID.TID 0000.0001) %MON dynstat_wvel_max             =   1.0992294062571E-04
(PID.TID 0000.0001) %MON dynstat_wvel_min             =  -2.0288200762664E-04
(PID.TID 0000.0001) %MON dynstat_wvel_mean            =   4.7870554149962E-12
(PID.TID 0000.0001) %MON dynstat_wvel_sd              =   3.8758786392946E-06
(PID.TID 0000.0001) %MON dynstat_wvel_del2            =   8.5752664755198E-07
(PID.TID 0000.0001) %MON dynstat_theta_max            =   3.1131282453130E+01
(PID.TID 0000.0001) %MON dynstat_theta_min            =  -2.3991802436717E+00
(PID.TID 0000.0001) %MON dynstat_theta_mean           =   3.9288132286231E+00
(PID.TID 0000.0001) %MON dynstat_theta_sd             =   4.5749555194797E+00
(PID.TID 0000.0001) %MON dynstat_theta_del2           =   8.8043170843608E-02
(PID.TID 0000.0001) %MON dynstat_salt_max             =   4.1389342989863E+01
(PID.TID 0000.0001) %MON dynstat_salt_min             =   1.8394206191568E+01
(PID.TID 0000.0001) %MON dynstat_salt_mean            =   3.4775241184442E+01
(PID.TID 0000.0001) %MON dynstat_salt_sd              =   5.3472380105992E-01
(PID.TID 0000.0001) %MON dynstat_salt_del2            =   1.8963616364357E-02
(PID.TID 0000.0001) %MON advcfl_uvel_max              =   7.9840081448357E-02
(PID.TID 0000.0001) %MON advcfl_vvel_max              =   7.5548054946776E-02
(PID.TID 0000.0001) %MON advcfl_wvel_max              =   6.6147190411101E-02
(PID.TID 0000.0001) %MON advcfl_W_hf_max              =   1.1102335900012E-01
(PID.TID 0000.0001) %MON pe_b_mean                    =   4.7445540681221E-04
(PID.TID 0000.0001) %MON ke_max                       =   3.8445660630546E-02
(PID.TID 0000.0001) %MON ke_mean                      =   1.4099286656535E-04
(PID.TID 0000.0001) %MON ke_vol                       =   1.3398024453628E+18
(PID.TID 0000.0001) %MON vort_r_min                   =  -1.2760077616435E-06
(PID.TID 0000.0001) %MON vort_r_max                   =   1.2449315621999E-06
(PID.TID 0000.0001) %MON vort_a_mean                  =  -2.0493733748264E-05
(PID.TID 0000.0001) %MON vort_a_sd                    =   7.5053944951285E-05
(PID.TID 0000.0001) %MON vort_p_mean                  =  -2.4715569203097E-05
(PID.TID 0000.0001) %MON vort_p_sd                    =   1.2775773025709E-04
(PID.TID 0000.0001) %MON surfExpan_theta_mean         =   4.9540816632606E-08
(PID.TID 0000.0001) %MON surfExpan_salt_mean          =   1.5439898126534E-08
(PID.TID 0000.0001) // =======================================================
(PID.TID 0000.0001) // End MONITOR dynamic field statistics
(PID.TID 0000.0001) // =======================================================
 cg2d: Sum(rhs),rhsMax =  -3.46055573086090E-10  4.23061279498082E+00
(PID.TID 0000.0001)                    cg2d_init_res =    1.88463354392727E-01
(PID.TID 0000.0001)                       cg2d_iters =    62
(PID.TID 0000.0001)                         cg2d_res =    5.34303324961287E-07
(PID.TID 0000.0001) // =======================================================
(PID.TID 0000.0001) // Begin MONITOR dynamic field statistics
(PID.TID 0000.0001) // =======================================================
(PID.TID 0000.0001) %MON time_tsnumber                =                 72019
(PID.TID 0000.0001) %MON time_secondsf                =   6.2224416000000E+09
(PID.TID 0000.0001) %MON dynstat_eta_max              =   8.9362482860079E-01
(PID.TID 0000.0001) %MON dynstat_eta_min              =  -1.6060568851230E+00
(PID.TID 0000.0001) %MON dynstat_eta_mean             =   5.1474790030739E-13
(PID.TID 0000.0001) %MON dynstat_eta_sd               =   5.9671279161339E-01
(PID.TID 0000.0001) %MON dynstat_eta_del2             =   1.1250189898473E-02
(PID.TID 0000.0001) %MON dynstat_uvel_max             =   1.8382813969745E-01
(PID.TID 0000.0001) %MON dynstat_uvel_min             =  -2.8098426612452E-01
(PID.TID 0000.0001) %MON dynstat_uvel_mean            =  -4.8231691764225E-04
(PID.TID 0000.0001) %MON dynstat_uvel_sd              =   1.2024799651580E-02
(PID.TID 0000.0001) %MON dynstat_uvel_del2            =   1.5674263408510E-03
(PID.TID 0000.0001) %MON dynstat_vvel_max             =   1.7301709721100E-01
(PID.TID 0000.0001) %MON dynstat_vvel_min             =  -2.2347005143429E-01
(PID.TID 0000.0001) %MON dynstat_vvel_mean            =  -3.9983841908475E-04
(PID.TID 0000.0001) %MON dynstat_vvel_sd              =   1.2659647641265E-02
(PID.TID 0000.0001) %MON dynstat_vvel_del2            =   1.5896398427764E-03
(PID.TID 0000.0001) %MON dynstat_wvel_max             =   1.1021666792362E-04
(PID.TID 0000.0001) %MON dynstat_wvel_min             =  -2.0239019299173E-04
(PID.TID 0000.0001) %MON dynstat_wvel_mean            =  -3.1603621553774E-12
(PID.TID 0000.0001) %MON dynstat_wvel_sd              =   3.8732101369009E-06
(PID.TID 0000.0001) %MON dynstat_wvel_del2            =   8.5757290658976E-07
(PID.TID 0000.0001) %MON dynstat_theta_max            =   3.1138629883064E+01
(PID.TID 0000.0001) %MON dynstat_theta_min            =  -2.4278548073442E+00
(PID.TID 0000.0001) %MON dynstat_theta_mean           =   3.9288735451464E+00
(PID.TID 0000.0001) %MON dynstat_theta_sd             =   4.5750898271055E+00
(PID.TID 0000.0001) %MON dynstat_theta_del2           =   8.8141917937659E-02
(PID.TID 0000.0001) %MON dynstat_salt_max             =   4.1386394452296E+01
(PID.TID 0000.0001) %MON dynstat_salt_min             =   1.8394591230708E+01
(PID.TID 0000.0001) %MON dynstat_salt_mean            =   3.4775241896450E+01
(PID.TID 0000.0001) %MON dynstat_salt_sd              =   5.3471794350675E-01
(PID.TID 0000.0001) %MON dynstat_salt_del2            =   1.8978271184445E-02
(PID.TID 0000.0001) %MON advcfl_uvel_max              =   7.9692467775373E-02
(PID.TID 0000.0001) %MON advcfl_vvel_max              =   7.5415715172352E-02
(PID.TID 0000.0001) %MON advcfl_wvel_max              =   6.5986840281078E-02
(PID.TID 0000.0001) %MON advcfl_W_hf_max              =   1.1050152051096E-01
(PID.TID 0000.0001) %MON pe_b_mean                    =   4.7434591899280E-04
(PID.TID 0000.0001) %MON ke_max                       =   3.8295294299450E-02
(PID.TID 0000.0001) %MON ke_mean                      =   1.4096299803047E-04
(PID.TID 0000.0001) %MON ke_vol                       =   1.3398024453628E+18
(PID.TID 0000.0001) %MON vort_r_min                   =  -1.2807743870828E-06
(PID.TID 0000.0001) %MON vort_r_max                   =   1.2455288681071E-06
(PID.TID 0000.0001) %MON vort_a_mean                  =  -2.0493733748263E-05
(PID.TID 0000.0001) %MON vort_a_sd                    =   7.5053944890421E-05
(PID.TID 0000.0001) %MON vort_p_mean                  =  -2.4715569404000E-05
(PID.TID 0000.0001) %MON vort_p_sd                    =   1.2775772878106E-04
(PID.TID 0000.0001) %MON surfExpan_theta_mean         =   4.9556757884202E-08
(PID.TID 0000.0001) %MON surfExpan_salt_mean          =   1.5510269229801E-08
(PID.TID 0000.0001) // =======================================================
(PID.TID 0000.0001) // End MONITOR dynamic field statistics
(PID.TID 0000.0001) // =======================================================
 cg2d: Sum(rhs),rhsMax =  -3.46240258686237E-10  4.22968659123554E+00
(PID.TID 0000.0001)                    cg2d_init_res =    1.68356623065947E-01
(PID.TID 0000.0001)                       cg2d_iters =    62
(PID.TID 0000.0001)                         cg2d_res =    4.78557125628710E-07
(PID.TID 0000.0001) // =======================================================
(PID.TID 0000.0001) // Begin MONITOR dynamic field statistics
(PID.TID 0000.0001) // =======================================================
(PID.TID 0000.0001) %MON time_tsnumber                =                 72020
(PID.TID 0000.0001) %MON time_secondsf                =   6.2225280000000E+09
(PID.TID 0000.0001) %MON dynstat_eta_max              =   8.9258636131691E-01
(PID.TID 0000.0001) %MON dynstat_eta_min              =  -1.6054803047075E+00
(PID.TID 0000.0001) %MON dynstat_eta_mean             =   5.1472463263643E-13
(PID.TID 0000.0001) %MON dynstat_eta_sd               =   5.9665036952346E-01
(PID.TID 0000.0001) %MON dynstat_eta_del2             =   1.1252864431876E-02
(PID.TID 0000.0001) %MON dynstat_uvel_max             =   1.8368536028766E-01
(PID.TID 0000.0001) %MON dynstat_uvel_min             =  -2.8045009314656E-01
(PID.TID 0000.0001) %MON dynstat_uvel_mean            =  -4.8181216479652E-04
(PID.TID 0000.0001) %MON dynstat_uvel_sd              =   1.2025487795871E-02
(PID.TID 0000.0001) %MON dynstat_uvel_del2            =   1.5675815595492E-03
(PID.TID 0000.0001) %MON dynstat_vvel_max             =   1.7268639626700E-01
(PID.TID 0000.0001) %MON dynstat_vvel_min             =  -2.2332523992251E-01
(PID.TID 0000.0001) %MON dynstat_vvel_mean            =  -3.9939074789600E-04
(PID.TID 0000.0001) %MON dynstat_vvel_sd              =   1.2656021032630E-02
(PID.TID 0000.0001) %MON dynstat_vvel_del2            =   1.5895339277533E-03
(PID.TID 0000.0001) %MON dynstat_wvel_max             =   1.1045665421974E-04
(PID.TID 0000.0001) %MON dynstat_wvel_min             =  -2.0189036411747E-04
(PID.TID 0000.0001) %MON dynstat_wvel_mean            =  -1.1921525591547E-11
(PID.TID 0000.0001) %MON dynstat_wvel_sd              =   3.8703910426616E-06
(PID.TID 0000.0001) %MON dynstat_wvel_del2            =   8.5777426034788E-07
(PID.TID 0000.0001) %MON dynstat_theta_max            =   3.1145445111556E+01
(PID.TID 0000.0001) %MON dynstat_theta_min            =  -2.4565198421709E+00
(PID.TID 0000.0001) %MON dynstat_theta_mean           =   3.9289340490263E+00
(PID.TID 0000.0001) %MON dynstat_theta_sd             =   4.5752339766457E+00
(PID.TID 0000.0001) %MON dynstat_theta_del2           =   8.8138245936693E-02
(PID.TID 0000.0001) %MON dynstat_salt_max             =   4.1383467838571E+01
(PID.TID 0000.0001) %MON dynstat_salt_min             =   1.8394978038972E+01
(PID.TID 0000.0001) %MON dynstat_salt_mean            =   3.4775242621759E+01
(PID.TID 0000.0001) %MON dynstat_salt_sd              =   5.3471144396764E-01
(PID.TID 0000.0001) %MON dynstat_salt_del2            =   1.8970615045134E-02
(PID.TID 0000.0001) %MON advcfl_uvel_max              =   7.9540966186266E-02
(PID.TID 0000.0001) %MON advcfl_vvel_max              =   7.5271567289848E-02
(PID.TID 0000.0001) %MON advcfl_wvel_max              =   6.5823877206600E-02
(PID.TID 0000.0001) %MON advcfl_W_hf_max              =   1.0992157536906E-01
(PID.TID 0000.0001) %MON pe_b_mean                    =   4.7424668158646E-04
(PID.TID 0000.0001) %MON ke_max                       =   3.8143586716617E-02
(PID.TID 0000.0001) %MON ke_mean                      =   1.4092763076495E-04
(PID.TID 0000.0001) %MON ke_vol                       =   1.3398024453628E+18
(PID.TID 0000.0001) %MON vort_r_min                   =  -1.2852907140643E-06
(PID.TID 0000.0001) %MON vort_r_max                   =   1.2457568823856E-06
(PID.TID 0000.0001) %MON vort_a_mean                  =  -2.0493733748264E-05
(PID.TID 0000.0001) %MON vort_a_sd                    =   7.5053944837894E-05
(PID.TID 0000.0001) %MON vort_p_mean                  =  -2.4715569597021E-05
(PID.TID 0000.0001) %MON vort_p_sd                    =   1.2775772723077E-04
(PID.TID 0000.0001) %MON surfExpan_theta_mean         =   4.9606039444591E-08
(PID.TID 0000.0001) %MON surfExpan_salt_mean          =   1.5618036978595E-08
(PID.TID 0000.0001) // =======================================================
(PID.TID 0000.0001) // End MONITOR dynamic field statistics
(PID.TID 0000.0001) // =======================================================
(PID.TID 0000.0001) %CHECKPOINT     72020 0000072020
(PID.TID 0000.0001)   Seconds in section "ALL                    [THE_MODEL_MAIN]":
(PID.TID 0000.0001)           User time:  11.6700003
(PID.TID 0000.0001)         System time:  0.319999993
(PID.TID 0000.0001)     Wall clock time:  13.9645081
(PID.TID 0000.0001)          No. starts: 1
(PID.TID 0000.0001)           No. stops: 1
(PID.TID 0000.0001)   Seconds in section "INITIALISE_FIXED       [THE_MODEL_MAIN]":
(PID.TID 0000.0001)           User time:  0.350000015
(PID.TID 0000.0001)         System time:  0.0500000007
(PID.TID 0000.0001)     Wall clock time:  0.866442919
(PID.TID 0000.0001)          No. starts: 1
(PID.TID 0000.0001)           No. stops: 1
(PID.TID 0000.0001)   Seconds in section "THE_MAIN_LOOP          [THE_MODEL_MAIN]":
(PID.TID 0000.0001)           User time:  11.3200003
(PID.TID 0000.0001)         System time:  0.269999992
(PID.TID 0000.0001)     Wall clock time:  13.09794
(PID.TID 0000.0001)          No. starts: 1
(PID.TID 0000.0001)           No. stops: 1
(PID.TID 0000.0001)   Seconds in section "INITIALISE_VARIA    [THE_MAIN_LOOP]":
(PID.TID 0000.0001)           User time:  0.360000014
(PID.TID 0000.0001)         System time:  0.0899999999
(PID.TID 0000.0001)     Wall clock time:  0.46360898
(PID.TID 0000.0001)          No. starts: 1
(PID.TID 0000.0001)           No. stops: 1
(PID.TID 0000.0001)   Seconds in section "MONITOR             [THE_MAIN_LOOP]":
(PID.TID 0000.0001)           User time:  0.0499999523
(PID.TID 0000.0001)         System time:  0.
(PID.TID 0000.0001)     Wall clock time:  0.0499141216
(PID.TID 0000.0001)          No. starts: 1
(PID.TID 0000.0001)           No. stops: 1
(PID.TID 0000.0001)   Seconds in section "DO_THE_MODEL_IO     [THE_MAIN_LOOP]":
(PID.TID 0000.0001)           User time:  0.0200000405
(PID.TID 0000.0001)         System time:  0.0300000012
(PID.TID 0000.0001)     Wall clock time:  0.37440896
(PID.TID 0000.0001)          No. starts: 1
(PID.TID 0000.0001)           No. stops: 1
(PID.TID 0000.0001)   Seconds in section "MAIN LOOP           [THE_MAIN_LOOP]":
(PID.TID 0000.0001)           User time:  10.8900003
(PID.TID 0000.0001)         System time:  0.149999991
(PID.TID 0000.0001)     Wall clock time:  12.2098949
(PID.TID 0000.0001)          No. starts: 1
(PID.TID 0000.0001)           No. stops: 1
(PID.TID 0000.0001)   Seconds in section "FORWARD_STEP        [THE_MAIN_LOOP]":
(PID.TID 0000.0001)           User time:  10.8900003
(PID.TID 0000.0001)         System time:  0.149999991
(PID.TID 0000.0001)     Wall clock time:  12.2094471
(PID.TID 0000.0001)          No. starts: 20
(PID.TID 0000.0001)           No. stops: 20
(PID.TID 0000.0001)   Seconds in section "UPDATE_ETAH        [FORWARD_STEP]":
(PID.TID 0000.0001)           User time:  0.
(PID.TID 0000.0001)         System time:  0.
(PID.TID 0000.0001)     Wall clock time:  0.00302314758
(PID.TID 0000.0001)          No. starts: 20
(PID.TID 0000.0001)           No. stops: 20
(PID.TID 0000.0001)   Seconds in section "CALC_R_STAR       [FORWARD_STEP]":
(PID.TID 0000.0001)           User time:  0.0500001907
(PID.TID 0000.0001)         System time:  0.
(PID.TID 0000.0001)     Wall clock time:  0.0596089363
(PID.TID 0000.0001)          No. starts: 20
(PID.TID 0000.0001)           No. stops: 20
(PID.TID 0000.0001)   Seconds in section "EXTERNAL_FIELDS_LOAD[FORWARD_STEP]":
(PID.TID 0000.0001)           User time:  0.0599992275
(PID.TID 0000.0001)         System time:  0.0100000054
(PID.TID 0000.0001)     Wall clock time:  0.076924324
(PID.TID 0000.0001)          No. starts: 20
(PID.TID 0000.0001)           No. stops: 20
(PID.TID 0000.0001)   Seconds in section "THERMODYNAMICS      [FORWARD_STEP]":
(PID.TID 0000.0001)           User time:  3.3999998
(PID.TID 0000.0001)         System time:  0.
(PID.TID 0000.0001)     Wall clock time:  3.39620018
(PID.TID 0000.0001)          No. starts: 20
(PID.TID 0000.0001)           No. stops: 20
(PID.TID 0000.0001)   Seconds in section "BLOCKING_EXCHANGES  [FORWARD_STEP]":
(PID.TID 0000.0001)           User time:  0.739999771
(PID.TID 0000.0001)         System time:  0.
(PID.TID 0000.0001)     Wall clock time:  0.724895716
(PID.TID 0000.0001)          No. starts: 40
(PID.TID 0000.0001)           No. stops: 40
(PID.TID 0000.0001)   Seconds in section "DYNAMICS            [FORWARD_STEP]":
(PID.TID 0000.0001)           User time:  2.98999977
(PID.TID 0000.0001)         System time:  0.
(PID.TID 0000.0001)     Wall clock time:  2.9824903
(PID.TID 0000.0001)          No. starts: 20
(PID.TID 0000.0001)           No. stops: 20
(PID.TID 0000.0001)   Seconds in section "UPDATE_R_STAR      [FORWARD_STEP]":
(PID.TID 0000.0001)           User time:  0.210000277
(PID.TID 0000.0001)         System time:  0.
(PID.TID 0000.0001)     Wall clock time:  0.233863831
(PID.TID 0000.0001)          No. starts: 20
(PID.TID 0000.0001)           No. stops: 20
(PID.TID 0000.0001)   Seconds in section "UPDATE_CG2D        [FORWARD_STEP]":
(PID.TID 0000.0001)           User time:  0.0499994755
(PID.TID 0000.0001)         System time:  0.
(PID.TID 0000.0001)     Wall clock time:  0.0485150814
(PID.TID 0000.0001)          No. starts: 20
(PID.TID 0000.0001)           No. stops: 20
(PID.TID 0000.0001)   Seconds in section "SOLVE_FOR_PRESSURE  [FORWARD_STEP]":
(PID.TID 0000.0001)           User time:  1.38999963
(PID.TID 0000.0001)         System time:  0.
(PID.TID 0000.0001)     Wall clock time:  1.36467576
(PID.TID 0000.0001)          No. starts: 20
(PID.TID 0000.0001)           No. stops: 20
(PID.TID 0000.0001)   Seconds in section "THE_CORRECTION_STEP [FORWARD_STEP]":
(PID.TID 0000.0001)           User time:  0.67000103
(PID.TID 0000.0001)         System time:  0.
(PID.TID 0000.0001)     Wall clock time:  0.69212842
(PID.TID 0000.0001)          No. starts: 20
(PID.TID 0000.0001)           No. stops: 20
(PID.TID 0000.0001)   Seconds in section "MONITOR             [FORWARD_STEP]":
(PID.TID 0000.0001)           User time:  1.00000119
(PID.TID 0000.0001)         System time:  0.
(PID.TID 0000.0001)     Wall clock time:  1.00028229
(PID.TID 0000.0001)          No. starts: 20
(PID.TID 0000.0001)           No. stops: 20
(PID.TID 0000.0001)   Seconds in section "DO_THE_MODEL_IO     [FORWARD_STEP]":
(PID.TID 0000.0001)           User time:  0.0899991989
(PID.TID 0000.0001)         System time:  0.00999999046
(PID.TID 0000.0001)     Wall clock time:  0.457509041
(PID.TID 0000.0001)          No. starts: 20
(PID.TID 0000.0001)           No. stops: 20
(PID.TID 0000.0001)   Seconds in section "WRITE_CHECKPOINT    [FORWARD_STEP]":
(PID.TID 0000.0001)           User time:  0.240000725
(PID.TID 0000.0001)         System time:  0.129999995
(PID.TID 0000.0001)     Wall clock time:  1.16095424
(PID.TID 0000.0001)          No. starts: 20
(PID.TID 0000.0001)           No. stops: 20
(PID.TID 0000.0001)   Seconds in section "WRITE_CHECKPOINT       [THE_MODEL_MAIN]":
(PID.TID 0000.0001)           User time:  0.
(PID.TID 0000.0001)         System time:  0.
(PID.TID 0000.0001)     Wall clock time:  2.31266022E-05
(PID.TID 0000.0001)          No. starts: 1
(PID.TID 0000.0001)           No. stops: 1
(PID.TID 0000.0001) // ======================================================
(PID.TID 0000.0001) // Tile <-> Tile communication statistics
(PID.TID 0000.0001) // ======================================================
(PID.TID 0000.0001) // o Tile number: 000001
(PID.TID 0000.0001) //         No. X exchanges =              0
(PID.TID 0000.0001) //            Max. X spins =              0
(PID.TID 0000.0001) //            Min. X spins =     1000000000
(PID.TID 0000.0001) //          Total. X spins =              0
(PID.TID 0000.0001) //            Avg. X spins =       0.00E+00
(PID.TID 0000.0001) //         No. Y exchanges =              0
(PID.TID 0000.0001) //            Max. Y spins =              0
(PID.TID 0000.0001) //            Min. Y spins =     1000000000
(PID.TID 0000.0001) //          Total. Y spins =              0
(PID.TID 0000.0001) //            Avg. Y spins =       0.00E+00
(PID.TID 0000.0001) // o Tile number: 000002
(PID.TID 0000.0001) //         No. X exchanges =              0
(PID.TID 0000.0001) //            Max. X spins =              0
(PID.TID 0000.0001) //            Min. X spins =     1000000000
(PID.TID 0000.0001) //          Total. X spins =              0
(PID.TID 0000.0001) //            Avg. X spins =       0.00E+00
(PID.TID 0000.0001) //         No. Y exchanges =              0
(PID.TID 0000.0001) //            Max. Y spins =              0
(PID.TID 0000.0001) //            Min. Y spins =     1000000000
(PID.TID 0000.0001) //          Total. Y spins =              0
(PID.TID 0000.0001) //            Avg. Y spins =       0.00E+00
(PID.TID 0000.0001) // o Tile number: 000003
(PID.TID 0000.0001) //         No. X exchanges =              0
(PID.TID 0000.0001) //            Max. X spins =              0
(PID.TID 0000.0001) //            Min. X spins =     1000000000
(PID.TID 0000.0001) //          Total. X spins =              0
(PID.TID 0000.0001) //            Avg. X spins =       0.00E+00
(PID.TID 0000.0001) //         No. Y exchanges =              0
(PID.TID 0000.0001) //            Max. Y spins =              0
(PID.TID 0000.0001) //            Min. Y spins =     1000000000
(PID.TID 0000.0001) //          Total. Y spins =              0
(PID.TID 0000.0001) //            Avg. Y spins =       0.00E+00
(PID.TID 0000.0001) // o Tile number: 000004
(PID.TID 0000.0001) //         No. X exchanges =              0
(PID.TID 0000.0001) //            Max. X spins =              0
(PID.TID 0000.0001) //            Min. X spins =     1000000000
(PID.TID 0000.0001) //          Total. X spins =              0
(PID.TID 0000.0001) //            Avg. X spins =       0.00E+00
(PID.TID 0000.0001) //         No. Y exchanges =              0
(PID.TID 0000.0001) //            Max. Y spins =              0
(PID.TID 0000.0001) //            Min. Y spins =     1000000000
(PID.TID 0000.0001) //          Total. Y spins =              0
(PID.TID 0000.0001) //            Avg. Y spins =       0.00E+00
(PID.TID 0000.0001) // o Tile number: 000005
(PID.TID 0000.0001) //         No. X exchanges =              0
(PID.TID 0000.0001) //            Max. X spins =              0
(PID.TID 0000.0001) //            Min. X spins =     1000000000
(PID.TID 0000.0001) //          Total. X spins =              0
(PID.TID 0000.0001) //            Avg. X spins =       0.00E+00
(PID.TID 0000.0001) //         No. Y exchanges =              0
(PID.TID 0000.0001) //            Max. Y spins =              0
(PID.TID 0000.0001) //            Min. Y spins =     1000000000
(PID.TID 0000.0001) //          Total. Y spins =              0
(PID.TID 0000.0001) //            Avg. Y spins =       0.00E+00
(PID.TID 0000.0001) // o Tile number: 000006
(PID.TID 0000.0001) //         No. X exchanges =              0
(PID.TID 0000.0001) //            Max. X spins =              0
(PID.TID 0000.0001) //            Min. X spins =     1000000000
(PID.TID 0000.0001) //          Total. X spins =              0
(PID.TID 0000.0001) //            Avg. X spins =       0.00E+00
(PID.TID 0000.0001) //         No. Y exchanges =              0
(PID.TID 0000.0001) //            Max. Y spins =              0
(PID.TID 0000.0001) //            Min. Y spins =     1000000000
(PID.TID 0000.0001) //          Total. Y spins =              0
(PID.TID 0000.0001) //            Avg. Y spins =       0.00E+00
(PID.TID 0000.0001) // o Tile number: 000007
(PID.TID 0000.0001) //         No. X exchanges =              0
(PID.TID 0000.0001) //            Max. X spins =              0
(PID.TID 0000.0001) //            Min. X spins =     1000000000
(PID.TID 0000.0001) //          Total. X spins =              0
(PID.TID 0000.0001) //            Avg. X spins =       0.00E+00
(PID.TID 0000.0001) //         No. Y exchanges =              0
(PID.TID 0000.0001) //            Max. Y spins =              0
(PID.TID 0000.0001) //            Min. Y spins =     1000000000
(PID.TID 0000.0001) //          Total. Y spins =              0
(PID.TID 0000.0001) //            Avg. Y spins =       0.00E+00
(PID.TID 0000.0001) // o Tile number: 000008
(PID.TID 0000.0001) //         No. X exchanges =              0
(PID.TID 0000.0001) //            Max. X spins =              0
(PID.TID 0000.0001) //            Min. X spins =     1000000000
(PID.TID 0000.0001) //          Total. X spins =              0
(PID.TID 0000.0001) //            Avg. X spins =       0.00E+00
(PID.TID 0000.0001) //         No. Y exchanges =              0
(PID.TID 0000.0001) //            Max. Y spins =              0
(PID.TID 0000.0001) //            Min. Y spins =     1000000000
(PID.TID 0000.0001) //          Total. Y spins =              0
(PID.TID 0000.0001) //            Avg. Y spins =       0.00E+00
(PID.TID 0000.0001) // o Tile number: 000009
(PID.TID 0000.0001) //         No. X exchanges =              0
(PID.TID 0000.0001) //            Max. X spins =              0
(PID.TID 0000.0001) //            Min. X spins =     1000000000
(PID.TID 0000.0001) //          Total. X spins =              0
(PID.TID 0000.0001) //            Avg. X spins =       0.00E+00
(PID.TID 0000.0001) //         No. Y exchanges =              0
(PID.TID 0000.0001) //            Max. Y spins =              0
(PID.TID 0000.0001) //            Min. Y spins =     1000000000
(PID.TID 0000.0001) //          Total. Y spins =              0
(PID.TID 0000.0001) //            Avg. Y spins =       0.00E+00
(PID.TID 0000.0001) // o Tile number: 000010
(PID.TID 0000.0001) //         No. X exchanges =              0
(PID.TID 0000.0001) //            Max. X spins =              0
(PID.TID 0000.0001) //            Min. X spins =     1000000000
(PID.TID 0000.0001) //          Total. X spins =              0
(PID.TID 0000.0001) //            Avg. X spins =       0.00E+00
(PID.TID 0000.0001) //         No. Y exchanges =              0
(PID.TID 0000.0001) //            Max. Y spins =              0
(PID.TID 0000.0001) //            Min. Y spins =     1000000000
(PID.TID 0000.0001) //          Total. Y spins =              0
(PID.TID 0000.0001) //            Avg. Y spins =       0.00E+00
(PID.TID 0000.0001) // o Tile number: 000011
(PID.TID 0000.0001) //         No. X exchanges =              0
(PID.TID 0000.0001) //            Max. X spins =              0
(PID.TID 0000.0001) //            Min. X spins =     1000000000
(PID.TID 0000.0001) //          Total. X spins =              0
(PID.TID 0000.0001) //            Avg. X spins =       0.00E+00
(PID.TID 0000.0001) //         No. Y exchanges =              0
(PID.TID 0000.0001) //            Max. Y spins =              0
(PID.TID 0000.0001) //            Min. Y spins =     1000000000
(PID.TID 0000.0001) //          Total. Y spins =              0
(PID.TID 0000.0001) //            Avg. Y spins =       0.00E+00
(PID.TID 0000.0001) // o Tile number: 000012
(PID.TID 0000.0001) //         No. X exchanges =              0
(PID.TID 0000.0001) //            Max. X spins =              0
(PID.TID 0000.0001) //            Min. X spins =     1000000000
(PID.TID 0000.0001) //          Total. X spins =              0
(PID.TID 0000.0001) //  STOP NORMAL END statement executed
          Avg. X spins =       0.00E+00
(PID.TID 0000.0001) //         No. Y exchanges =              0
(PID.TID 0000.0001) //            Max. Y spins =              0
(PID.TID 0000.0001) //            Min. Y spins =     1000000000
(PID.TID 0000.0001) //          Total. Y spins =              0
(PID.TID 0000.0001) //            Avg. Y spins =       0.00E+00
(PID.TID 0000.0001) // o Thread number: 000001
(PID.TID 0000.0001) //            No. barriers =          33494
(PID.TID 0000.0001) //      Max. barrier spins =              1
(PID.TID 0000.0001) //      Min. barrier spins =              1
(PID.TID 0000.0001) //     Total barrier spins =          33494
(PID.TID 0000.0001) //      Avg. barrier spins =       1.00E+00
