(PID.TID 0000.0001) 
(PID.TID 0000.0001) // ======================================================
(PID.TID 0000.0001) //                      MITgcm UV
(PID.TID 0000.0001) //                      =========
(PID.TID 0000.0001) // ======================================================
(PID.TID 0000.0001) // execution environment starting up...
(PID.TID 0000.0001) // Run starting Wed Apr  1 14:19:48 1998
(PID.TID 0000.0001) // on melville.lcs.mit.edu
(PID.TID 0000.0001) // account cnh
(PID.TID 0000.0001) // MITgcm UV Release: $Name:  $
(PID.TID 0000.0001) 
(PID.TID 0000.0001) // =======================================================
(PID.TID 0000.0001) // Execution Environment parameter file "eedata"
(PID.TID 0000.0001) // =======================================================
(PID.TID 0000.0001) ># Example "eedata" file
(PID.TID 0000.0001) ># Lines beginning "#" are comments
(PID.TID 0000.0001) ># nTx - No. threads per process in X
(PID.TID 0000.0001) ># nTy - No. threads per process in Y
(PID.TID 0000.0001) > &EEPARMS
(PID.TID 0000.0001) > &
(PID.TID 0000.0001) ># Note: Some systems use & as the
(PID.TID 0000.0001) ># namelist terminator. Other systems
(PID.TID 0000.0001) ># use a / character (as shown here).
(PID.TID 0000.0001) 
(PID.TID 0000.0001) // =======================================================
(PID.TID 0000.0001) // Computational Grid Specification ( see files "SIZE.h" )
(PID.TID 0000.0001) //                                  ( and "eedata"       )
(PID.TID 0000.0001) // =======================================================
(PID.TID 0000.0001)      nPx =    1 ; /* No. processes in X */
(PID.TID 0000.0001)      nPy =    1 ; /* No. processes in Y */
(PID.TID 0000.0001)      nSx =    1 ; /* No. tiles in X per process */
(PID.TID 0000.0001)      nSy =    1 ; /* No. tiles in Y per process */
(PID.TID 0000.0001)      sNx =   60 ; /* Tile size in X */
(PID.TID 0000.0001)      sNy =   60 ; /* Tile size in Y */
(PID.TID 0000.0001)      OLx =    3 ; /* Tile overlap distance in X */
(PID.TID 0000.0001)      OLy =    3 ; /* Tile overlap distance in Y */
(PID.TID 0000.0001)      nTx =    1 ; /* No. threads in X per process */
(PID.TID 0000.0001)      nTy =    1 ; /* No. threads in Y per process */
(PID.TID 0000.0001)       Nr =    1 ; /* No. levels in the vertical   */
(PID.TID 0000.0001)       nX =   60 ; /* Total domain size in X ( = nPx*nSx*sNx ) */
(PID.TID 0000.0001)       nY =   60 ; /* Total domain size in Y ( = nPy*nSy*sNy ) */
(PID.TID 0000.0001)   nTiles =    1 ; /* Total no. tiles per process ( = nSx*nSy ) */
(PID.TID 0000.0001)   nProcs =    1 ; /* Total no. processes ( = nPx*nPy ) */
(PID.TID 0000.0001) nThreads =    1 ; /* Total no. threads per process ( = nTx*nTy ) */
(PID.TID 0000.0001) usingMPI =    F ; /* Flag used to control whether MPI is in use */
(PID.TID 0000.0001)                   /*  note: To execute a program with MPI calls */
(PID.TID 0000.0001)                   /*  it must be launched appropriately e.g     */
(PID.TID 0000.0001)                   /*  "mpirun -np 64 ......"                    */
(PID.TID 0000.0001) 
(PID.TID 0000.0001) // ======================================================
(PID.TID 0000.0001) // Mapping of tiles to threads
(PID.TID 0000.0001) // ======================================================
(PID.TID 0000.0001) // -o- Thread   1, tiles (   1:   1,   1:   1)
(PID.TID 0000.0001) 
(PID.TID 0000.0001) // ======================================================
(PID.TID 0000.0001) // Tile <-> Tile connectvity table
(PID.TID 0000.0001) // ======================================================
(PID.TID 0000.0001) // Tile number: 000001 (process no. = 000001)
(PID.TID 0000.0001) //        WEST: Tile = 000001, Process = 000001, Comm = put
(PID.TID 0000.0001) //                bi = 000001, bj = 000001
(PID.TID 0000.0001) //        EAST: Tile = 000001, Process = 000001, Comm = put
(PID.TID 0000.0001) //                bi = 000001, bj = 000001
(PID.TID 0000.0001) //       SOUTH: Tile = 000001, Process = 000001, Comm = put
(PID.TID 0000.0001) //                bi = 000001, bj = 000001
(PID.TID 0000.0001) //       NORTH: Tile = 000001, Process = 000001, Comm = put
(PID.TID 0000.0001) //                bi = 000001, bj = 000001
(PID.TID 0000.0001) 
(PID.TID 0000.0001) // =======================================================
(PID.TID 0000.0001) // Model parameter file "data"
(PID.TID 0000.0001) // =======================================================
(PID.TID 0000.0001) ># Model parameters
(PID.TID 0000.0001) ># Continuous equation parameters
(PID.TID 0000.0001) > &PARM01
(PID.TID 0000.0001) > tRef=20.,
(PID.TID 0000.0001) > sRef=10.,
(PID.TID 0000.0001) > viscAz=1.E-2,
(PID.TID 0000.0001) > viscAh=4.E2,
(PID.TID 0000.0001) > diffKhT=4.E2,
(PID.TID 0000.0001) > diffKzT=1.E-2,
(PID.TID 0000.0001) > beta=1.E-11,
(PID.TID 0000.0001) > tAlpha=2.E-4,
(PID.TID 0000.0001) > sBeta =0.,
(PID.TID 0000.0001) > gravity=9.81,
(PID.TID 0000.0001) > gBaro=9.81,
(PID.TID 0000.0001) > rigidLid=.FALSE.,
(PID.TID 0000.0001) > implicitFreeSurface=.TRUE.,
(PID.TID 0000.0001) > eosType='LINEAR',
(PID.TID 0000.0001) > readBinaryPrec=64,
(PID.TID 0000.0001) > &
(PID.TID 0000.0001) ># Elliptic solver parameters
(PID.TID 0000.0001) > &PARM02
(PID.TID 0000.0001) > cg2dMaxIters=1000,
(PID.TID 0000.0001) > cg2dTargetResidual=1.E-7,
(PID.TID 0000.0001) > &
(PID.TID 0000.0001) ># Time stepping parameters
(PID.TID 0000.0001) > &PARM03
(PID.TID 0000.0001) > startTime=0,
(PID.TID 0000.0001) >#endTime=311040000,
(PID.TID 0000.0001) > endTime=12000.0,
(PID.TID 0000.0001) > deltaTmom=1200.0,
(PID.TID 0000.0001) > deltaTtracer=1200.0,
(PID.TID 0000.0001) > abEps=0.1,
(PID.TID 0000.0001) > pChkptFreq=2592000.0,
(PID.TID 0000.0001) > chkptFreq=120000.0,
(PID.TID 0000.0001) > dumpFreq=2592000.0,
(PID.TID 0000.0001) > monitorFreq=1.,
(PID.TID 0000.0001) > &
(PID.TID 0000.0001) ># Gridding parameters
(PID.TID 0000.0001) > &PARM04
(PID.TID 0000.0001) > usingCartesianGrid=.TRUE.,
(PID.TID 0000.0001) > usingSphericalPolarGrid=.FALSE.,
(PID.TID 0000.0001) > delX=60*20E3,
(PID.TID 0000.0001) > delY=60*20E3,
(PID.TID 0000.0001) > delZ=5000.,
(PID.TID 0000.0001) > &
(PID.TID 0000.0001) > &PARM05
(PID.TID 0000.0001) > bathyFile='topog.box',
(PID.TID 0000.0001) > hydrogThetaFile=,
(PID.TID 0000.0001) > hydrogSaltFile=,
(PID.TID 0000.0001) > zonalWindFile='windx.sin_y',
(PID.TID 0000.0001) > meridWindFile=,
(PID.TID 0000.0001) > &
(PID.TID 0000.0001) 
(PID.TID 0000.0001) %MON XC_max                       =   1.1900000000000E+06
(PID.TID 0000.0001) %MON XC_min                       =   1.0000000000000E+04
(PID.TID 0000.0001) %MON XC_mean                      =   6.0000000000000E+05
(PID.TID 0000.0001) %MON XC_sd                        =   3.4636204564973E+05
(PID.TID 0000.0001) %MON XG_max                       =   1.1800000000000E+06
(PID.TID 0000.0001) %MON XG_min                       =   2.0000000000000E+04
(PID.TID 0000.0001) %MON XG_mean                      =   6.0000000000000E+05
(PID.TID 0000.0001) %MON XG_sd                        =   3.4058772731853E+05
(PID.TID 0000.0001) %MON DXC_max                      =   2.0000000000000E+04
(PID.TID 0000.0001) %MON DXC_min                      =   2.0000000000000E+04
(PID.TID 0000.0001) %MON DXC_mean                     =   2.0000000000000E+04
(PID.TID 0000.0001) %MON DXC_sd                       =   0.0000000000000E+00
(PID.TID 0000.0001) %MON DXF_max                      =   2.0000000000000E+04
(PID.TID 0000.0001) %MON DXF_min                      =   2.0000000000000E+04
(PID.TID 0000.0001) %MON DXF_mean                     =   2.0000000000000E+04
(PID.TID 0000.0001) %MON DXF_sd                       =   0.0000000000000E+00
(PID.TID 0000.0001) %MON DXG_max                      =   2.0000000000000E+04
(PID.TID 0000.0001) %MON DXG_min                      =   2.0000000000000E+04
(PID.TID 0000.0001) %MON DXG_mean                     =   2.0000000000000E+04
(PID.TID 0000.0001) %MON DXG_sd                       =   0.0000000000000E+00
(PID.TID 0000.0001) %MON DXV_max                      =   2.0000000000000E+04
(PID.TID 0000.0001) %MON DXV_min                      =   2.0000000000000E+04
(PID.TID 0000.0001) %MON DXV_mean                     =   2.0000000000000E+04
(PID.TID 0000.0001) %MON DXV_sd                       =   0.0000000000000E+00
(PID.TID 0000.0001) %MON YC_max                       =   1.1900000000000E+06
(PID.TID 0000.0001) %MON YC_min                       =   1.0000000000000E+04
(PID.TID 0000.0001) %MON YC_mean                      =   6.0000000000000E+05
(PID.TID 0000.0001) %MON YC_sd                        =   3.4636204564973E+05
(PID.TID 0000.0001) %MON YG_max                       =   1.1800000000000E+06
(PID.TID 0000.0001) %MON YG_min                       =   2.0000000000000E+04
(PID.TID 0000.0001) %MON YG_mean                      =   6.0000000000000E+05
(PID.TID 0000.0001) %MON YG_sd                        =   3.4058772731853E+05
(PID.TID 0000.0001) %MON DYC_max                      =   2.0000000000000E+04
(PID.TID 0000.0001) %MON DYC_min                      =   2.0000000000000E+04
(PID.TID 0000.0001) %MON DYC_mean                     =   2.0000000000000E+04
(PID.TID 0000.0001) %MON DYC_sd                       =   0.0000000000000E+00
(PID.TID 0000.0001) %MON DYF_max                      =   2.0000000000000E+04
(PID.TID 0000.0001) %MON DYF_min                      =   2.0000000000000E+04
(PID.TID 0000.0001) %MON DYF_mean                     =   2.0000000000000E+04
(PID.TID 0000.0001) %MON DYF_sd                       =   0.0000000000000E+00
(PID.TID 0000.0001) %MON DYG_max                      =   2.0000000000000E+04
(PID.TID 0000.0001) %MON DYG_min                      =   2.0000000000000E+04
(PID.TID 0000.0001) %MON DYG_mean                     =   2.0000000000000E+04
(PID.TID 0000.0001) %MON DYG_sd                       =   0.0000000000000E+00
(PID.TID 0000.0001) %MON DYU_max                      =   2.0000000000000E+04
(PID.TID 0000.0001) %MON DYU_min                      =   2.0000000000000E+04
(PID.TID 0000.0001) %MON DYU_mean                     =   2.0000000000000E+04
(PID.TID 0000.0001) %MON DYU_sd                       =   0.0000000000000E+00
(PID.TID 0000.0001) %MON RA_max                       =   4.0000000000000E+08
(PID.TID 0000.0001) %MON RA_min                       =   4.0000000000000E+08
(PID.TID 0000.0001) %MON RA_mean                      =   4.0000000000000E+08
(PID.TID 0000.0001) %MON RA_sd                        =   0.0000000000000E+00
(PID.TID 0000.0001) %MON RAW_max                      =   4.0000000000000E+08
(PID.TID 0000.0001) %MON RAW_min                      =   4.0000000000000E+08
(PID.TID 0000.0001) %MON RAW_mean                     =   4.0000000000000E+08
(PID.TID 0000.0001) %MON RAW_sd                       =   0.0000000000000E+00
(PID.TID 0000.0001) %MON RAS_max                      =   4.0000000000000E+08
(PID.TID 0000.0001) %MON RAS_min                      =   4.0000000000000E+08
(PID.TID 0000.0001) %MON RAS_mean                     =   4.0000000000000E+08
(PID.TID 0000.0001) %MON RAS_sd                       =   0.0000000000000E+00
(PID.TID 0000.0001) %MON RAZ_max                      =   4.0000000000000E+08
(PID.TID 0000.0001) %MON RAZ_min                      =   4.0000000000000E+08
(PID.TID 0000.0001) %MON RAZ_mean                     =   4.0000000000000E+08
(PID.TID 0000.0001) %MON RAZ_sd                       =   0.0000000000000E+00
(PID.TID 0000.0001)  MDSREADFIELD: opening global file: topog.box
(PID.TID 0000.0001) // =======================================================
(PID.TID 0000.0001) // Field Model R_low (ini_masks_etc) at iteration          1
(PID.TID 0000.0001) // CMIN =         -5.000000000000000E+03
(PID.TID 0000.0001) // CMAX =         -5.000000000000000E+03
(PID.TID 0000.0001) // CINT =          0.000000000000000E+00
(PID.TID 0000.0001) // SYMBOLS (CMIN->CMAX): -abcdefghijklmnopqrstuvwxyz+
(PID.TID 0000.0001) //                  0.0: .
(PID.TID 0000.0001) // RANGE I (Lo:Hi:Step):(  -2:  63:   1)
(PID.TID 0000.0001) // RANGE J (Lo:Hi:Step):(  63:  -2:  -1)
(PID.TID 0000.0001) // RANGE K (Lo:Hi:Step):(   1:   1:   1)
(PID.TID 0000.0001) // =======================================================
(PID.TID 0000.0001) K =   1
(PID.TID 0000.0001) //                I=7       I=17      I=27      I=37      I=47      I=57
(PID.TID 0000.0001) // |--J--|**0123456|890123456|890123456|890123456|890123456|890123456|890123
(PID.TID 0000.0001) //     63 --.-----------------------------------------------------------.---
(PID.TID 0000.0001) //     62 --.-----------------------------------------------------------.---
(PID.TID 0000.0001) //     61 --.-----------------------------------------------------------.---
(PID.TID 0000.0001) //     60 ..................................................................
(PID.TID 0000.0001) //     59 --.-----------------------------------------------------------.---
(PID.TID 0000.0001) //     58 --.-----------------------------------------------------------.---
(PID.TID 0000.0001) //     57 --.-----------------------------------------------------------.---
(PID.TID 0000.0001) //     56 --.-----------------------------------------------------------.---
(PID.TID 0000.0001) //     55 --.-----------------------------------------------------------.---
(PID.TID 0000.0001) //     54 --.-----------------------------------------------------------.---
(PID.TID 0000.0001) //     53 --.-----------------------------------------------------------.---
(PID.TID 0000.0001) //     52 --.-----------------------------------------------------------.---
(PID.TID 0000.0001) //     51 --.-----------------------------------------------------------.---
(PID.TID 0000.0001) //     50 --.-----------------------------------------------------------.---
(PID.TID 0000.0001) //     49 --.-----------------------------------------------------------.---
(PID.TID 0000.0001) //     48 --.-----------------------------------------------------------.---
(PID.TID 0000.0001) //     47 --.-----------------------------------------------------------.---
(PID.TID 0000.0001) //     46 --.-----------------------------------------------------------.---
(PID.TID 0000.0001) //     45 --.-----------------------------------------------------------.---
(PID.TID 0000.0001) //     44 --.-----------------------------------------------------------.---
(PID.TID 0000.0001) //     43 --.-----------------------------------------------------------.---
(PID.TID 0000.0001) //     42 --.-----------------------------------------------------------.---
(PID.TID 0000.0001) //     41 --.-----------------------------------------------------------.---
(PID.TID 0000.0001) //     40 --.-----------------------------------------------------------.---
(PID.TID 0000.0001) //     39 --.-----------------------------------------------------------.---
(PID.TID 0000.0001) //     38 --.-----------------------------------------------------------.---
(PID.TID 0000.0001) //     37 --.-----------------------------------------------------------.---
(PID.TID 0000.0001) //     36 --.-----------------------------------------------------------.---
(PID.TID 0000.0001) //     35 --.-----------------------------------------------------------.---
(PID.TID 0000.0001) //     34 --.-----------------------------------------------------------.---
(PID.TID 0000.0001) //     33 --.-----------------------------------------------------------.---
(PID.TID 0000.0001) //     32 --.-----------------------------------------------------------.---
(PID.TID 0000.0001) //     31 --.-----------------------------------------------------------.---
(PID.TID 0000.0001) //     30 --.-----------------------------------------------------------.---
(PID.TID 0000.0001) //     29 --.-----------------------------------------------------------.---
(PID.TID 0000.0001) //     28 --.-----------------------------------------------------------.---
(PID.TID 0000.0001) //     27 --.-----------------------------------------------------------.---
(PID.TID 0000.0001) //     26 --.-----------------------------------------------------------.---
(PID.TID 0000.0001) //     25 --.-----------------------------------------------------------.---
(PID.TID 0000.0001) //     24 --.-----------------------------------------------------------.---
(PID.TID 0000.0001) //     23 --.-----------------------------------------------------------.---
(PID.TID 0000.0001) //     22 --.-----------------------------------------------------------.---
(PID.TID 0000.0001) //     21 --.-----------------------------------------------------------.---
(PID.TID 0000.0001) //     20 --.-----------------------------------------------------------.---
(PID.TID 0000.0001) //     19 --.-----------------------------------------------------------.---
(PID.TID 0000.0001) //     18 --.-----------------------------------------------------------.---
(PID.TID 0000.0001) //     17 --.-----------------------------------------------------------.---
(PID.TID 0000.0001) //     16 --.-----------------------------------------------------------.---
(PID.TID 0000.0001) //     15 --.-----------------------------------------------------------.---
(PID.TID 0000.0001) //     14 --.-----------------------------------------------------------.---
(PID.TID 0000.0001) //     13 --.-----------------------------------------------------------.---
(PID.TID 0000.0001) //     12 --.-----------------------------------------------------------.---
(PID.TID 0000.0001) //     11 --.-----------------------------------------------------------.---
(PID.TID 0000.0001) //     10 --.-----------------------------------------------------------.---
(PID.TID 0000.0001) //      9 --.-----------------------------------------------------------.---
(PID.TID 0000.0001) //      8 --.-----------------------------------------------------------.---
(PID.TID 0000.0001) //      7 --.-----------------------------------------------------------.---
(PID.TID 0000.0001) //      6 --.-----------------------------------------------------------.---
(PID.TID 0000.0001) //      5 --.-----------------------------------------------------------.---
(PID.TID 0000.0001) //      4 --.-----------------------------------------------------------.---
(PID.TID 0000.0001) //      3 --.-----------------------------------------------------------.---
(PID.TID 0000.0001) //      2 --.-----------------------------------------------------------.---
(PID.TID 0000.0001) //      1 --.-----------------------------------------------------------.---
(PID.TID 0000.0001) //      0 ..................................................................
(PID.TID 0000.0001) //     -1 --.-----------------------------------------------------------.---
(PID.TID 0000.0001) //     -2 --.-----------------------------------------------------------.---
(PID.TID 0000.0001) // =======================================================
(PID.TID 0000.0001) // END OF FIELD                                          =
(PID.TID 0000.0001) // =======================================================
(PID.TID 0000.0001) 
(PID.TID 0000.0001) // =======================================================
(PID.TID 0000.0001) // Field Model Ro_surf (ini_masks_etc) at iteration          1
(PID.TID 0000.0001) // CMIN =          1.000000000000000E+32
(PID.TID 0000.0001) // CMAX =         -1.000000000000000E+32
(PID.TID 0000.0001) // CINT =          0.000000000000000E+00
(PID.TID 0000.0001) // SYMBOLS (CMIN->CMAX): -abcdefghijklmnopqrstuvwxyz+
(PID.TID 0000.0001) //                  0.0: .
(PID.TID 0000.0001) // RANGE I (Lo:Hi:Step):(  -2:  63:   1)
(PID.TID 0000.0001) // RANGE J (Lo:Hi:Step):(  63:  -2:  -1)
(PID.TID 0000.0001) // RANGE K (Lo:Hi:Step):(   1:   1:   1)
(PID.TID 0000.0001) // =======================================================
(PID.TID 0000.0001) K =   1
(PID.TID 0000.0001) //                I=7       I=17      I=27      I=37      I=47      I=57
(PID.TID 0000.0001) // |--J--|**0123456|890123456|890123456|890123456|890123456|890123456|890123
(PID.TID 0000.0001) //     63 ..................................................................
(PID.TID 0000.0001) //     62 ..................................................................
(PID.TID 0000.0001) //     61 ..................................................................
(PID.TID 0000.0001) //     60 ..................................................................
(PID.TID 0000.0001) //     59 ..................................................................
(PID.TID 0000.0001) //     58 ..................................................................
(PID.TID 0000.0001) //     57 ..................................................................
(PID.TID 0000.0001) //     56 ..................................................................
(PID.TID 0000.0001) //     55 ..................................................................
(PID.TID 0000.0001) //     54 ..................................................................
(PID.TID 0000.0001) //     53 ..................................................................
(PID.TID 0000.0001) //     52 ..................................................................
(PID.TID 0000.0001) //     51 ..................................................................
(PID.TID 0000.0001) //     50 ..................................................................
(PID.TID 0000.0001) //     49 ..................................................................
(PID.TID 0000.0001) //     48 ..................................................................
(PID.TID 0000.0001) //     47 ..................................................................
(PID.TID 0000.0001) //     46 ..................................................................
(PID.TID 0000.0001) //     45 ..................................................................
(PID.TID 0000.0001) //     44 ..................................................................
(PID.TID 0000.0001) //     43 ..................................................................
(PID.TID 0000.0001) //     42 ..................................................................
(PID.TID 0000.0001) //     41 ..................................................................
(PID.TID 0000.0001) //     40 ..................................................................
(PID.TID 0000.0001) //     39 ..................................................................
(PID.TID 0000.0001) //     38 ..................................................................
(PID.TID 0000.0001) //     37 ..................................................................
(PID.TID 0000.0001) //     36 ..................................................................
(PID.TID 0000.0001) //     35 ..................................................................
(PID.TID 0000.0001) //     34 ..................................................................
(PID.TID 0000.0001) //     33 ..................................................................
(PID.TID 0000.0001) //     32 ..................................................................
(PID.TID 0000.0001) //     31 ..................................................................
(PID.TID 0000.0001) //     30 ..................................................................
(PID.TID 0000.0001) //     29 ..................................................................
(PID.TID 0000.0001) //     28 ..................................................................
(PID.TID 0000.0001) //     27 ..................................................................
(PID.TID 0000.0001) //     26 ..................................................................
(PID.TID 0000.0001) //     25 ..................................................................
(PID.TID 0000.0001) //     24 ..................................................................
(PID.TID 0000.0001) //     23 ..................................................................
(PID.TID 0000.0001) //     22 ..................................................................
(PID.TID 0000.0001) //     21 ..................................................................
(PID.TID 0000.0001) //     20 ..................................................................
(PID.TID 0000.0001) //     19 ..................................................................
(PID.TID 0000.0001) //     18 ..................................................................
(PID.TID 0000.0001) //     17 ..................................................................
(PID.TID 0000.0001) //     16 ..................................................................
(PID.TID 0000.0001) //     15 ..................................................................
(PID.TID 0000.0001) //     14 ..................................................................
(PID.TID 0000.0001) //     13 ..................................................................
(PID.TID 0000.0001) //     12 ..................................................................
(PID.TID 0000.0001) //     11 ..................................................................
(PID.TID 0000.0001) //     10 ..................................................................
(PID.TID 0000.0001) //      9 ..................................................................
(PID.TID 0000.0001) //      8 ..................................................................
(PID.TID 0000.0001) //      7 ..................................................................
(PID.TID 0000.0001) //      6 ..................................................................
(PID.TID 0000.0001) //      5 ..................................................................
(PID.TID 0000.0001) //      4 ..................................................................
(PID.TID 0000.0001) //      3 ..................................................................
(PID.TID 0000.0001) //      2 ..................................................................
(PID.TID 0000.0001) //      1 ..................................................................
(PID.TID 0000.0001) //      0 ..................................................................
(PID.TID 0000.0001) //     -1 ..................................................................
(PID.TID 0000.0001) //     -2 ..................................................................
(PID.TID 0000.0001) // =======================================================
(PID.TID 0000.0001) // END OF FIELD                                          =
(PID.TID 0000.0001) // =======================================================
(PID.TID 0000.0001) 
(PID.TID 0000.0001) // =======================================================
(PID.TID 0000.0001) // Field hFacC at iteration          1
(PID.TID 0000.0001) // CMIN =          1.000000000000000E+00
(PID.TID 0000.0001) // CMAX =          1.000000000000000E+00
(PID.TID 0000.0001) // CINT =          0.000000000000000E+00
(PID.TID 0000.0001) // SYMBOLS (CMIN->CMAX): -abcdefghijklmnopqrstuvwxyz+
(PID.TID 0000.0001) //                  0.0: .
(PID.TID 0000.0001) // RANGE I (Lo:Hi:Step):(  -2:  63:   1)
(PID.TID 0000.0001) // RANGE J (Lo:Hi:Step):(  63:  -2:  -1)
(PID.TID 0000.0001) // RANGE K (Lo:Hi:Step):(   1:   1:   1)
(PID.TID 0000.0001) // =======================================================
(PID.TID 0000.0001) K =   1
(PID.TID 0000.0001) //                I=7       I=17      I=27      I=37      I=47      I=57
(PID.TID 0000.0001) // |--J--|**0123456|890123456|890123456|890123456|890123456|890123456|890123
(PID.TID 0000.0001) //     63 --.-----------------------------------------------------------.---
(PID.TID 0000.0001) //     62 --.-----------------------------------------------------------.---
(PID.TID 0000.0001) //     61 --.-----------------------------------------------------------.---
(PID.TID 0000.0001) //     60 ..................................................................
(PID.TID 0000.0001) //     59 --.-----------------------------------------------------------.---
(PID.TID 0000.0001) //     58 --.-----------------------------------------------------------.---
(PID.TID 0000.0001) //     57 --.-----------------------------------------------------------.---
(PID.TID 0000.0001) //     56 --.-----------------------------------------------------------.---
(PID.TID 0000.0001) //     55 --.-----------------------------------------------------------.---
(PID.TID 0000.0001) //     54 --.-----------------------------------------------------------.---
(PID.TID 0000.0001) //     53 --.-----------------------------------------------------------.---
(PID.TID 0000.0001) //     52 --.-----------------------------------------------------------.---
(PID.TID 0000.0001) //     51 --.-----------------------------------------------------------.---
(PID.TID 0000.0001) //     50 --.-----------------------------------------------------------.---
(PID.TID 0000.0001) //     49 --.-----------------------------------------------------------.---
(PID.TID 0000.0001) //     48 --.-----------------------------------------------------------.---
(PID.TID 0000.0001) //     47 --.-----------------------------------------------------------.---
(PID.TID 0000.0001) //     46 --.-----------------------------------------------------------.---
(PID.TID 0000.0001) //     45 --.-----------------------------------------------------------.---
(PID.TID 0000.0001) //     44 --.-----------------------------------------------------------.---
(PID.TID 0000.0001) //     43 --.-----------------------------------------------------------.---
(PID.TID 0000.0001) //     42 --.-----------------------------------------------------------.---
(PID.TID 0000.0001) //     41 --.-----------------------------------------------------------.---
(PID.TID 0000.0001) //     40 --.-----------------------------------------------------------.---
(PID.TID 0000.0001) //     39 --.-----------------------------------------------------------.---
(PID.TID 0000.0001) //     38 --.-----------------------------------------------------------.---
(PID.TID 0000.0001) //     37 --.-----------------------------------------------------------.---
(PID.TID 0000.0001) //     36 --.-----------------------------------------------------------.---
(PID.TID 0000.0001) //     35 --.-----------------------------------------------------------.---
(PID.TID 0000.0001) //     34 --.-----------------------------------------------------------.---
(PID.TID 0000.0001) //     33 --.-----------------------------------------------------------.---
(PID.TID 0000.0001) //     32 --.-----------------------------------------------------------.---
(PID.TID 0000.0001) //     31 --.-----------------------------------------------------------.---
(PID.TID 0000.0001) //     30 --.-----------------------------------------------------------.---
(PID.TID 0000.0001) //     29 --.-----------------------------------------------------------.---
(PID.TID 0000.0001) //     28 --.-----------------------------------------------------------.---
(PID.TID 0000.0001) //     27 --.-----------------------------------------------------------.---
(PID.TID 0000.0001) //     26 --.-----------------------------------------------------------.---
(PID.TID 0000.0001) //     25 --.-----------------------------------------------------------.---
(PID.TID 0000.0001) //     24 --.-----------------------------------------------------------.---
(PID.TID 0000.0001) //     23 --.-----------------------------------------------------------.---
(PID.TID 0000.0001) //     22 --.-----------------------------------------------------------.---
(PID.TID 0000.0001) //     21 --.-----------------------------------------------------------.---
(PID.TID 0000.0001) //     20 --.-----------------------------------------------------------.---
(PID.TID 0000.0001) //     19 --.-----------------------------------------------------------.---
(PID.TID 0000.0001) //     18 --.-----------------------------------------------------------.---
(PID.TID 0000.0001) //     17 --.-----------------------------------------------------------.---
(PID.TID 0000.0001) //     16 --.-----------------------------------------------------------.---
(PID.TID 0000.0001) //     15 --.-----------------------------------------------------------.---
(PID.TID 0000.0001) //     14 --.-----------------------------------------------------------.---
(PID.TID 0000.0001) //     13 --.-----------------------------------------------------------.---
(PID.TID 0000.0001) //     12 --.-----------------------------------------------------------.---
(PID.TID 0000.0001) //     11 --.-----------------------------------------------------------.---
(PID.TID 0000.0001) //     10 --.-----------------------------------------------------------.---
(PID.TID 0000.0001) //      9 --.-----------------------------------------------------------.---
(PID.TID 0000.0001) //      8 --.-----------------------------------------------------------.---
(PID.TID 0000.0001) //      7 --.-----------------------------------------------------------.---
(PID.TID 0000.0001) //      6 --.-----------------------------------------------------------.---
(PID.TID 0000.0001) //      5 --.-----------------------------------------------------------.---
(PID.TID 0000.0001) //      4 --.-----------------------------------------------------------.---
(PID.TID 0000.0001) //      3 --.-----------------------------------------------------------.---
(PID.TID 0000.0001) //      2 --.-----------------------------------------------------------.---
(PID.TID 0000.0001) //      1 --.-----------------------------------------------------------.---
(PID.TID 0000.0001) //      0 ..................................................................
(PID.TID 0000.0001) //     -1 --.-----------------------------------------------------------.---
(PID.TID 0000.0001) //     -2 --.-----------------------------------------------------------.---
(PID.TID 0000.0001) // =======================================================
(PID.TID 0000.0001) // END OF FIELD                                          =
(PID.TID 0000.0001) // =======================================================
(PID.TID 0000.0001) 
(PID.TID 0000.0001) // =======================================================
(PID.TID 0000.0001) // Field hFacW at iteration          1
(PID.TID 0000.0001) // CMIN =          1.000000000000000E+00
(PID.TID 0000.0001) // CMAX =          1.000000000000000E+00
(PID.TID 0000.0001) // CINT =          0.000000000000000E+00
(PID.TID 0000.0001) // SYMBOLS (CMIN->CMAX): -abcdefghijklmnopqrstuvwxyz+
(PID.TID 0000.0001) //                  0.0: .
(PID.TID 0000.0001) // RANGE I (Lo:Hi:Step):(  -2:  63:   1)
(PID.TID 0000.0001) // RANGE J (Lo:Hi:Step):(  63:  -2:  -1)
(PID.TID 0000.0001) // RANGE K (Lo:Hi:Step):(   1:   1:   1)
(PID.TID 0000.0001) // =======================================================
(PID.TID 0000.0001) K =   1
(PID.TID 0000.0001) //                I=7       I=17      I=27      I=37      I=47      I=57
(PID.TID 0000.0001) // |--J--|**0123456|890123456|890123456|890123456|890123456|890123456|890123
(PID.TID 0000.0001) //     63 --..----------------------------------------------------------..--
(PID.TID 0000.0001) //     62 --..----------------------------------------------------------..--
(PID.TID 0000.0001) //     61 --..----------------------------------------------------------..--
(PID.TID 0000.0001) //     60 ..................................................................
(PID.TID 0000.0001) //     59 --..----------------------------------------------------------..--
(PID.TID 0000.0001) //     58 --..----------------------------------------------------------..--
(PID.TID 0000.0001) //     57 --..----------------------------------------------------------..--
(PID.TID 0000.0001) //     56 --..----------------------------------------------------------..--
(PID.TID 0000.0001) //     55 --..----------------------------------------------------------..--
(PID.TID 0000.0001) //     54 --..----------------------------------------------------------..--
(PID.TID 0000.0001) //     53 --..----------------------------------------------------------..--
(PID.TID 0000.0001) //     52 --..----------------------------------------------------------..--
(PID.TID 0000.0001) //     51 --..----------------------------------------------------------..--
(PID.TID 0000.0001) //     50 --..----------------------------------------------------------..--
(PID.TID 0000.0001) //     49 --..----------------------------------------------------------..--
(PID.TID 0000.0001) //     48 --..----------------------------------------------------------..--
(PID.TID 0000.0001) //     47 --..----------------------------------------------------------..--
(PID.TID 0000.0001) //     46 --..----------------------------------------------------------..--
(PID.TID 0000.0001) //     45 --..----------------------------------------------------------..--
(PID.TID 0000.0001) //     44 --..----------------------------------------------------------..--
(PID.TID 0000.0001) //     43 --..----------------------------------------------------------..--
(PID.TID 0000.0001) //     42 --..----------------------------------------------------------..--
(PID.TID 0000.0001) //     41 --..----------------------------------------------------------..--
(PID.TID 0000.0001) //     40 --..----------------------------------------------------------..--
(PID.TID 0000.0001) //     39 --..----------------------------------------------------------..--
(PID.TID 0000.0001) //     38 --..----------------------------------------------------------..--
(PID.TID 0000.0001) //     37 --..----------------------------------------------------------..--
(PID.TID 0000.0001) //     36 --..----------------------------------------------------------..--
(PID.TID 0000.0001) //     35 --..----------------------------------------------------------..--
(PID.TID 0000.0001) //     34 --..----------------------------------------------------------..--
(PID.TID 0000.0001) //     33 --..----------------------------------------------------------..--
(PID.TID 0000.0001) //     32 --..----------------------------------------------------------..--
(PID.TID 0000.0001) //     31 --..----------------------------------------------------------..--
(PID.TID 0000.0001) //     30 --..----------------------------------------------------------..--
(PID.TID 0000.0001) //     29 --..----------------------------------------------------------..--
(PID.TID 0000.0001) //     28 --..----------------------------------------------------------..--
(PID.TID 0000.0001) //     27 --..----------------------------------------------------------..--
(PID.TID 0000.0001) //     26 --..----------------------------------------------------------..--
(PID.TID 0000.0001) //     25 --..----------------------------------------------------------..--
(PID.TID 0000.0001) //     24 --..----------------------------------------------------------..--
(PID.TID 0000.0001) //     23 --..----------------------------------------------------------..--
(PID.TID 0000.0001) //     22 --..----------------------------------------------------------..--
(PID.TID 0000.0001) //     21 --..----------------------------------------------------------..--
(PID.TID 0000.0001) //     20 --..----------------------------------------------------------..--
(PID.TID 0000.0001) //     19 --..----------------------------------------------------------..--
(PID.TID 0000.0001) //     18 --..----------------------------------------------------------..--
(PID.TID 0000.0001) //     17 --..----------------------------------------------------------..--
(PID.TID 0000.0001) //     16 --..----------------------------------------------------------..--
(PID.TID 0000.0001) //     15 --..----------------------------------------------------------..--
(PID.TID 0000.0001) //     14 --..----------------------------------------------------------..--
(PID.TID 0000.0001) //     13 --..----------------------------------------------------------..--
(PID.TID 0000.0001) //     12 --..----------------------------------------------------------..--
(PID.TID 0000.0001) //     11 --..----------------------------------------------------------..--
(PID.TID 0000.0001) //     10 --..----------------------------------------------------------..--
(PID.TID 0000.0001) //      9 --..----------------------------------------------------------..--
(PID.TID 0000.0001) //      8 --..----------------------------------------------------------..--
(PID.TID 0000.0001) //      7 --..----------------------------------------------------------..--
(PID.TID 0000.0001) //      6 --..----------------------------------------------------------..--
(PID.TID 0000.0001) //      5 --..----------------------------------------------------------..--
(PID.TID 0000.0001) //      4 --..----------------------------------------------------------..--
(PID.TID 0000.0001) //      3 --..----------------------------------------------------------..--
(PID.TID 0000.0001) //      2 --..----------------------------------------------------------..--
(PID.TID 0000.0001) //      1 --..----------------------------------------------------------..--
(PID.TID 0000.0001) //      0 ..................................................................
(PID.TID 0000.0001) //     -1 --..----------------------------------------------------------..--
(PID.TID 0000.0001) //     -2 --..----------------------------------------------------------..--
(PID.TID 0000.0001) // =======================================================
(PID.TID 0000.0001) // END OF FIELD                                          =
(PID.TID 0000.0001) // =======================================================
(PID.TID 0000.0001) 
(PID.TID 0000.0001) // =======================================================
(PID.TID 0000.0001) // Field hFacS at iteration          1
(PID.TID 0000.0001) // CMIN =          1.000000000000000E+00
(PID.TID 0000.0001) // CMAX =          1.000000000000000E+00
(PID.TID 0000.0001) // CINT =          0.000000000000000E+00
(PID.TID 0000.0001) // SYMBOLS (CMIN->CMAX): -abcdefghijklmnopqrstuvwxyz+
(PID.TID 0000.0001) //                  0.0: .
(PID.TID 0000.0001) // RANGE I (Lo:Hi:Step):(  -2:  63:   1)
(PID.TID 0000.0001) // RANGE J (Lo:Hi:Step):(  63:  -2:  -1)
(PID.TID 0000.0001) // RANGE K (Lo:Hi:Step):(   1:   1:   1)
(PID.TID 0000.0001) // =======================================================
(PID.TID 0000.0001) K =   1
(PID.TID 0000.0001) //                I=7       I=17      I=27      I=37      I=47      I=57
(PID.TID 0000.0001) // |--J--|**0123456|890123456|890123456|890123456|890123456|890123456|890123
(PID.TID 0000.0001) //     63 --.-----------------------------------------------------------.---
(PID.TID 0000.0001) //     62 --.-----------------------------------------------------------.---
(PID.TID 0000.0001) //     61 ..................................................................
(PID.TID 0000.0001) //     60 ..................................................................
(PID.TID 0000.0001) //     59 --.-----------------------------------------------------------.---
(PID.TID 0000.0001) //     58 --.-----------------------------------------------------------.---
(PID.TID 0000.0001) //     57 --.-----------------------------------------------------------.---
(PID.TID 0000.0001) //     56 --.-----------------------------------------------------------.---
(PID.TID 0000.0001) //     55 --.-----------------------------------------------------------.---
(PID.TID 0000.0001) //     54 --.-----------------------------------------------------------.---
(PID.TID 0000.0001) //     53 --.-----------------------------------------------------------.---
(PID.TID 0000.0001) //     52 --.-----------------------------------------------------------.---
(PID.TID 0000.0001) //     51 --.-----------------------------------------------------------.---
(PID.TID 0000.0001) //     50 --.-----------------------------------------------------------.---
(PID.TID 0000.0001) //     49 --.-----------------------------------------------------------.---
(PID.TID 0000.0001) //     48 --.-----------------------------------------------------------.---
(PID.TID 0000.0001) //     47 --.-----------------------------------------------------------.---
(PID.TID 0000.0001) //     46 --.-----------------------------------------------------------.---
(PID.TID 0000.0001) //     45 --.-----------------------------------------------------------.---
(PID.TID 0000.0001) //     44 --.-----------------------------------------------------------.---
(PID.TID 0000.0001) //     43 --.-----------------------------------------------------------.---
(PID.TID 0000.0001) //     42 --.-----------------------------------------------------------.---
(PID.TID 0000.0001) //     41 --.-----------------------------------------------------------.---
(PID.TID 0000.0001) //     40 --.-----------------------------------------------------------.---
(PID.TID 0000.0001) //     39 --.-----------------------------------------------------------.---
(PID.TID 0000.0001) //     38 --.-----------------------------------------------------------.---
(PID.TID 0000.0001) //     37 --.-----------------------------------------------------------.---
(PID.TID 0000.0001) //     36 --.-----------------------------------------------------------.---
(PID.TID 0000.0001) //     35 --.-----------------------------------------------------------.---
(PID.TID 0000.0001) //     34 --.-----------------------------------------------------------.---
(PID.TID 0000.0001) //     33 --.-----------------------------------------------------------.---
(PID.TID 0000.0001) //     32 --.-----------------------------------------------------------.---
(PID.TID 0000.0001) //     31 --.-----------------------------------------------------------.---
(PID.TID 0000.0001) //     30 --.-----------------------------------------------------------.---
(PID.TID 0000.0001) //     29 --.-----------------------------------------------------------.---
(PID.TID 0000.0001) //     28 --.-----------------------------------------------------------.---
(PID.TID 0000.0001) //     27 --.-----------------------------------------------------------.---
(PID.TID 0000.0001) //     26 --.-----------------------------------------------------------.---
(PID.TID 0000.0001) //     25 --.-----------------------------------------------------------.---
(PID.TID 0000.0001) //     24 --.-----------------------------------------------------------.---
(PID.TID 0000.0001) //     23 --.-----------------------------------------------------------.---
(PID.TID 0000.0001) //     22 --.-----------------------------------------------------------.---
(PID.TID 0000.0001) //     21 --.-----------------------------------------------------------.---
(PID.TID 0000.0001) //     20 --.-----------------------------------------------------------.---
(PID.TID 0000.0001) //     19 --.-----------------------------------------------------------.---
(PID.TID 0000.0001) //     18 --.-----------------------------------------------------------.---
(PID.TID 0000.0001) //     17 --.-----------------------------------------------------------.---
(PID.TID 0000.0001) //     16 --.-----------------------------------------------------------.---
(PID.TID 0000.0001) //     15 --.-----------------------------------------------------------.---
(PID.TID 0000.0001) //     14 --.-----------------------------------------------------------.---
(PID.TID 0000.0001) //     13 --.-----------------------------------------------------------.---
(PID.TID 0000.0001) //     12 --.-----------------------------------------------------------.---
(PID.TID 0000.0001) //     11 --.-----------------------------------------------------------.---
(PID.TID 0000.0001) //     10 --.-----------------------------------------------------------.---
(PID.TID 0000.0001) //      9 --.-----------------------------------------------------------.---
(PID.TID 0000.0001) //      8 --.-----------------------------------------------------------.---
(PID.TID 0000.0001) //      7 --.-----------------------------------------------------------.---
(PID.TID 0000.0001) //      6 --.-----------------------------------------------------------.---
(PID.TID 0000.0001) //      5 --.-----------------------------------------------------------.---
(PID.TID 0000.0001) //      4 --.-----------------------------------------------------------.---
(PID.TID 0000.0001) //      3 --.-----------------------------------------------------------.---
(PID.TID 0000.0001) //      2 --.-----------------------------------------------------------.---
(PID.TID 0000.0001) //      1 ..................................................................
(PID.TID 0000.0001) //      0 ..................................................................
(PID.TID 0000.0001) //     -1 --.-----------------------------------------------------------.---
(PID.TID 0000.0001) //     -2 --.-----------------------------------------------------------.---
(PID.TID 0000.0001) // =======================================================
(PID.TID 0000.0001) // END OF FIELD                                          =
(PID.TID 0000.0001) // =======================================================
(PID.TID 0000.0001) 
(PID.TID 0000.0001) %MON fCori_max                    =   1.1190000000000E-04
(PID.TID 0000.0001) %MON fCori_min                    =   1.0010000000000E-04
(PID.TID 0000.0001) %MON fCori_mean                   =   1.0600000000000E-04
(PID.TID 0000.0001) %MON fCori_sd                     =   3.4636204564973E-06
(PID.TID 0000.0001) %MON fCoriG_max                   =   1.1180000000000E-04
(PID.TID 0000.0001) %MON fCoriG_min                   =   1.0000000000000E-04
(PID.TID 0000.0001) %MON fCoriG_mean                  =   1.0590000000000E-04
(PID.TID 0000.0001) %MON fCoriG_sd                    =   3.4636204564973E-06
(PID.TID 0000.0001)  PACKAGE_INIT: opening data.pkg
(PID.TID 0000.0001)  OPEN_COPY_DATA_FILE: opening file data.pkg
(PID.TID 0000.0001) // =======================================================
(PID.TID 0000.0001) // Parameter file "data.pkg"
(PID.TID 0000.0001) // =======================================================
(PID.TID 0000.0001) ># Packages
(PID.TID 0000.0001) > &PACKAGES
(PID.TID 0000.0001) > &
(PID.TID 0000.0001) 
(PID.TID 0000.0001)  PACKAGE_INIT: finished reading data.pkg
(PID.TID 0000.0001) // CG2D normalisation factor =          0.2000000000000000095843472E-03
(PID.TID 0000.0001) 
(PID.TID 0000.0001) // =======================================================
(PID.TID 0000.0001) // Model configuration
(PID.TID 0000.0001) // =======================================================
(PID.TID 0000.0001) //
(PID.TID 0000.0001) // "Physical" paramters ( PARM01 in namelist )
(PID.TID 0000.0001) //
(PID.TID 0000.0001) tRef =   /* Reference temperature profile ( oC or oK ) */
(PID.TID 0000.0001)                 2.000000000000000E+01       /* K =  1 */
(PID.TID 0000.0001)     ;
(PID.TID 0000.0001) sRef =   /* Reference salinity profile ( ppt ) */
(PID.TID 0000.0001)                 1.000000000000000E+01       /* K =  1 */
(PID.TID 0000.0001)     ;
(PID.TID 0000.0001) viscAh =   /* Lateral eddy viscosity ( m^2/s ) */
(PID.TID 0000.0001)                 4.000000000000000E+02
(PID.TID 0000.0001)     ;
(PID.TID 0000.0001) viscAh =   /* Lateral biharmonic viscosity ( m^4/s ) */
(PID.TID 0000.0001)                 0.000000000000000E+00
(PID.TID 0000.0001)     ;
(PID.TID 0000.0001) no_slip_sides =  /* Viscous BCs: No-slip sides */
(PID.TID 0000.0001)                   T
(PID.TID 0000.0001)     ;
(PID.TID 0000.0001) viscAz =   /* Vertical eddy viscosity ( m^2/s ) */
(PID.TID 0000.0001)                 1.000000000000000E-02
(PID.TID 0000.0001)     ;
(PID.TID 0000.0001) viscAr =   /* Vertical eddy viscosity ( units of r^2/s ) */
(PID.TID 0000.0001)                 1.000000000000000E-02
(PID.TID 0000.0001)     ;
(PID.TID 0000.0001) diffKhT =   /* Laplacian diffusion of heat laterally ( m^2/s ) */
(PID.TID 0000.0001)                 4.000000000000000E+02
(PID.TID 0000.0001)     ;
(PID.TID 0000.0001) diffK4T =   /* Bihaarmonic diffusion of heat laterally ( m^4/s ) */
(PID.TID 0000.0001)                 0.000000000000000E+00
(PID.TID 0000.0001)     ;
(PID.TID 0000.0001) diffKzT =   /* Laplacian diffusion of heat vertically ( m^2/s ) */
(PID.TID 0000.0001)                 1.000000000000000E-02
(PID.TID 0000.0001)     ;
(PID.TID 0000.0001) diffKrT =   /* Laplacian diffusion of heat vertically ( m^2/s ) */
(PID.TID 0000.0001)                 1.000000000000000E-02
(PID.TID 0000.0001)     ;
(PID.TID 0000.0001) diffKhS =   /* Laplacian diffusion of salt laterally ( m^2/s ) */
(PID.TID 0000.0001)                 0.000000000000000E+00
(PID.TID 0000.0001)     ;
(PID.TID 0000.0001) diffK4S =   /* Bihaarmonic diffusion of salt laterally ( m^4/s ) */
(PID.TID 0000.0001)                 0.000000000000000E+00
(PID.TID 0000.0001)     ;
(PID.TID 0000.0001) diffKzS =   /* Laplacian diffusion of salt vertically ( m^2/s ) */
(PID.TID 0000.0001)                 1.234567000000000E+05
(PID.TID 0000.0001)     ;
(PID.TID 0000.0001) diffKrS =   /* Laplacian diffusion of salt vertically ( m^2/s ) */
(PID.TID 0000.0001)                 0.000000000000000E+00
(PID.TID 0000.0001)     ;
(PID.TID 0000.0001) tAlpha =   /* Linear EOS thermal expansion coefficient ( 1/degree ) */
(PID.TID 0000.0001)                 2.000000000000000E-04
(PID.TID 0000.0001)     ;
(PID.TID 0000.0001) sBeta =   /* Linear EOS haline contraction coefficient ( 1/ppt ) */
(PID.TID 0000.0001)                 0.000000000000000E+00
(PID.TID 0000.0001)     ;
(PID.TID 0000.0001) rhonil =   /* Reference density ( kg/m^3 ) */
(PID.TID 0000.0001)                 9.998000000000000E+02
(PID.TID 0000.0001)     ;
(PID.TID 0000.0001) rhoConst =   /* Reference density ( kg/m^3 ) */
(PID.TID 0000.0001)                 9.998000000000000E+02
(PID.TID 0000.0001)     ;
(PID.TID 0000.0001) gravity =   /* Gravitational acceleration ( m/s^2 ) */
(PID.TID 0000.0001)                 9.810000000000000E+00
(PID.TID 0000.0001)     ;
(PID.TID 0000.0001) gBaro =   /* Barotropic gravity ( m/s^2 ) */
(PID.TID 0000.0001)                 9.810000000000000E+00
(PID.TID 0000.0001)     ;
(PID.TID 0000.0001) f0 =   /* Reference coriolis parameter ( 1/s ) */
(PID.TID 0000.0001)                 1.000000000000000E-04
(PID.TID 0000.0001)     ;
(PID.TID 0000.0001) beta =   /* Beta ( 1/(m.s) ) */
(PID.TID 0000.0001)                 9.999999999999999E-12
(PID.TID 0000.0001)     ;
(PID.TID 0000.0001) freeSurfFac =   /* Implicit free surface factor */
(PID.TID 0000.0001)                 1.000000000000000E+00
(PID.TID 0000.0001)     ;
(PID.TID 0000.0001) implicitFreeSurface =   /* Implicit free surface on/off flag */
(PID.TID 0000.0001)                   T
(PID.TID 0000.0001)     ;
(PID.TID 0000.0001) rigidLid =   /* Rigid lid on/off flag */
(PID.TID 0000.0001)                   F
(PID.TID 0000.0001)     ;
(PID.TID 0000.0001) implicSurfPress =   /* Surface Pressure implicit factor (0-1)*/
(PID.TID 0000.0001)                 1.000000000000000E+00
(PID.TID 0000.0001)     ;
(PID.TID 0000.0001) implicDiv2Dflow =   /* Barot. Flow Div. implicit factor (0-1)*/
(PID.TID 0000.0001)                 1.000000000000000E+00
(PID.TID 0000.0001)     ;
(PID.TID 0000.0001) staggerTimeStep =   /* Stagger time stepping on/off flag */
(PID.TID 0000.0001)                   F
(PID.TID 0000.0001)     ;
(PID.TID 0000.0001) momStepping =  /* Momentum equation on/off flag */
(PID.TID 0000.0001)                   T
(PID.TID 0000.0001)     ;
(PID.TID 0000.0001) momAdvection =  /* Momentum advection on/off flag */
(PID.TID 0000.0001)                   T
(PID.TID 0000.0001)     ;
(PID.TID 0000.0001) momViscosity =  /* Momentum viscosity on/off flag */
(PID.TID 0000.0001)                   T
(PID.TID 0000.0001)     ;
(PID.TID 0000.0001) useCoriolis =  /* Coriolis on/off flag */
(PID.TID 0000.0001)                   T
(PID.TID 0000.0001)     ;
(PID.TID 0000.0001) momForcing =  /* Momentum forcing on/off flag */
(PID.TID 0000.0001)                   T
(PID.TID 0000.0001)     ;
(PID.TID 0000.0001) momPressureForcing =  /* Momentum pressure term on/off flag */
(PID.TID 0000.0001)                   T
(PID.TID 0000.0001)     ;
(PID.TID 0000.0001) tempStepping =  /* Temperature equation on/off flag */
(PID.TID 0000.0001)                   T
(PID.TID 0000.0001)     ;
(PID.TID 0000.0001) nonHydrostatic =  /* Non-Hydrostatic on/off flag */
(PID.TID 0000.0001)                   F
(PID.TID 0000.0001)     ;
(PID.TID 0000.0001) //
(PID.TID 0000.0001) // Elliptic solver(s) paramters ( PARM02 in namelist )
(PID.TID 0000.0001) //
(PID.TID 0000.0001) cg2dMaxIters =   /* Upper limit on 2d con. grad iterations  */
(PID.TID 0000.0001)                    1000
(PID.TID 0000.0001)     ;
(PID.TID 0000.0001) cg2dChkResFreq =   /* 2d con. grad convergence test frequency */
(PID.TID 0000.0001)                       1
(PID.TID 0000.0001)     ;
(PID.TID 0000.0001) cg2dTargetResidual =   /* 2d con. grad target residual  */
(PID.TID 0000.0001)                 1.000000000000000E-07
(PID.TID 0000.0001)     ;
(PID.TID 0000.0001) //
(PID.TID 0000.0001) // Time stepping paramters ( PARM03 in namelist )
(PID.TID 0000.0001) //
(PID.TID 0000.0001) nIter0 =   /* Base timestep number  */
(PID.TID 0000.0001)                       0
(PID.TID 0000.0001)     ;
(PID.TID 0000.0001) nTimeSteps =   /* Number of timesteps */
(PID.TID 0000.0001)                      10
(PID.TID 0000.0001)     ;
(PID.TID 0000.0001) deltatTmom =   /* Momentum equation timestep ( s ) */
(PID.TID 0000.0001)                 1.200000000000000E+03
(PID.TID 0000.0001)     ;
(PID.TID 0000.0001) deltatTtracer =   /* Tracer equation timestep ( s ) */
(PID.TID 0000.0001)                 1.200000000000000E+03
(PID.TID 0000.0001)     ;
(PID.TID 0000.0001) deltatTClock  =   /* Model clock timestep ( s ) */
(PID.TID 0000.0001)                 1.200000000000000E+03
(PID.TID 0000.0001)     ;
(PID.TID 0000.0001) cAdjFreq =   /* Convective adjustment interval ( s ) */
(PID.TID 0000.0001)                 0.000000000000000E+00
(PID.TID 0000.0001)     ;
(PID.TID 0000.0001) abeps =   /* Adams-Bashforth stabilizing weight */
(PID.TID 0000.0001)                 1.000000000000000E-01
(PID.TID 0000.0001)     ;
(PID.TID 0000.0001) tauCD =   /* CD coupling time-scale ( s ) */
(PID.TID 0000.0001)                 1.200000000000000E+03
(PID.TID 0000.0001)     ;
(PID.TID 0000.0001) rCD =   /* Normalised CD coupling parameter */
(PID.TID 0000.0001)                 0.000000000000000E+00
(PID.TID 0000.0001)     ;
(PID.TID 0000.0001) startTime =   /* Run start time ( s ). */
(PID.TID 0000.0001)                 0.000000000000000E+00
(PID.TID 0000.0001)     ;
(PID.TID 0000.0001) endTime =   /* Integration ending time ( s ). */
(PID.TID 0000.0001)                 1.200000000000000E+04
(PID.TID 0000.0001)     ;
(PID.TID 0000.0001) pChkPtFreq =   /* Permanent restart/checkpoint file interval ( s ). */
(PID.TID 0000.0001)                 2.592000000000000E+06
(PID.TID 0000.0001)     ;
(PID.TID 0000.0001) chkPtFreq =   /* Rolling restart/checkpoint file interval ( s ). */
(PID.TID 0000.0001)                 1.200000000000000E+05
(PID.TID 0000.0001)     ;
(PID.TID 0000.0001) dumpFreq =   /* Model state write out interval ( s ). */
(PID.TID 0000.0001)                 2.592000000000000E+06
(PID.TID 0000.0001)     ;
(PID.TID 0000.0001) //
(PID.TID 0000.0001) // Gridding paramters ( PARM04 in namelist )
(PID.TID 0000.0001) //
(PID.TID 0000.0001) usingCartesianGrid =   /* Cartesian coordinates flag ( True / False ) */
(PID.TID 0000.0001)                   T
(PID.TID 0000.0001)     ;
(PID.TID 0000.0001) usingSphericalPolarGrid =   /* Spherical coordinates flag ( True / False ) */
(PID.TID 0000.0001)                   F
(PID.TID 0000.0001)     ;
(PID.TID 0000.0001) groundAtK1 =   /* Lower Boundary (ground) at the surface(k=1) ( T / F ) */
(PID.TID 0000.0001)                   F
(PID.TID 0000.0001)     ;
(PID.TID 0000.0001) Ro_SeaLevel =   /* r(1) ( units of r ) */
(PID.TID 0000.0001)                 0.000000000000000E+00
(PID.TID 0000.0001)     ;
(PID.TID 0000.0001) rkFac =   /* minus Vertical index orientation  */
(PID.TID 0000.0001)                 1.000000000000000E+00
(PID.TID 0000.0001)     ;
(PID.TID 0000.0001) horiVertRatio =   /* Ratio on units : Horiz - Vertical */
(PID.TID 0000.0001)                 1.000000000000000E+00
(PID.TID 0000.0001)     ;
(PID.TID 0000.0001) delZ =   /* W spacing ( m ) */
(PID.TID 0000.0001)                 5.000000000000000E+03       /* K =  1 */
(PID.TID 0000.0001)     ;
(PID.TID 0000.0001) delP =   /* W spacing ( Pa ) */
(PID.TID 0000.0001)                 1.234567000000000E+05       /* K =  1 */
(PID.TID 0000.0001)     ;
(PID.TID 0000.0001) delR =   /* W spacing ( units of r ) */
(PID.TID 0000.0001)                 5.000000000000000E+03       /* K =  1 */
(PID.TID 0000.0001)     ;
(PID.TID 0000.0001) delX =   /* U spacing ( m - cartesian, degrees - spherical ) */
(PID.TID 0000.0001)    60 @  2.000000000000000E+04              /* I =  1: 60 */
(PID.TID 0000.0001)     ;
(PID.TID 0000.0001) delY =   /* V spacing ( m - cartesian, degrees - spherical ) */
(PID.TID 0000.0001)    60 @  2.000000000000000E+04              /* J =  1: 60 */
(PID.TID 0000.0001)     ;
(PID.TID 0000.0001) phiMin =    /* South edge (ignored - cartesian, degrees - spherical ) */
(PID.TID 0000.0001)                 0.000000000000000E+00
(PID.TID 0000.0001)     ;
(PID.TID 0000.0001) thetaMin =    /* West edge ( ignored - cartesian, degrees - spherical ) */
(PID.TID 0000.0001)                 0.000000000000000E+00
(PID.TID 0000.0001)     ;
(PID.TID 0000.0001) rSphere =    /* Radius ( ignored - cartesian, m - spherical ) */
(PID.TID 0000.0001)                 6.370000000000000E+06
(PID.TID 0000.0001)     ;
(PID.TID 0000.0001) xcoord =   /* P-point X coord ( m - cartesian, degrees - spherical ) */
(PID.TID 0000.0001)                 1.000000000000000E+04,      /* I =  1 */
(PID.TID 0000.0001)                 3.000000000000000E+04,      /* I =  2 */
(PID.TID 0000.0001)                 5.000000000000000E+04,      /* I =  3 */
(PID.TID 0000.0001)                 7.000000000000000E+04,      /* I =  4 */
(PID.TID 0000.0001)                 9.000000000000000E+04,      /* I =  5 */
(PID.TID 0000.0001)                 1.100000000000000E+05,      /* I =  6 */
(PID.TID 0000.0001)                 1.300000000000000E+05,      /* I =  7 */
(PID.TID 0000.0001)                 1.500000000000000E+05,      /* I =  8 */
(PID.TID 0000.0001)                 1.700000000000000E+05,      /* I =  9 */
(PID.TID 0000.0001)                 1.900000000000000E+05,      /* I = 10 */
(PID.TID 0000.0001)                 2.100000000000000E+05,      /* I = 11 */
(PID.TID 0000.0001)                 2.300000000000000E+05,      /* I = 12 */
(PID.TID 0000.0001)                 2.500000000000000E+05,      /* I = 13 */
(PID.TID 0000.0001)                 2.700000000000000E+05,      /* I = 14 */
(PID.TID 0000.0001)                 2.900000000000000E+05,      /* I = 15 */
(PID.TID 0000.0001)                 3.100000000000000E+05,      /* I = 16 */
(PID.TID 0000.0001)                 3.300000000000000E+05,      /* I = 17 */
(PID.TID 0000.0001)                 3.500000000000000E+05,      /* I = 18 */
(PID.TID 0000.0001)                 3.700000000000000E+05,      /* I = 19 */
(PID.TID 0000.0001)                 3.900000000000000E+05,      /* I = 20 */
(PID.TID 0000.0001)                 4.100000000000000E+05,      /* I = 21 */
(PID.TID 0000.0001)                 4.300000000000000E+05,      /* I = 22 */
(PID.TID 0000.0001)                 4.500000000000000E+05,      /* I = 23 */
(PID.TID 0000.0001)                 4.700000000000000E+05,      /* I = 24 */
(PID.TID 0000.0001)                 4.900000000000000E+05,      /* I = 25 */
(PID.TID 0000.0001)                 5.100000000000000E+05,      /* I = 26 */
(PID.TID 0000.0001)                 5.300000000000000E+05,      /* I = 27 */
(PID.TID 0000.0001)                 5.500000000000000E+05,      /* I = 28 */
(PID.TID 0000.0001)                 5.700000000000000E+05,      /* I = 29 */
(PID.TID 0000.0001)                 5.900000000000000E+05,      /* I = 30 */
(PID.TID 0000.0001)                 6.100000000000000E+05,      /* I = 31 */
(PID.TID 0000.0001)                 6.300000000000000E+05,      /* I = 32 */
(PID.TID 0000.0001)                 6.500000000000000E+05,      /* I = 33 */
(PID.TID 0000.0001)                 6.700000000000000E+05,      /* I = 34 */
(PID.TID 0000.0001)                 6.900000000000000E+05,      /* I = 35 */
(PID.TID 0000.0001)                 7.100000000000000E+05,      /* I = 36 */
(PID.TID 0000.0001)                 7.300000000000000E+05,      /* I = 37 */
(PID.TID 0000.0001)                 7.500000000000000E+05,      /* I = 38 */
(PID.TID 0000.0001)                 7.700000000000000E+05,      /* I = 39 */
(PID.TID 0000.0001)                 7.900000000000000E+05,      /* I = 40 */
(PID.TID 0000.0001)                 8.100000000000000E+05,      /* I = 41 */
(PID.TID 0000.0001)                 8.300000000000000E+05,      /* I = 42 */
(PID.TID 0000.0001)                 8.500000000000000E+05,      /* I = 43 */
(PID.TID 0000.0001)                 8.700000000000000E+05,      /* I = 44 */
(PID.TID 0000.0001)                 8.900000000000000E+05,      /* I = 45 */
(PID.TID 0000.0001)                 9.100000000000000E+05,      /* I = 46 */
(PID.TID 0000.0001)                 9.300000000000000E+05,      /* I = 47 */
(PID.TID 0000.0001)                 9.500000000000000E+05,      /* I = 48 */
(PID.TID 0000.0001)                 9.700000000000000E+05,      /* I = 49 */
(PID.TID 0000.0001)                 9.900000000000000E+05,      /* I = 50 */
(PID.TID 0000.0001)                 1.010000000000000E+06,      /* I = 51 */
(PID.TID 0000.0001)                 1.030000000000000E+06,      /* I = 52 */
(PID.TID 0000.0001)                 1.050000000000000E+06,      /* I = 53 */
(PID.TID 0000.0001)                 1.070000000000000E+06,      /* I = 54 */
(PID.TID 0000.0001)                 1.090000000000000E+06,      /* I = 55 */
(PID.TID 0000.0001)                 1.110000000000000E+06,      /* I = 56 */
(PID.TID 0000.0001)                 1.130000000000000E+06,      /* I = 57 */
(PID.TID 0000.0001)                 1.150000000000000E+06,      /* I = 58 */
(PID.TID 0000.0001)                 1.170000000000000E+06,      /* I = 59 */
(PID.TID 0000.0001)                 1.190000000000000E+06       /* I = 60 */
(PID.TID 0000.0001)     ;
(PID.TID 0000.0001) ycoord =   /* P-point Y coord ( m - cartesian, degrees - spherical ) */
(PID.TID 0000.0001)                 1.000000000000000E+04,      /* J =  1 */
(PID.TID 0000.0001)                 3.000000000000000E+04,      /* J =  2 */
(PID.TID 0000.0001)                 5.000000000000000E+04,      /* J =  3 */
(PID.TID 0000.0001)                 7.000000000000000E+04,      /* J =  4 */
(PID.TID 0000.0001)                 9.000000000000000E+04,      /* J =  5 */
(PID.TID 0000.0001)                 1.100000000000000E+05,      /* J =  6 */
(PID.TID 0000.0001)                 1.300000000000000E+05,      /* J =  7 */
(PID.TID 0000.0001)                 1.500000000000000E+05,      /* J =  8 */
(PID.TID 0000.0001)                 1.700000000000000E+05,      /* J =  9 */
(PID.TID 0000.0001)                 1.900000000000000E+05,      /* J = 10 */
(PID.TID 0000.0001)                 2.100000000000000E+05,      /* J = 11 */
(PID.TID 0000.0001)                 2.300000000000000E+05,      /* J = 12 */
(PID.TID 0000.0001)                 2.500000000000000E+05,      /* J = 13 */
(PID.TID 0000.0001)                 2.700000000000000E+05,      /* J = 14 */
(PID.TID 0000.0001)                 2.900000000000000E+05,      /* J = 15 */
(PID.TID 0000.0001)                 3.100000000000000E+05,      /* J = 16 */
(PID.TID 0000.0001)                 3.300000000000000E+05,      /* J = 17 */
(PID.TID 0000.0001)                 3.500000000000000E+05,      /* J = 18 */
(PID.TID 0000.0001)                 3.700000000000000E+05,      /* J = 19 */
(PID.TID 0000.0001)                 3.900000000000000E+05,      /* J = 20 */
(PID.TID 0000.0001)                 4.100000000000000E+05,      /* J = 21 */
(PID.TID 0000.0001)                 4.300000000000000E+05,      /* J = 22 */
(PID.TID 0000.0001)                 4.500000000000000E+05,      /* J = 23 */
(PID.TID 0000.0001)                 4.700000000000000E+05,      /* J = 24 */
(PID.TID 0000.0001)                 4.900000000000000E+05,      /* J = 25 */
(PID.TID 0000.0001)                 5.100000000000000E+05,      /* J = 26 */
(PID.TID 0000.0001)                 5.300000000000000E+05,      /* J = 27 */
(PID.TID 0000.0001)                 5.500000000000000E+05,      /* J = 28 */
(PID.TID 0000.0001)                 5.700000000000000E+05,      /* J = 29 */
(PID.TID 0000.0001)                 5.900000000000000E+05,      /* J = 30 */
(PID.TID 0000.0001)                 6.100000000000000E+05,      /* J = 31 */
(PID.TID 0000.0001)                 6.300000000000000E+05,      /* J = 32 */
(PID.TID 0000.0001)                 6.500000000000000E+05,      /* J = 33 */
(PID.TID 0000.0001)                 6.700000000000000E+05,      /* J = 34 */
(PID.TID 0000.0001)                 6.900000000000000E+05,      /* J = 35 */
(PID.TID 0000.0001)                 7.100000000000000E+05,      /* J = 36 */
(PID.TID 0000.0001)                 7.300000000000000E+05,      /* J = 37 */
(PID.TID 0000.0001)                 7.500000000000000E+05,      /* J = 38 */
(PID.TID 0000.0001)                 7.700000000000000E+05,      /* J = 39 */
(PID.TID 0000.0001)                 7.900000000000000E+05,      /* J = 40 */
(PID.TID 0000.0001)                 8.100000000000000E+05,      /* J = 41 */
(PID.TID 0000.0001)                 8.300000000000000E+05,      /* J = 42 */
(PID.TID 0000.0001)                 8.500000000000000E+05,      /* J = 43 */
(PID.TID 0000.0001)                 8.700000000000000E+05,      /* J = 44 */
(PID.TID 0000.0001)                 8.900000000000000E+05,      /* J = 45 */
(PID.TID 0000.0001)                 9.100000000000000E+05,      /* J = 46 */
(PID.TID 0000.0001)                 9.300000000000000E+05,      /* J = 47 */
(PID.TID 0000.0001)                 9.500000000000000E+05,      /* J = 48 */
(PID.TID 0000.0001)                 9.700000000000000E+05,      /* J = 49 */
(PID.TID 0000.0001)                 9.900000000000000E+05,      /* J = 50 */
(PID.TID 0000.0001)                 1.010000000000000E+06,      /* J = 51 */
(PID.TID 0000.0001)                 1.030000000000000E+06,      /* J = 52 */
(PID.TID 0000.0001)                 1.050000000000000E+06,      /* J = 53 */
(PID.TID 0000.0001)                 1.070000000000000E+06,      /* J = 54 */
(PID.TID 0000.0001)                 1.090000000000000E+06,      /* J = 55 */
(PID.TID 0000.0001)                 1.110000000000000E+06,      /* J = 56 */
(PID.TID 0000.0001)                 1.130000000000000E+06,      /* J = 57 */
(PID.TID 0000.0001)                 1.150000000000000E+06,      /* J = 58 */
(PID.TID 0000.0001)                 1.170000000000000E+06,      /* J = 59 */
(PID.TID 0000.0001)                 1.190000000000000E+06       /* J = 60 */
(PID.TID 0000.0001)     ;
(PID.TID 0000.0001) rcoord =   /* P-point R coordinate (  units of r ) */
(PID.TID 0000.0001)                -2.500000000000000E+03       /* K =  1 */
(PID.TID 0000.0001)     ;
(PID.TID 0000.0001) dxF =  /* dxF(:,1,:,1) ( m - cartesian, degrees - spherical ) */
(PID.TID 0000.0001)    60 @  2.000000000000000E+04              /* I =  1: 60 */
(PID.TID 0000.0001)     ;
(PID.TID 0000.0001) dxF =  /* dxF(1,:,1,:) ( m - cartesian, degrees - spherical ) */
(PID.TID 0000.0001)    60 @  2.000000000000000E+04              /* J =  1: 60 */
(PID.TID 0000.0001)     ;
(PID.TID 0000.0001) dyF =  /* dyF(:,1,:,1) ( m - cartesian, degrees - spherical ) */
(PID.TID 0000.0001)    60 @  2.000000000000000E+04              /* I =  1: 60 */
(PID.TID 0000.0001)     ;
(PID.TID 0000.0001) dyF =  /* dyF(1,:,1,:) ( m - cartesian, degrees - spherical ) */
(PID.TID 0000.0001)    60 @  2.000000000000000E+04              /* J =  1: 60 */
(PID.TID 0000.0001)     ;
(PID.TID 0000.0001) dxG =  /* dxG(:,1,:,1) ( m - cartesian, degrees - spherical ) */
(PID.TID 0000.0001)    60 @  2.000000000000000E+04              /* I =  1: 60 */
(PID.TID 0000.0001)     ;
(PID.TID 0000.0001) dxG =  /* dxG(1,:,1,:) ( m - cartesian, degrees - spherical ) */
(PID.TID 0000.0001)    60 @  2.000000000000000E+04              /* J =  1: 60 */
(PID.TID 0000.0001)     ;
(PID.TID 0000.0001) dyG =  /* dyG(:,1,:,1) ( m - cartesian, degrees - spherical ) */
(PID.TID 0000.0001)    60 @  2.000000000000000E+04              /* I =  1: 60 */
(PID.TID 0000.0001)     ;
(PID.TID 0000.0001) dyG =  /* dyG(1,:,1,:) ( m - cartesian, degrees - spherical ) */
(PID.TID 0000.0001)    60 @  2.000000000000000E+04              /* J =  1: 60 */
(PID.TID 0000.0001)     ;
(PID.TID 0000.0001) dxC =  /* dxC(:,1,:,1) ( m - cartesian, degrees - spherical ) */
(PID.TID 0000.0001)    60 @  2.000000000000000E+04              /* I =  1: 60 */
(PID.TID 0000.0001)     ;
(PID.TID 0000.0001) dxC =  /* dxC(1,:,1,:) ( m - cartesian, degrees - spherical ) */
(PID.TID 0000.0001)    60 @  2.000000000000000E+04              /* J =  1: 60 */
(PID.TID 0000.0001)     ;
(PID.TID 0000.0001) dyC =  /* dyC(:,1,:,1) ( m - cartesian, degrees - spherical ) */
(PID.TID 0000.0001)    60 @  2.000000000000000E+04              /* I =  1: 60 */
(PID.TID 0000.0001)     ;
(PID.TID 0000.0001) dyC =  /* dyC(1,:,1,:) ( m - cartesian, degrees - spherical ) */
(PID.TID 0000.0001)    60 @  2.000000000000000E+04              /* J =  1: 60 */
(PID.TID 0000.0001)     ;
(PID.TID 0000.0001) dxV =  /* dxV(:,1,:,1) ( m - cartesian, degrees - spherical ) */
(PID.TID 0000.0001)    60 @  2.000000000000000E+04              /* I =  1: 60 */
(PID.TID 0000.0001)     ;
(PID.TID 0000.0001) dxV =  /* dxV(1,:,1,:) ( m - cartesian, degrees - spherical ) */
(PID.TID 0000.0001)    60 @  2.000000000000000E+04              /* J =  1: 60 */
(PID.TID 0000.0001)     ;
(PID.TID 0000.0001) dyU =  /* dyU(:,1,:,1) ( m - cartesian, degrees - spherical ) */
(PID.TID 0000.0001)    60 @  2.000000000000000E+04              /* I =  1: 60 */
(PID.TID 0000.0001)     ;
(PID.TID 0000.0001) dyU =  /* dyU(1,:,1,:) ( m - cartesian, degrees - spherical ) */
(PID.TID 0000.0001)    60 @  2.000000000000000E+04              /* J =  1: 60 */
(PID.TID 0000.0001)     ;
(PID.TID 0000.0001) rA =  /* rA(:,1,:,1) ( m - cartesian, degrees - spherical ) */
(PID.TID 0000.0001)    60 @  4.000000000000000E+08              /* I =  1: 60 */
(PID.TID 0000.0001)     ;
(PID.TID 0000.0001) rA =  /* rA(1,:,1,:) ( m - cartesian, degrees - spherical ) */
(PID.TID 0000.0001)    60 @  4.000000000000000E+08              /* J =  1: 60 */
(PID.TID 0000.0001)     ;
(PID.TID 0000.0001) rAw =  /* rAw(:,1,:,1) ( m - cartesian, degrees - spherical ) */
(PID.TID 0000.0001)    60 @  4.000000000000000E+08              /* I =  1: 60 */
(PID.TID 0000.0001)     ;
(PID.TID 0000.0001) rAw =  /* rAw(1,:,1,:) ( m - cartesian, degrees - spherical ) */
(PID.TID 0000.0001)    60 @  4.000000000000000E+08              /* J =  1: 60 */
(PID.TID 0000.0001)     ;
(PID.TID 0000.0001) rAs =  /* rAs(:,1,:,1) ( m - cartesian, degrees - spherical ) */
(PID.TID 0000.0001)    60 @  4.000000000000000E+08              /* I =  1: 60 */
(PID.TID 0000.0001)     ;
(PID.TID 0000.0001) rAs =  /* rAs(1,:,1,:) ( m - cartesian, degrees - spherical ) */
(PID.TID 0000.0001)    60 @  4.000000000000000E+08              /* J =  1: 60 */
(PID.TID 0000.0001)     ;
(PID.TID 0000.0001) 
(PID.TID 0000.0001) // =======================================================
(PID.TID 0000.0001) // Field Initial Temperature at iteration          1
(PID.TID 0000.0001) // CMIN =          2.000000000000000E+01
(PID.TID 0000.0001) // CMAX =          2.000000000000000E+01
(PID.TID 0000.0001) // CINT =          0.000000000000000E+00
(PID.TID 0000.0001) // SYMBOLS (CMIN->CMAX): -abcdefghijklmnopqrstuvwxyz+
(PID.TID 0000.0001) //                  0.0: .
(PID.TID 0000.0001) // RANGE I (Lo:Hi:Step):(   1:  60:   1)
(PID.TID 0000.0001) // RANGE J (Lo:Hi:Step):(  60:   1:  -1)
(PID.TID 0000.0001) // RANGE K (Lo:Hi:Step):(   1:   1:   1)
(PID.TID 0000.0001) // =======================================================
(PID.TID 0000.0001) K =   1
(PID.TID 0000.0001)                I=10      I=20      I=30      I=40      I=50      I=60
(PID.TID 0000.0001) |--J--|123456789|123456789|123456789|123456789|123456789|123456789|
(PID.TID 0000.0001)     60 ............................................................
(PID.TID 0000.0001)     59 -----------------------------------------------------------.
(PID.TID 0000.0001)     58 -----------------------------------------------------------.
(PID.TID 0000.0001)     57 -----------------------------------------------------------.
(PID.TID 0000.0001)     56 -----------------------------------------------------------.
(PID.TID 0000.0001)     55 -----------------------------------------------------------.
(PID.TID 0000.0001)     54 -----------------------------------------------------------.
(PID.TID 0000.0001)     53 -----------------------------------------------------------.
(PID.TID 0000.0001)     52 -----------------------------------------------------------.
(PID.TID 0000.0001)     51 -----------------------------------------------------------.
(PID.TID 0000.0001)     50 -----------------------------------------------------------.
(PID.TID 0000.0001)     49 -----------------------------------------------------------.
(PID.TID 0000.0001)     48 -----------------------------------------------------------.
(PID.TID 0000.0001)     47 -----------------------------------------------------------.
(PID.TID 0000.0001)     46 -----------------------------------------------------------.
(PID.TID 0000.0001)     45 -----------------------------------------------------------.
(PID.TID 0000.0001)     44 -----------------------------------------------------------.
(PID.TID 0000.0001)     43 -----------------------------------------------------------.
(PID.TID 0000.0001)     42 -----------------------------------------------------------.
(PID.TID 0000.0001)     41 -----------------------------------------------------------.
(PID.TID 0000.0001)     40 -----------------------------------------------------------.
(PID.TID 0000.0001)     39 -----------------------------------------------------------.
(PID.TID 0000.0001)     38 -----------------------------------------------------------.
(PID.TID 0000.0001)     37 -----------------------------------------------------------.
(PID.TID 0000.0001)     36 -----------------------------------------------------------.
(PID.TID 0000.0001)     35 -----------------------------------------------------------.
(PID.TID 0000.0001)     34 -----------------------------------------------------------.
(PID.TID 0000.0001)     33 -----------------------------------------------------------.
(PID.TID 0000.0001)     32 -----------------------------------------------------------.
(PID.TID 0000.0001)     31 -----------------------------------------------------------.
(PID.TID 0000.0001)     30 -----------------------------------------------------------.
(PID.TID 0000.0001)     29 -----------------------------------------------------------.
(PID.TID 0000.0001)     28 -----------------------------------------------------------.
(PID.TID 0000.0001)     27 -----------------------------------------------------------.
(PID.TID 0000.0001)     26 -----------------------------------------------------------.
(PID.TID 0000.0001)     25 -----------------------------------------------------------.
(PID.TID 0000.0001)     24 -----------------------------------------------------------.
(PID.TID 0000.0001)     23 -----------------------------------------------------------.
(PID.TID 0000.0001)     22 -----------------------------------------------------------.
(PID.TID 0000.0001)     21 -----------------------------------------------------------.
(PID.TID 0000.0001)     20 -----------------------------------------------------------.
(PID.TID 0000.0001)     19 -----------------------------------------------------------.
(PID.TID 0000.0001)     18 -----------------------------------------------------------.
(PID.TID 0000.0001)     17 -----------------------------------------------------------.
(PID.TID 0000.0001)     16 -----------------------------------------------------------.
(PID.TID 0000.0001)     15 -----------------------------------------------------------.
(PID.TID 0000.0001)     14 -----------------------------------------------------------.
(PID.TID 0000.0001)     13 -----------------------------------------------------------.
(PID.TID 0000.0001)     12 -----------------------------------------------------------.
(PID.TID 0000.0001)     11 -----------------------------------------------------------.
(PID.TID 0000.0001)     10 -----------------------------------------------------------.
(PID.TID 0000.0001)      9 -----------------------------------------------------------.
(PID.TID 0000.0001)      8 -----------------------------------------------------------.
(PID.TID 0000.0001)      7 -----------------------------------------------------------.
(PID.TID 0000.0001)      6 -----------------------------------------------------------.
(PID.TID 0000.0001)      5 -----------------------------------------------------------.
(PID.TID 0000.0001)      4 -----------------------------------------------------------.
(PID.TID 0000.0001)      3 -----------------------------------------------------------.
(PID.TID 0000.0001)      2 -----------------------------------------------------------.
(PID.TID 0000.0001)      1 -----------------------------------------------------------.
(PID.TID 0000.0001) // =======================================================
(PID.TID 0000.0001) // END OF FIELD                                          =
(PID.TID 0000.0001) // =======================================================
(PID.TID 0000.0001) 
(PID.TID 0000.0001) // =======================================================
(PID.TID 0000.0001) // Field Initial Salinity at iteration          1
(PID.TID 0000.0001) // CMIN =          1.000000000000000E+01
(PID.TID 0000.0001) // CMAX =          1.000000000000000E+01
(PID.TID 0000.0001) // CINT =          0.000000000000000E+00
(PID.TID 0000.0001) // SYMBOLS (CMIN->CMAX): -abcdefghijklmnopqrstuvwxyz+
(PID.TID 0000.0001) //                  0.0: .
(PID.TID 0000.0001) // RANGE I (Lo:Hi:Step):(   1:  60:   1)
(PID.TID 0000.0001) // RANGE J (Lo:Hi:Step):(  60:   1:  -1)
(PID.TID 0000.0001) // RANGE K (Lo:Hi:Step):(   1:   1:   1)
(PID.TID 0000.0001) // =======================================================
(PID.TID 0000.0001) K =   1
(PID.TID 0000.0001)                I=10      I=20      I=30      I=40      I=50      I=60
(PID.TID 0000.0001) |--J--|123456789|123456789|123456789|123456789|123456789|123456789|
(PID.TID 0000.0001)     60 ............................................................
(PID.TID 0000.0001)     59 -----------------------------------------------------------.
(PID.TID 0000.0001)     58 -----------------------------------------------------------.
(PID.TID 0000.0001)     57 -----------------------------------------------------------.
(PID.TID 0000.0001)     56 -----------------------------------------------------------.
(PID.TID 0000.0001)     55 -----------------------------------------------------------.
(PID.TID 0000.0001)     54 -----------------------------------------------------------.
(PID.TID 0000.0001)     53 -----------------------------------------------------------.
(PID.TID 0000.0001)     52 -----------------------------------------------------------.
(PID.TID 0000.0001)     51 -----------------------------------------------------------.
(PID.TID 0000.0001)     50 -----------------------------------------------------------.
(PID.TID 0000.0001)     49 -----------------------------------------------------------.
(PID.TID 0000.0001)     48 -----------------------------------------------------------.
(PID.TID 0000.0001)     47 -----------------------------------------------------------.
(PID.TID 0000.0001)     46 -----------------------------------------------------------.
(PID.TID 0000.0001)     45 -----------------------------------------------------------.
(PID.TID 0000.0001)     44 -----------------------------------------------------------.
(PID.TID 0000.0001)     43 -----------------------------------------------------------.
(PID.TID 0000.0001)     42 -----------------------------------------------------------.
(PID.TID 0000.0001)     41 -----------------------------------------------------------.
(PID.TID 0000.0001)     40 -----------------------------------------------------------.
(PID.TID 0000.0001)     39 -----------------------------------------------------------.
(PID.TID 0000.0001)     38 -----------------------------------------------------------.
(PID.TID 0000.0001)     37 -----------------------------------------------------------.
(PID.TID 0000.0001)     36 -----------------------------------------------------------.
(PID.TID 0000.0001)     35 -----------------------------------------------------------.
(PID.TID 0000.0001)     34 -----------------------------------------------------------.
(PID.TID 0000.0001)     33 -----------------------------------------------------------.
(PID.TID 0000.0001)     32 -----------------------------------------------------------.
(PID.TID 0000.0001)     31 -----------------------------------------------------------.
(PID.TID 0000.0001)     30 -----------------------------------------------------------.
(PID.TID 0000.0001)     29 -----------------------------------------------------------.
(PID.TID 0000.0001)     28 -----------------------------------------------------------.
(PID.TID 0000.0001)     27 -----------------------------------------------------------.
(PID.TID 0000.0001)     26 -----------------------------------------------------------.
(PID.TID 0000.0001)     25 -----------------------------------------------------------.
(PID.TID 0000.0001)     24 -----------------------------------------------------------.
(PID.TID 0000.0001)     23 -----------------------------------------------------------.
(PID.TID 0000.0001)     22 -----------------------------------------------------------.
(PID.TID 0000.0001)     21 -----------------------------------------------------------.
(PID.TID 0000.0001)     20 -----------------------------------------------------------.
(PID.TID 0000.0001)     19 -----------------------------------------------------------.
(PID.TID 0000.0001)     18 -----------------------------------------------------------.
(PID.TID 0000.0001)     17 -----------------------------------------------------------.
(PID.TID 0000.0001)     16 -----------------------------------------------------------.
(PID.TID 0000.0001)     15 -----------------------------------------------------------.
(PID.TID 0000.0001)     14 -----------------------------------------------------------.
(PID.TID 0000.0001)     13 -----------------------------------------------------------.
(PID.TID 0000.0001)     12 -----------------------------------------------------------.
(PID.TID 0000.0001)     11 -----------------------------------------------------------.
(PID.TID 0000.0001)     10 -----------------------------------------------------------.
(PID.TID 0000.0001)      9 -----------------------------------------------------------.
(PID.TID 0000.0001)      8 -----------------------------------------------------------.
(PID.TID 0000.0001)      7 -----------------------------------------------------------.
(PID.TID 0000.0001)      6 -----------------------------------------------------------.
(PID.TID 0000.0001)      5 -----------------------------------------------------------.
(PID.TID 0000.0001)      4 -----------------------------------------------------------.
(PID.TID 0000.0001)      3 -----------------------------------------------------------.
(PID.TID 0000.0001)      2 -----------------------------------------------------------.
(PID.TID 0000.0001)      1 -----------------------------------------------------------.
(PID.TID 0000.0001) // =======================================================
(PID.TID 0000.0001) // END OF FIELD                                          =
(PID.TID 0000.0001) // =======================================================
(PID.TID 0000.0001) 
(PID.TID 0000.0001)  MDSREADFIELD: opening global file: windx.sin_y
(PID.TID 0000.0001) // =======================================================
(PID.TID 0000.0001) // Model current state
(PID.TID 0000.0001) // =======================================================
(PID.TID 0000.0001) 
(PID.TID 0000.0001) // =======================================================
(PID.TID 0000.0001) // Begin MONITOR dynamic field statistics
(PID.TID 0000.0001) // =======================================================
(PID.TID 0000.0001) %MON time_tsnumber                =                     0
(PID.TID 0000.0001) %MON time_secondsf                =   0.0000000000000E+00
(PID.TID 0000.0001) %MON time_secondsi                =                     0
(PID.TID 0000.0001) %MON dynstat_eta_max              =   0.0000000000000E+00
(PID.TID 0000.0001) %MON dynstat_eta_min              =   0.0000000000000E+00
(PID.TID 0000.0001) %MON dynstat_eta_mean             =   0.0000000000000E+00
(PID.TID 0000.0001) %MON dynstat_eta_sd               =   0.0000000000000E+00
(PID.TID 0000.0001) %MON dynstat_uvel_max             =   0.0000000000000E+00
(PID.TID 0000.0001) %MON dynstat_uvel_min             =   0.0000000000000E+00
(PID.TID 0000.0001) %MON dynstat_uvel_mean            =   0.0000000000000E+00
(PID.TID 0000.0001) %MON dynstat_uvel_sd              =   0.0000000000000E+00
(PID.TID 0000.0001) %MON dynstat_vvel_max             =   0.0000000000000E+00
(PID.TID 0000.0001) %MON dynstat_vvel_min             =   0.0000000000000E+00
(PID.TID 0000.0001) %MON dynstat_vvel_mean            =   0.0000000000000E+00
(PID.TID 0000.0001) %MON dynstat_vvel_sd              =   0.0000000000000E+00
(PID.TID 0000.0001) %MON dynstat_wvel_max             =   0.0000000000000E+00
(PID.TID 0000.0001) %MON dynstat_wvel_min             =   0.0000000000000E+00
(PID.TID 0000.0001) %MON dynstat_wvel_mean            =   0.0000000000000E+00
(PID.TID 0000.0001) %MON dynstat_wvel_sd              =   0.0000000000000E+00
(PID.TID 0000.0001) %MON dynstat_theta_max            =   2.0000000000000E+01
(PID.TID 0000.0001) %MON dynstat_theta_min            =   2.0000000000000E+01
(PID.TID 0000.0001) %MON dynstat_theta_mean           =   2.0000000000000E+01
(PID.TID 0000.0001) %MON dynstat_theta_sd             =   0.0000000000000E+00
(PID.TID 0000.0001) %MON dynstat_salt_max             =   1.0000000000000E+01
(PID.TID 0000.0001) %MON dynstat_salt_min             =   1.0000000000000E+01
(PID.TID 0000.0001) %MON dynstat_salt_mean            =   1.0000000000000E+01
(PID.TID 0000.0001) %MON dynstat_salt_sd              =   0.0000000000000E+00
(PID.TID 0000.0001) %MON advcfl_uvel_max              =   0.0000000000000E+00
(PID.TID 0000.0001) %MON advcfl_vvel_max              =   0.0000000000000E+00
(PID.TID 0000.0001) %MON advcfl_wvel_max              =   0.0000000000000E+00
(PID.TID 0000.0001) %MON ke_max                       =   0.0000000000000E+00
(PID.TID 0000.0001) %MON ke_mean                      =   0.0000000000000E+00
(PID.TID 0000.0001) // =======================================================
(PID.TID 0000.0001) // End MONITOR dynamic field statistics
(PID.TID 0000.0001) // =======================================================
 cg2d: Sum(rhs),rhsMax =   0.00000000000000E+00  6.40128025605121E-04
(PID.TID 0000.0001)                    cg2d_init_res =    7.68114574786861E+00
(PID.TID 0000.0001)                       cg2d_iters =    70
(PID.TID 0000.0001)                         cg2d_res =    8.05222445985208E-08
(PID.TID 0000.0001) // =======================================================
(PID.TID 0000.0001) // Begin MONITOR dynamic field statistics
(PID.TID 0000.0001) // =======================================================
(PID.TID 0000.0001) %MON time_tsnumber                =                     1
(PID.TID 0000.0001) %MON time_secondsf                =   1.2000000000000E+03
(PID.TID 0000.0001) %MON time_secondsi                =                  1200
(PID.TID 0000.0001) %MON dynstat_eta_max              =   7.0013812764555E-04
(PID.TID 0000.0001) %MON dynstat_eta_min              =  -7.0013812764555E-04
(PID.TID 0000.0001) %MON dynstat_eta_mean             =   2.1802399331797E-22
(PID.TID 0000.0001) %MON dynstat_eta_sd               =   2.5078285895027E-04
(PID.TID 0000.0001) %MON dynstat_uvel_max             =   3.2460081576633E-05
(PID.TID 0000.0001) %MON dynstat_uvel_min             =  -6.3139895563334E-06
(PID.TID 0000.0001) %MON dynstat_uvel_mean            =   1.3924131921716E-05
(PID.TID 0000.0001) %MON dynstat_uvel_sd              =   1.0721535049505E-05
(PID.TID 0000.0001) %MON dynstat_vvel_max             =   1.2499818322218E-05
(PID.TID 0000.0001) %MON dynstat_vvel_min             =  -1.2499818322218E-05
(PID.TID 0000.0001) %MON dynstat_vvel_mean            =  -6.0396270932218E-23
(PID.TID 0000.0001) %MON dynstat_vvel_sd              =   3.4658957204317E-06
(PID.TID 0000.0001) %MON dynstat_wvel_max             =   0.0000000000000E+00
(PID.TID 0000.0001) %MON dynstat_wvel_min             =   0.0000000000000E+00
(PID.TID 0000.0001) %MON dynstat_wvel_mean            =   0.0000000000000E+00
(PID.TID 0000.0001) %MON dynstat_wvel_sd              =   0.0000000000000E+00
(PID.TID 0000.0001) %MON dynstat_theta_max            =   2.0000000000000E+01
(PID.TID 0000.0001) %MON dynstat_theta_min            =   2.0000000000000E+01
(PID.TID 0000.0001) %MON dynstat_theta_mean           =   2.0000000000000E+01
(PID.TID 0000.0001) %MON dynstat_theta_sd             =   0.0000000000000E+00
(PID.TID 0000.0001) %MON dynstat_salt_max             =   1.0000000000000E+01
(PID.TID 0000.0001) %MON dynstat_salt_min             =   1.0000000000000E+01
(PID.TID 0000.0001) %MON dynstat_salt_mean            =   1.0000000000000E+01
(PID.TID 0000.0001) %MON dynstat_salt_sd              =   0.0000000000000E+00
(PID.TID 0000.0001) %MON advcfl_uvel_max              =   1.9476048945980E-06
(PID.TID 0000.0001) %MON advcfl_vvel_max              =   7.4998909933310E-07
(PID.TID 0000.0001) %MON advcfl_wvel_max              =   0.0000000000000E+00
(PID.TID 0000.0001) %MON ke_max                       =   5.2682844798084E-10
(PID.TID 0000.0001) %MON ke_mean                      =   1.5770357127703E-10
(PID.TID 0000.0001) // =======================================================
(PID.TID 0000.0001) // End MONITOR dynamic field statistics
(PID.TID 0000.0001) // =======================================================
 cg2d: Sum(rhs),rhsMax =   6.14785999886180E-15  4.81447084197405E-04
(PID.TID 0000.0001)                    cg2d_init_res =    4.12388580287790E+00
(PID.TID 0000.0001)                       cg2d_iters =    93
(PID.TID 0000.0001)                         cg2d_res =    9.08365861462287E-08
(PID.TID 0000.0001) // =======================================================
(PID.TID 0000.0001) // Begin MONITOR dynamic field statistics
(PID.TID 0000.0001) // =======================================================
(PID.TID 0000.0001) %MON time_tsnumber                =                     2
(PID.TID 0000.0001) %MON time_secondsf                =   2.4000000000000E+03
(PID.TID 0000.0001) %MON time_secondsi                =                  2400
(PID.TID 0000.0001) %MON dynstat_eta_max              =   9.8823626121753E-04
(PID.TID 0000.0001) %MON dynstat_eta_min              =  -9.8686864648520E-04
(PID.TID 0000.0001) %MON dynstat_eta_mean             =  -1.1730568013324E-14
(PID.TID 0000.0001) %MON dynstat_eta_sd               =   4.6900666745456E-04
(PID.TID 0000.0001) %MON dynstat_uvel_max             =   4.0479583840028E-05
(PID.TID 0000.0001) %MON dynstat_uvel_min             =  -1.9117276416473E-05
(PID.TID 0000.0001) %MON dynstat_uvel_mean            =   1.2838718879388E-05
(PID.TID 0000.0001) %MON dynstat_uvel_sd              =   1.5540921823175E-05
(PID.TID 0000.0001) %MON dynstat_vvel_max             =   2.4933779844757E-05
(PID.TID 0000.0001) %MON dynstat_vvel_min             =  -2.4103737630341E-05
(PID.TID 0000.0001) %MON dynstat_vvel_mean            =  -1.9874373011588E-06
(PID.TID 0000.0001) %MON dynstat_vvel_sd              =   7.4426987803382E-06
(PID.TID 0000.0001) %MON dynstat_wvel_max             =   5.8344844698303E-07
(PID.TID 0000.0001) %MON dynstat_wvel_min             =  -5.8344844698303E-07
(PID.TID 0000.0001) %MON dynstat_wvel_mean            =  -1.6728961540860E-25
(PID.TID 0000.0001) %MON dynstat_wvel_sd              =   2.0898571579189E-07
(PID.TID 0000.0001) %MON dynstat_theta_max            =   2.0000000000000E+01
(PID.TID 0000.0001) %MON dynstat_theta_min            =   2.0000000000000E+01
(PID.TID 0000.0001) %MON dynstat_theta_mean           =   2.0000000000000E+01
(PID.TID 0000.0001) %MON dynstat_theta_sd             =   0.0000000000000E+00
(PID.TID 0000.0001) %MON dynstat_salt_max             =   1.0000000000000E+01
(PID.TID 0000.0001) %MON dynstat_salt_min             =   1.0000000000000E+01
(PID.TID 0000.0001) %MON dynstat_salt_mean            =   1.0000000000000E+01
(PID.TID 0000.0001) %MON dynstat_salt_sd              =   0.0000000000000E+00
(PID.TID 0000.0001) %MON advcfl_uvel_max              =   2.4287750304017E-06
(PID.TID 0000.0001) %MON advcfl_vvel_max              =   1.4960267906854E-06
(PID.TID 0000.0001) %MON advcfl_wvel_max              =   2.8005525455186E-07
(PID.TID 0000.0001) %MON ke_max                       =   8.2915729712998E-10
(PID.TID 0000.0001) %MON ke_mean                      =   2.2890173129538E-10
(PID.TID 0000.0001) // =======================================================
(PID.TID 0000.0001) // End MONITOR dynamic field statistics
(PID.TID 0000.0001) // =======================================================
 cg2d: Sum(rhs),rhsMax =   4.71304439919606E-09  4.81335771001808E-04
(PID.TID 0000.0001)                    cg2d_init_res =    1.82169730985195E+00
(PID.TID 0000.0001)                       cg2d_iters =   101
(PID.TID 0000.0001)                         cg2d_res =    9.97911812446138E-08
(PID.TID 0000.0001) // =======================================================
(PID.TID 0000.0001) // Begin MONITOR dynamic field statistics
(PID.TID 0000.0001) // =======================================================
(PID.TID 0000.0001) %MON time_tsnumber                =                     3
(PID.TID 0000.0001) %MON time_secondsf                =   3.6000000000000E+03
(PID.TID 0000.0001) %MON time_secondsi                =                  3600
(PID.TID 0000.0001) %MON dynstat_eta_max              =   1.1352188029997E-03
(PID.TID 0000.0001) %MON dynstat_eta_min              =  -1.1330519521280E-03
(PID.TID 0000.0001) %MON dynstat_eta_mean             =   1.4281181437729E-14
(PID.TID 0000.0001) %MON dynstat_eta_sd               =   6.0615037067645E-04
(PID.TID 0000.0001) %MON dynstat_uvel_max             =   4.0405930668093E-05
(PID.TID 0000.0001) %MON dynstat_uvel_min             =  -3.7685161213737E-05
(PID.TID 0000.0001) %MON dynstat_uvel_mean            =   7.8464716801267E-06
(PID.TID 0000.0001) %MON dynstat_uvel_sd              =   1.9798297888932E-05
(PID.TID 0000.0001) %MON dynstat_vvel_max             =   3.6207539307474E-05
(PID.TID 0000.0001) %MON dynstat_vvel_min             =  -3.3140103717023E-05
(PID.TID 0000.0001) %MON dynstat_vvel_mean            =  -2.0056138228513E-06
(PID.TID 0000.0001) %MON dynstat_vvel_sd              =   1.0714935735866E-05
(PID.TID 0000.0001) %MON dynstat_wvel_max             =   2.8410263992984E-07
(PID.TID 0000.0001) %MON dynstat_wvel_min             =  -2.8332148678038E-07
(PID.TID 0000.0001) %MON dynstat_wvel_mean            =   1.0691327239295E-23
(PID.TID 0000.0001) %MON dynstat_wvel_sd              =   1.8974803651190E-07
(PID.TID 0000.0001) %MON dynstat_theta_max            =   2.0000000000000E+01
(PID.TID 0000.0001) %MON dynstat_theta_min            =   2.0000000000000E+01
(PID.TID 0000.0001) %MON dynstat_theta_mean           =   2.0000000000000E+01
(PID.TID 0000.0001) %MON dynstat_theta_sd             =   0.0000000000000E+00
(PID.TID 0000.0001) %MON dynstat_salt_max             =   1.0000000000000E+01
(PID.TID 0000.0001) %MON dynstat_salt_min             =   1.0000000000000E+01
(PID.TID 0000.0001) %MON dynstat_salt_mean            =   1.0000000000000E+01
(PID.TID 0000.0001) %MON dynstat_salt_sd              =   0.0000000000000E+00
(PID.TID 0000.0001) %MON advcfl_uvel_max              =   2.4243558400856E-06
(PID.TID 0000.0001) %MON advcfl_vvel_max              =   2.1724523584484E-06
(PID.TID 0000.0001) %MON advcfl_wvel_max              =   1.3636926716632E-07
(PID.TID 0000.0001) %MON ke_max                       =   8.3158591329169E-10
(PID.TID 0000.0001) %MON ke_mean                      =   2.8133541526993E-10
(PID.TID 0000.0001) // =======================================================
(PID.TID 0000.0001) // End MONITOR dynamic field statistics
(PID.TID 0000.0001) // =======================================================
 cg2d: Sum(rhs),rhsMax =  -5.60959717565979E-09  4.92339174350416E-04
(PID.TID 0000.0001)                    cg2d_init_res =    1.07076557373392E+00
(PID.TID 0000.0001)                       cg2d_iters =   101
(PID.TID 0000.0001)                         cg2d_res =    9.06892422325957E-08
(PID.TID 0000.0001) // =======================================================
(PID.TID 0000.0001) // Begin MONITOR dynamic field statistics
(PID.TID 0000.0001) // =======================================================
(PID.TID 0000.0001) %MON time_tsnumber                =                     4
(PID.TID 0000.0001) %MON time_secondsf                =   4.8000000000000E+03
(PID.TID 0000.0001) %MON time_secondsi                =                  4800
(PID.TID 0000.0001) %MON dynstat_eta_max              =   1.1688875584821E-03
(PID.TID 0000.0001) %MON dynstat_eta_min              =  -1.1669088305040E-03
(PID.TID 0000.0001) %MON dynstat_eta_mean             =   2.5442505779225E-14
(PID.TID 0000.0001) %MON dynstat_eta_sd               =   6.4336429960323E-04
(PID.TID 0000.0001) %MON dynstat_uvel_max             =   3.8757712132440E-05
(PID.TID 0000.0001) %MON dynstat_uvel_min             =  -5.9570306571586E-05
(PID.TID 0000.0001) %MON dynstat_uvel_mean            =   2.0446525382094E-06
(PID.TID 0000.0001) %MON dynstat_uvel_sd              =   2.4822885292168E-05
(PID.TID 0000.0001) %MON dynstat_vvel_max             =   4.6639160352144E-05
(PID.TID 0000.0001) %MON dynstat_vvel_min             =  -4.1030370936392E-05
(PID.TID 0000.0001) %MON dynstat_vvel_mean            =  -9.9761158295646E-07
(PID.TID 0000.0001) %MON dynstat_vvel_sd              =   1.3460180542925E-05
(PID.TID 0000.0001) %MON dynstat_wvel_max             =   1.9546251746545E-07
(PID.TID 0000.0001) %MON dynstat_wvel_min             =  -1.9464855567437E-07
(PID.TID 0000.0001) %MON dynstat_wvel_mean            =  -9.4290510503028E-24
(PID.TID 0000.0001) %MON dynstat_wvel_sd              =   1.2007231469474E-07
(PID.TID 0000.0001) %MON dynstat_theta_max            =   2.0000000000000E+01
(PID.TID 0000.0001) %MON dynstat_theta_min            =   2.0000000000000E+01
(PID.TID 0000.0001) %MON dynstat_theta_mean           =   2.0000000000000E+01
(PID.TID 0000.0001) %MON dynstat_theta_sd             =   0.0000000000000E+00
(PID.TID 0000.0001) %MON dynstat_salt_max             =   1.0000000000000E+01
(PID.TID 0000.0001) %MON dynstat_salt_min             =   1.0000000000000E+01
(PID.TID 0000.0001) %MON dynstat_salt_mean            =   1.0000000000000E+01
(PID.TID 0000.0001) %MON dynstat_salt_sd              =   0.0000000000000E+00
(PID.TID 0000.0001) %MON advcfl_uvel_max              =   3.5742183942952E-06
(PID.TID 0000.0001) %MON advcfl_vvel_max              =   2.7983496211286E-06
(PID.TID 0000.0001) %MON advcfl_wvel_max              =   9.3822008383416E-08
(PID.TID 0000.0001) %MON ke_max                       =   1.7735522818663E-09
(PID.TID 0000.0001) %MON ke_mean                      =   3.9446287954429E-10
(PID.TID 0000.0001) // =======================================================
(PID.TID 0000.0001) // End MONITOR dynamic field statistics
(PID.TID 0000.0001) // =======================================================
 cg2d: Sum(rhs),rhsMax =  -9.84832795869472E-09  4.99607565234028E-04
(PID.TID 0000.0001)                    cg2d_init_res =    1.01577924605914E+00
(PID.TID 0000.0001)                       cg2d_iters =   101
(PID.TID 0000.0001)                         cg2d_res =    8.54129038032223E-08
(PID.TID 0000.0001) // =======================================================
(PID.TID 0000.0001) // Begin MONITOR dynamic field statistics
(PID.TID 0000.0001) // =======================================================
(PID.TID 0000.0001) %MON time_tsnumber                =                     5
(PID.TID 0000.0001) %MON time_secondsf                =   6.0000000000000E+03
(PID.TID 0000.0001) %MON time_secondsi                =                  6000
(PID.TID 0000.0001) %MON dynstat_eta_max              =   1.1100390850893E-03
(PID.TID 0000.0001) %MON dynstat_eta_min              =  -1.1087595501559E-03
(PID.TID 0000.0001) %MON dynstat_eta_mean             =   3.4685292360171E-14
(PID.TID 0000.0001) %MON dynstat_eta_sd               =   6.0169092774618E-04
(PID.TID 0000.0001) %MON dynstat_uvel_max             =   3.9601525717107E-05
(PID.TID 0000.0001) %MON dynstat_uvel_min             =  -8.0035803499533E-05
(PID.TID 0000.0001) %MON dynstat_uvel_mean            =  -2.4061044644713E-06
(PID.TID 0000.0001) %MON dynstat_uvel_sd              =   3.0330934854648E-05
(PID.TID 0000.0001) %MON dynstat_vvel_max             =   5.6642118274618E-05
(PID.TID 0000.0001) %MON dynstat_vvel_min             =  -4.9183592584363E-05
(PID.TID 0000.0001) %MON dynstat_vvel_mean            =   2.7187042619380E-07
(PID.TID 0000.0001) %MON dynstat_vvel_sd              =   1.6132155552350E-05
(PID.TID 0000.0001) %MON dynstat_wvel_max             =   6.6399108192309E-08
(PID.TID 0000.0001) %MON dynstat_wvel_min             =  -6.5371603813263E-08
(PID.TID 0000.0001) %MON dynstat_wvel_mean            =   4.4464819368263E-24
(PID.TID 0000.0001) %MON dynstat_wvel_sd              =   3.5196963040108E-08
(PID.TID 0000.0001) %MON dynstat_theta_max            =   2.0000000000000E+01
(PID.TID 0000.0001) %MON dynstat_theta_min            =   2.0000000000000E+01
(PID.TID 0000.0001) %MON dynstat_theta_mean           =   2.0000000000000E+01
(PID.TID 0000.0001) %MON dynstat_theta_sd             =   0.0000000000000E+00
(PID.TID 0000.0001) %MON dynstat_salt_max             =   1.0000000000000E+01
(PID.TID 0000.0001) %MON dynstat_salt_min             =   1.0000000000000E+01
(PID.TID 0000.0001) %MON dynstat_salt_mean            =   1.0000000000000E+01
(PID.TID 0000.0001) %MON dynstat_salt_sd              =   0.0000000000000E+00
(PID.TID 0000.0001) %MON advcfl_uvel_max              =   4.8021482099720E-06
(PID.TID 0000.0001) %MON advcfl_vvel_max              =   3.3985270964771E-06
(PID.TID 0000.0001) %MON advcfl_wvel_max              =   3.1871571932308E-08
(PID.TID 0000.0001) %MON ke_max                       =   3.2020984086665E-09
(PID.TID 0000.0001) %MON ke_mean                      =   5.8298616644402E-10
(PID.TID 0000.0001) // =======================================================
(PID.TID 0000.0001) // End MONITOR dynamic field statistics
(PID.TID 0000.0001) // =======================================================
 cg2d: Sum(rhs),rhsMax =  -1.33029825766240E-08  5.04227765611277E-04
(PID.TID 0000.0001)                    cg2d_init_res =    1.11789058996218E+00
(PID.TID 0000.0001)                       cg2d_iters =   101
(PID.TID 0000.0001)                         cg2d_res =    7.38851716043880E-08
(PID.TID 0000.0001) // =======================================================
(PID.TID 0000.0001) // Begin MONITOR dynamic field statistics
(PID.TID 0000.0001) // =======================================================
(PID.TID 0000.0001) %MON time_tsnumber                =                     6
(PID.TID 0000.0001) %MON time_secondsf                =   7.2000000000000E+03
(PID.TID 0000.0001) %MON time_secondsi                =                  7200
(PID.TID 0000.0001) %MON dynstat_eta_max              =   1.0029523939807E-03
(PID.TID 0000.0001) %MON dynstat_eta_min              =  -1.0022319654767E-03
(PID.TID 0000.0001) %MON dynstat_eta_mean             =   4.4017106983132E-14
(PID.TID 0000.0001) %MON dynstat_eta_sd               =   5.2294237760034E-04
(PID.TID 0000.0001) %MON dynstat_uvel_max             =   4.4360318455161E-05
(PID.TID 0000.0001) %MON dynstat_uvel_min             =  -9.6825296274303E-05
(PID.TID 0000.0001) %MON dynstat_uvel_mean            =  -4.4807390631132E-06
(PID.TID 0000.0001) %MON dynstat_uvel_sd              =   3.5900838797046E-05
(PID.TID 0000.0001) %MON dynstat_vvel_max             =   6.6291285616487E-05
(PID.TID 0000.0001) %MON dynstat_vvel_min             =  -5.8353763448998E-05
(PID.TID 0000.0001) %MON dynstat_vvel_mean            =   1.1102912411668E-06
(PID.TID 0000.0001) %MON dynstat_vvel_sd              =   1.8926866679380E-05
(PID.TID 0000.0001) %MON dynstat_wvel_max             =   5.7936788904834E-08
(PID.TID 0000.0001) %MON dynstat_wvel_min             =  -5.6118441555496E-08
(PID.TID 0000.0001) %MON dynstat_wvel_mean            =   1.6329747685908E-24
(PID.TID 0000.0001) %MON dynstat_wvel_sd              =   3.5991046018892E-08
(PID.TID 0000.0001) %MON dynstat_theta_max            =   2.0000000000000E+01
(PID.TID 0000.0001) %MON dynstat_theta_min            =   2.0000000000000E+01
(PID.TID 0000.0001) %MON dynstat_theta_mean           =   2.0000000000000E+01
(PID.TID 0000.0001) %MON dynstat_theta_sd             =   0.0000000000000E+00
(PID.TID 0000.0001) %MON dynstat_salt_max             =   1.0000000000000E+01
(PID.TID 0000.0001) %MON dynstat_salt_min             =   1.0000000000000E+01
(PID.TID 0000.0001) %MON dynstat_salt_mean            =   1.0000000000000E+01
(PID.TID 0000.0001) %MON dynstat_salt_sd              =   0.0000000000000E+00
(PID.TID 0000.0001) %MON advcfl_uvel_max              =   5.8095177764582E-06
(PID.TID 0000.0001) %MON advcfl_vvel_max              =   3.9774771369892E-06
(PID.TID 0000.0001) %MON advcfl_wvel_max              =   2.7809658674320E-08
(PID.TID 0000.0001) %MON ke_max                       =   4.6871324690368E-09
(PID.TID 0000.0001) %MON ke_mean                      =   8.2006410265850E-10
(PID.TID 0000.0001) // =======================================================
(PID.TID 0000.0001) // End MONITOR dynamic field statistics
(PID.TID 0000.0001) // =======================================================
 cg2d: Sum(rhs),rhsMax =  -1.67453000632367E-08  5.08346651250579E-04
(PID.TID 0000.0001)                    cg2d_init_res =    1.00196108378826E+00
(PID.TID 0000.0001)                       cg2d_iters =    98
(PID.TID 0000.0001)                         cg2d_res =    8.52779310039806E-08
(PID.TID 0000.0001) // =======================================================
(PID.TID 0000.0001) // Begin MONITOR dynamic field statistics
(PID.TID 0000.0001) // =======================================================
(PID.TID 0000.0001) %MON time_tsnumber                =                     7
(PID.TID 0000.0001) %MON time_secondsf                =   8.4000000000000E+03
(PID.TID 0000.0001) %MON time_secondsi                =                  8400
(PID.TID 0000.0001) %MON dynstat_eta_max              =   8.9917576076755E-04
(PID.TID 0000.0001) %MON dynstat_eta_min              =  -8.9843399858226E-04
(PID.TID 0000.0001) %MON dynstat_eta_mean             =   7.5469643162927E-14
(PID.TID 0000.0001) %MON dynstat_eta_sd               =   4.4740687695701E-04
(PID.TID 0000.0001) %MON dynstat_uvel_max             =   5.2568932057265E-05
(PID.TID 0000.0001) %MON dynstat_uvel_min             =  -1.1013794667446E-04
(PID.TID 0000.0001) %MON dynstat_uvel_mean            =  -4.3236302392786E-06
(PID.TID 0000.0001) %MON dynstat_uvel_sd              =   4.1402258129254E-05
(PID.TID 0000.0001) %MON dynstat_vvel_max             =   7.5443955625502E-05
(PID.TID 0000.0001) %MON dynstat_vvel_min             =  -6.8438207287055E-05
(PID.TID 0000.0001) %MON dynstat_vvel_mean            =   1.1788902104246E-06
(PID.TID 0000.0001) %MON dynstat_vvel_sd              =   2.1819655719805E-05
(PID.TID 0000.0001) %MON dynstat_wvel_max             =   1.2354236820399E-07
(PID.TID 0000.0001) %MON dynstat_wvel_min             =  -1.2250248291445E-07
(PID.TID 0000.0001) %MON dynstat_wvel_mean            =   1.5246167222465E-24
(PID.TID 0000.0001) %MON dynstat_wvel_sd              =   6.7365496641258E-08
(PID.TID 0000.0001) %MON dynstat_theta_max            =   2.0000000000000E+01
(PID.TID 0000.0001) %MON dynstat_theta_min            =   2.0000000000000E+01
(PID.TID 0000.0001) %MON dynstat_theta_mean           =   2.0000000000000E+01
(PID.TID 0000.0001) %MON dynstat_theta_sd             =   0.0000000000000E+00
(PID.TID 0000.0001) %MON dynstat_salt_max             =   1.0000000000000E+01
(PID.TID 0000.0001) %MON dynstat_salt_min             =   1.0000000000000E+01
(PID.TID 0000.0001) %MON dynstat_salt_mean            =   1.0000000000000E+01
(PID.TID 0000.0001) %MON dynstat_salt_sd              =   0.0000000000000E+00
(PID.TID 0000.0001) %MON advcfl_uvel_max              =   6.6082768004677E-06
(PID.TID 0000.0001) %MON advcfl_vvel_max              =   4.5266373375301E-06
(PID.TID 0000.0001) %MON advcfl_wvel_max              =   5.9300336737915E-08
(PID.TID 0000.0001) %MON ke_max                       =   6.0631642260646E-09
(PID.TID 0000.0001) %MON ke_mean                      =   1.0864323647574E-09
(PID.TID 0000.0001) // =======================================================
(PID.TID 0000.0001) // End MONITOR dynamic field statistics
(PID.TID 0000.0001) // =======================================================
 cg2d: Sum(rhs),rhsMax =  -2.84013230433811E-08  5.13884063076581E-04
(PID.TID 0000.0001)                    cg2d_init_res =    7.39784498352228E-01
(PID.TID 0000.0001)                       cg2d_iters =   100
(PID.TID 0000.0001)                         cg2d_res =    7.92905739937107E-08
(PID.TID 0000.0001) // =======================================================
(PID.TID 0000.0001) // Begin MONITOR dynamic field statistics
(PID.TID 0000.0001) // =======================================================
(PID.TID 0000.0001) %MON time_tsnumber                =                     8
(PID.TID 0000.0001) %MON time_secondsf                =   9.6000000000000E+03
(PID.TID 0000.0001) %MON time_secondsi                =                  9600
(PID.TID 0000.0001) %MON dynstat_eta_max              =   8.3120413180020E-04
(PID.TID 0000.0001) %MON dynstat_eta_min              =  -8.3003138501757E-04
(PID.TID 0000.0001) %MON dynstat_eta_mean             =   1.1095824016110E-13
(PID.TID 0000.0001) %MON dynstat_eta_sd               =   3.9957769637172E-04
(PID.TID 0000.0001) %MON dynstat_uvel_max             =   6.2816233112998E-05
(PID.TID 0000.0001) %MON dynstat_uvel_min             =  -1.2126447872125E-04
(PID.TID 0000.0001) %MON dynstat_uvel_mean            =  -2.7949870346194E-06
(PID.TID 0000.0001) %MON dynstat_uvel_sd              =   4.6852865848306E-05
(PID.TID 0000.0001) %MON dynstat_vvel_max             =   8.4171499786899E-05
(PID.TID 0000.0001) %MON dynstat_vvel_min             =  -7.8984655094418E-05
(PID.TID 0000.0001) %MON dynstat_vvel_mean            =   5.6639532126077E-07
(PID.TID 0000.0001) %MON dynstat_vvel_sd              =   2.4736576908055E-05
(PID.TID 0000.0001) %MON dynstat_wvel_max             =   1.2534869553666E-07
(PID.TID 0000.0001) %MON dynstat_wvel_min             =  -1.2467524532030E-07
(PID.TID 0000.0001) %MON dynstat_wvel_mean            =   2.0698287870100E-23
(PID.TID 0000.0001) %MON dynstat_wvel_sd              =   6.5242919912954E-08
(PID.TID 0000.0001) %MON dynstat_theta_max            =   2.0000000000000E+01
(PID.TID 0000.0001) %MON dynstat_theta_min            =   2.0000000000000E+01
(PID.TID 0000.0001) %MON dynstat_theta_mean           =   2.0000000000000E+01
(PID.TID 0000.0001) %MON dynstat_theta_sd             =   0.0000000000000E+00
(PID.TID 0000.0001) %MON dynstat_salt_max             =   1.0000000000000E+01
(PID.TID 0000.0001) %MON dynstat_salt_min             =   1.0000000000000E+01
(PID.TID 0000.0001) %MON dynstat_salt_mean            =   1.0000000000000E+01
(PID.TID 0000.0001) %MON dynstat_salt_sd              =   0.0000000000000E+00
(PID.TID 0000.0001) %MON advcfl_uvel_max              =   7.2758687232751E-06
(PID.TID 0000.0001) %MON advcfl_vvel_max              =   5.0502899872139E-06
(PID.TID 0000.0001) %MON advcfl_wvel_max              =   6.0167373857597E-08
(PID.TID 0000.0001) %MON ke_max                       =   7.3522308024935E-09
(PID.TID 0000.0001) %MON ke_mean                      =   1.3837532019292E-09
(PID.TID 0000.0001) // =======================================================
(PID.TID 0000.0001) // End MONITOR dynamic field statistics
(PID.TID 0000.0001) // =======================================================
 cg2d: Sum(rhs),rhsMax =  -4.11091482244164E-08  5.21978656785210E-04
(PID.TID 0000.0001)                    cg2d_init_res =    5.48451676298340E-01
(PID.TID 0000.0001)                       cg2d_iters =    99
(PID.TID 0000.0001)                         cg2d_res =    9.81948027919777E-08
(PID.TID 0000.0001) // =======================================================
(PID.TID 0000.0001) // Begin MONITOR dynamic field statistics
(PID.TID 0000.0001) // =======================================================
(PID.TID 0000.0001) %MON time_tsnumber                =                     9
(PID.TID 0000.0001) %MON time_secondsf                =   1.0800000000000E+04
(PID.TID 0000.0001) %MON time_secondsi                =                 10800
(PID.TID 0000.0001) %MON dynstat_eta_max              =   8.0668568432846E-04
(PID.TID 0000.0001) %MON dynstat_eta_min              =  -8.0499309665693E-04
(PID.TID 0000.0001) %MON dynstat_eta_mean             =   1.9248162544845E-13
(PID.TID 0000.0001) %MON dynstat_eta_sd               =   3.8551416865674E-04
(PID.TID 0000.0001) %MON dynstat_uvel_max             =   7.3534938539144E-05
(PID.TID 0000.0001) %MON dynstat_uvel_min             =  -1.3176118636255E-04
(PID.TID 0000.0001) %MON dynstat_uvel_mean            =  -9.0865935217066E-07
(PID.TID 0000.0001) %MON dynstat_uvel_sd              =   5.2275734330136E-05
(PID.TID 0000.0001) %MON dynstat_vvel_max             =   9.2737695587390E-05
(PID.TID 0000.0001) %MON dynstat_vvel_min             =  -8.9468469064346E-05
(PID.TID 0000.0001) %MON dynstat_vvel_mean            =  -3.5298085419247E-07
(PID.TID 0000.0001) %MON dynstat_vvel_sd              =   2.7632979344942E-05
(PID.TID 0000.0001) %MON dynstat_wvel_max             =   8.1760805633556E-08
(PID.TID 0000.0001) %MON dynstat_wvel_min             =  -8.1214502685650E-08
(PID.TID 0000.0001) %MON dynstat_wvel_mean            =  -4.0947935407968E-24
(PID.TID 0000.0001) %MON dynstat_wvel_sd              =   4.1618028510382E-08
(PID.TID 0000.0001) %MON dynstat_theta_max            =   2.0000000000000E+01
(PID.TID 0000.0001) %MON dynstat_theta_min            =   2.0000000000000E+01
(PID.TID 0000.0001) %MON dynstat_theta_mean           =   2.0000000000000E+01
(PID.TID 0000.0001) %MON dynstat_theta_sd             =   0.0000000000000E+00
(PID.TID 0000.0001) %MON dynstat_salt_max             =   1.0000000000000E+01
(PID.TID 0000.0001) %MON dynstat_salt_min             =   1.0000000000000E+01
(PID.TID 0000.0001) %MON dynstat_salt_mean            =   1.0000000000000E+01
(PID.TID 0000.0001) %MON dynstat_salt_sd              =   0.0000000000000E+00
(PID.TID 0000.0001) %MON advcfl_uvel_max              =   7.9056711817533E-06
(PID.TID 0000.0001) %MON advcfl_vvel_max              =   5.5642617352434E-06
(PID.TID 0000.0001) %MON advcfl_wvel_max              =   3.9245186704107E-08
(PID.TID 0000.0001) %MON ke_max                       =   8.6789701980518E-09
(PID.TID 0000.0001) %MON ke_mean                      =   1.7190041005340E-09
(PID.TID 0000.0001) // =======================================================
(PID.TID 0000.0001) // End MONITOR dynamic field statistics
(PID.TID 0000.0001) // =======================================================
 cg2d: Sum(rhs),rhsMax =  -6.97655787584850E-08  5.33555945981793E-04
(PID.TID 0000.0001)                    cg2d_init_res =    5.54403679288224E-01
(PID.TID 0000.0001)                       cg2d_iters =    99
(PID.TID 0000.0001)                         cg2d_res =    9.43298831426935E-08
(PID.TID 0000.0001) // =======================================================
(PID.TID 0000.0001) // Begin MONITOR dynamic field statistics
(PID.TID 0000.0001) // =======================================================
(PID.TID 0000.0001) %MON time_tsnumber                =                    10
(PID.TID 0000.0001) %MON time_secondsf                =   1.2000000000000E+04
(PID.TID 0000.0001) %MON time_secondsi                =                 12000
(PID.TID 0000.0001) %MON dynstat_eta_max              =   8.1730845077621E-04
(PID.TID 0000.0001) %MON dynstat_eta_min              =  -8.1520316238609E-04
(PID.TID 0000.0001) %MON dynstat_eta_mean             =   2.5794422091113E-13
(PID.TID 0000.0001) %MON dynstat_eta_sd               =   3.9870809668888E-04
(PID.TID 0000.0001) %MON dynstat_uvel_max             =   8.3568606252892E-05
(PID.TID 0000.0001) %MON dynstat_uvel_min             =  -1.4276055493334E-04
(PID.TID 0000.0001) %MON dynstat_uvel_mean            =   5.7709469124657E-07
(PID.TID 0000.0001) %MON dynstat_uvel_sd              =   5.7671424167685E-05
(PID.TID 0000.0001) %MON dynstat_vvel_max             =   1.0145735095024E-04
(PID.TID 0000.0001) %MON dynstat_vvel_min             =  -9.9518312921198E-05
(PID.TID 0000.0001) %MON dynstat_vvel_mean            =  -1.1517678262666E-06
(PID.TID 0000.0001) %MON dynstat_vvel_sd              =   3.0495427243969E-05
(PID.TID 0000.0001) %MON dynstat_wvel_max             =   2.3706938415411E-08
(PID.TID 0000.0001) %MON dynstat_wvel_min             =  -2.3280954964594E-08
(PID.TID 0000.0001) %MON dynstat_wvel_mean            =  -4.8380917183509E-25
(PID.TID 0000.0001) %MON dynstat_wvel_sd              =   1.5023610438211E-08
(PID.TID 0000.0001) %MON dynstat_theta_max            =   2.0000000000000E+01
(PID.TID 0000.0001) %MON dynstat_theta_min            =   2.0000000000000E+01
(PID.TID 0000.0001) %MON dynstat_theta_mean           =   2.0000000000000E+01
(PID.TID 0000.0001) %MON dynstat_theta_sd             =   0.0000000000000E+00
(PID.TID 0000.0001) %MON dynstat_salt_max             =   1.0000000000000E+01
(PID.TID 0000.0001) %MON dynstat_salt_min             =   1.0000000000000E+01
(PID.TID 0000.0001) %MON dynstat_salt_mean            =   1.0000000000000E+01
(PID.TID 0000.0001) %MON dynstat_salt_sd              =   0.0000000000000E+00
(PID.TID 0000.0001) %MON advcfl_uvel_max              =   8.5656332960002E-06
(PID.TID 0000.0001) %MON advcfl_vvel_max              =   6.0874410570146E-06
(PID.TID 0000.0001) %MON advcfl_wvel_max              =   1.1379330439397E-08
(PID.TID 0000.0001) %MON ke_max                       =   1.0188460957970E-08
(PID.TID 0000.0001) %MON ke_mean                      =   2.0927303697653E-09
(PID.TID 0000.0001) // =======================================================
(PID.TID 0000.0001) // End MONITOR dynamic field statistics
(PID.TID 0000.0001) // =======================================================
(PID.TID 0000.0001)   Seconds in section "ALL                [THE_MODEL_MAIN]":
(PID.TID 0000.0001)           User time:  2.82999991
(PID.TID 0000.0001)         System time:  0.0199999996
(PID.TID 0000.0001)     Wall clock time:  2.89086306
(PID.TID 0000.0001)          No. starts: 1
(PID.TID 0000.0001)           No. stops: 1
(PID.TID 0000.0001)   Seconds in section "INITIALISE_FIXED   [THE_MODEL_MAIN]":
(PID.TID 0000.0001)           User time:  0.109999998
(PID.TID 0000.0001)         System time:  0.
(PID.TID 0000.0001)     Wall clock time:  0.108080029
(PID.TID 0000.0001)          No. starts: 1
(PID.TID 0000.0001)           No. stops: 1
(PID.TID 0000.0001)   Seconds in section "THE_MAIN_LOOP      [THE_MODEL_MAIN]":
(PID.TID 0000.0001)           User time:  2.67999995
(PID.TID 0000.0001)         System time:  0.0199999996
(PID.TID 0000.0001)     Wall clock time:  2.74486995
(PID.TID 0000.0001)          No. starts: 1
(PID.TID 0000.0001)           No. stops: 1
(PID.TID 0000.0001)   Seconds in section "INITIALISE_VARIA    [THE_MAIN_LOOP]":
(PID.TID 0000.0001)           User time:  0.0200000033
(PID.TID 0000.0001)         System time:  0.
(PID.TID 0000.0001)     Wall clock time:  0.0214899778
(PID.TID 0000.0001)          No. starts: 1
(PID.TID 0000.0001)           No. stops: 1
(PID.TID 0000.0001)   Seconds in section "WRITE_STATE         [THE_MAIN_LOOP]":
(PID.TID 0000.0001)           User time:  0.0100000054
(PID.TID 0000.0001)         System time:  0.
(PID.TID 0000.0001)     Wall clock time:  0.00758802891
(PID.TID 0000.0001)          No. starts: 1
(PID.TID 0000.0001)           No. stops: 1
(PID.TID 0000.0001)   Seconds in section "MONITOR             [THE_MAIN_LOOP]":
(PID.TID 0000.0001)           User time:  0.
(PID.TID 0000.0001)         System time:  0.
(PID.TID 0000.0001)     Wall clock time:  0.0045620203
(PID.TID 0000.0001)          No. starts: 1
(PID.TID 0000.0001)           No. stops: 1
(PID.TID 0000.0001)   Seconds in section "MAIN LOOP           [THE_MAIN_LOOP]":
(PID.TID 0000.0001)           User time:  2.64999995
(PID.TID 0000.0001)         System time:  0.0199999996
(PID.TID 0000.0001)     Wall clock time:  2.7109369
(PID.TID 0000.0001)          No. starts: 1
(PID.TID 0000.0001)           No. stops: 1
(PID.TID 0000.0001)   Seconds in section "EXTERNAL_FIELDS_LOAD[THE_MAIN_LOOP]":
(PID.TID 0000.0001)           User time:  0.
(PID.TID 0000.0001)         System time:  0.
(PID.TID 0000.0001)     Wall clock time:  0.000564932823
(PID.TID 0000.0001)          No. starts: 10
(PID.TID 0000.0001)           No. stops: 10
(PID.TID 0000.0001)   Seconds in section "DYNAMICS            [THE_MAIN_LOOP]":
(PID.TID 0000.0001)           User time:  0.429999948
(PID.TID 0000.0001)         System time:  0.00999999978
(PID.TID 0000.0001)     Wall clock time:  0.492916226
(PID.TID 0000.0001)          No. starts: 10
(PID.TID 0000.0001)           No. stops: 10
(PID.TID 0000.0001)   Seconds in section "SOLVE_FOR_PRESSURE  [THE_MAIN_LOOP]":
(PID.TID 0000.0001)           User time:  2.11999992
(PID.TID 0000.0001)         System time:  0.00999999978
(PID.TID 0000.0001)     Wall clock time:  2.11693203
(PID.TID 0000.0001)          No. starts: 10
(PID.TID 0000.0001)           No. stops: 10
(PID.TID 0000.0001)   Seconds in section "THE_CORRECTION_STEP [THE_MAIN_LOOP]":
(PID.TID 0000.0001)           User time:  0.
(PID.TID 0000.0001)         System time:  0.
(PID.TID 0000.0001)     Wall clock time:  0.0232661963
(PID.TID 0000.0001)          No. starts: 10
(PID.TID 0000.0001)           No. stops: 10
(PID.TID 0000.0001)   Seconds in section "BLOCKING_EXCHANGES  [THE_MAIN_LOOP]":
(PID.TID 0000.0001)           User time:  0.
(PID.TID 0000.0001)         System time:  0.
(PID.TID 0000.0001)     Wall clock time:  0.00511491299
(PID.TID 0000.0001)          No. starts: 10
(PID.TID 0000.0001)           No. stops: 10
(PID.TID 0000.0001)   Seconds in section "DO_THE_MODEL_IO     [THE_MAIN_LOOP]":
(PID.TID 0000.0001)           User time:  0.
(PID.TID 0000.0001)         System time:  0.
(PID.TID 0000.0001)     Wall clock time:  0.00785601139
(PID.TID 0000.0001)          No. starts: 10
(PID.TID 0000.0001)           No. stops: 10
(PID.TID 0000.0001)   Seconds in section "WRITE_CHECKPOINT    [THE_MAIN_LOOP]":
(PID.TID 0000.0001)           User time:  0.
(PID.TID 0000.0001)         System time:  0.
(PID.TID 0000.0001)     Wall clock time:  0.000565886497
(PID.TID 0000.0001)          No. starts: 10
(PID.TID 0000.0001)           No. stops: 10
(PID.TID 0000.0001)   Seconds in section "WRITE_CHECKPOINT   [THE_MODEL_MAIN]":
(PID.TID 0000.0001)           User time:  0.0399999619
(PID.TID 0000.0001)         System time:  0.
(PID.TID 0000.0001)     Wall clock time:  0.0376549959
(PID.TID 0000.0001)          No. starts: 1
(PID.TID 0000.0001)           No. stops: 1
(PID.TID 0000.0001) // ======================================================
(PID.TID 0000.0001) // Tile <-> Tile communication statistics
(PID.TID 0000.0001) // ======================================================
(PID.TID 0000.0001) // o Tile number: 000001
(PID.TID 0000.0001) //         No. X exchanges =              0
(PID.TID 0000.0001) //            Max. X spins =              0
(PID.TID 0000.0001) //            Min. X spins =     1000000000
(PID.TID 0000.0001) //          Total. X spins =              0
(PID.TID 0000.0001) //            Avg. X spins =       0.00E+00
(PID.TID 0000.0001) //         No. Y exchanges =              0
(PID.TID 0000.0001) //            Max. Y spins =              0
(PID.TID 0000.0001) //            Min. Y spins =     1000000000
(PID.TID 0000.0001) //          Total. Y spins =              0
(PID.TID 0000.0001) //            Avg. Y spins =       0.00E+00
(PID.TID 0000.0001) // o Thread number: 000001
(PID.TID 0000.0001) //            No. barriers =          14032
(PID.TID 0000.0001) //      Max. barrier spins =              1
(PID.TID 0000.0001) //      Min. barrier spins =              1
(PID.TID 0000.0001) //     Total barrier spins =          14032
(PID.TID 0000.0001) //      Avg. barrier spins =       1.00E+00
