(PID.TID 0000.0001) 
(PID.TID 0000.0001) // ======================================================
(PID.TID 0000.0001) //                      MITgcm UV
(PID.TID 0000.0001) //                      =========
(PID.TID 0000.0001) // ======================================================
(PID.TID 0000.0001) // execution environment starting up...
(PID.TID 0000.0001) // Run starting Wed Apr  1 14:19:48 1998
(PID.TID 0000.0001) // on melville.lcs.mit.edu
(PID.TID 0000.0001) // account cnh
(PID.TID 0000.0001) // MITgcm UV Release: $Name:  $
(PID.TID 0000.0001) 
(PID.TID 0000.0001) // =======================================================
(PID.TID 0000.0001) // Execution Environment parameter file "eedata"
(PID.TID 0000.0001) // =======================================================
(PID.TID 0000.0001) ># Example "eedata" file
(PID.TID 0000.0001) ># Lines beginning "#" are comments
(PID.TID 0000.0001) ># nTx - No. threads per process in X
(PID.TID 0000.0001) ># nTy - No. threads per process in Y
(PID.TID 0000.0001) > &EEPARMS
(PID.TID 0000.0001) > &
(PID.TID 0000.0001) ># Note: Some systems use & as the
(PID.TID 0000.0001) ># namelist terminator. Other systems
(PID.TID 0000.0001) ># use a / character (as shown here).
(PID.TID 0000.0001) 
(PID.TID 0000.0001) // =======================================================
(PID.TID 0000.0001) // Computational Grid Specification ( see files "SIZE.h" )
(PID.TID 0000.0001) //                                  ( and "eedata"       )
(PID.TID 0000.0001) // =======================================================
(PID.TID 0000.0001)      nPx =    1 ; /* No. processes in X */
(PID.TID 0000.0001)      nPy =    1 ; /* No. processes in Y */
(PID.TID 0000.0001)      nSx =    1 ; /* No. tiles in X per process */
(PID.TID 0000.0001)      nSy =    1 ; /* No. tiles in Y per process */
(PID.TID 0000.0001)      sNx =   60 ; /* Tile size in X */
(PID.TID 0000.0001)      sNy =   60 ; /* Tile size in Y */
(PID.TID 0000.0001)      OLx =    3 ; /* Tile overlap distance in X */
(PID.TID 0000.0001)      OLy =    3 ; /* Tile overlap distance in Y */
(PID.TID 0000.0001)      nTx =    1 ; /* No. threads in X per process */
(PID.TID 0000.0001)      nTy =    1 ; /* No. threads in Y per process */
(PID.TID 0000.0001)       Nr =    1 ; /* No. levels in the vertical   */
(PID.TID 0000.0001)       nX =   60 ; /* Total domain size in X ( = nPx*nSx*sNx ) */
(PID.TID 0000.0001)       nY =   60 ; /* Total domain size in Y ( = nPy*nSy*sNy ) */
(PID.TID 0000.0001)   nTiles =    1 ; /* Total no. tiles per process ( = nSx*nSy ) */
(PID.TID 0000.0001)   nProcs =    1 ; /* Total no. processes ( = nPx*nPy ) */
(PID.TID 0000.0001) nThreads =    1 ; /* Total no. threads per process ( = nTx*nTy ) */
(PID.TID 0000.0001) usingMPI =    F ; /* Flag used to control whether MPI is in use */
(PID.TID 0000.0001)                   /*  note: To execute a program with MPI calls */
(PID.TID 0000.0001)                   /*  it must be launched appropriately e.g     */
(PID.TID 0000.0001)                   /*  "mpirun -np 64 ......"                    */
(PID.TID 0000.0001) 
(PID.TID 0000.0001) // ======================================================
(PID.TID 0000.0001) // Mapping of tiles to threads
(PID.TID 0000.0001) // ======================================================
(PID.TID 0000.0001) // -o- Thread   1, tiles (   1:   1,   1:   1)
(PID.TID 0000.0001) 
(PID.TID 0000.0001) // ======================================================
(PID.TID 0000.0001) // Tile <-> Tile connectvity table
(PID.TID 0000.0001) // ======================================================
(PID.TID 0000.0001) // Tile number: 000001 (process no. = 000001)
(PID.TID 0000.0001) //        WEST: Tile = 000001, Process = 000001, Comm = put
(PID.TID 0000.0001) //                bi = 000001, bj = 000001
(PID.TID 0000.0001) //        EAST: Tile = 000001, Process = 000001, Comm = put
(PID.TID 0000.0001) //                bi = 000001, bj = 000001
(PID.TID 0000.0001) //       SOUTH: Tile = 000001, Process = 000001, Comm = put
(PID.TID 0000.0001) //                bi = 000001, bj = 000001
(PID.TID 0000.0001) //       NORTH: Tile = 000001, Process = 000001, Comm = put
(PID.TID 0000.0001) //                bi = 000001, bj = 000001
(PID.TID 0000.0001) 
(PID.TID 0000.0001) // =======================================================
(PID.TID 0000.0001) // Model parameter file "data"
(PID.TID 0000.0001) // =======================================================
(PID.TID 0000.0001) ># Model parameters
(PID.TID 0000.0001) ># Continuous equation parameters
(PID.TID 0000.0001) > &PARM01
(PID.TID 0000.0001) > tRef=20.,
(PID.TID 0000.0001) > sRef=10.,
(PID.TID 0000.0001) > viscAz=1.E-2,
(PID.TID 0000.0001) > viscAh=4.E2,
(PID.TID 0000.0001) > diffKhT=4.E2,
(PID.TID 0000.0001) > diffKzT=1.E-2,
(PID.TID 0000.0001) > beta=1.E-11,
(PID.TID 0000.0001) > tAlpha=2.E-4,
(PID.TID 0000.0001) > sBeta =0.,
(PID.TID 0000.0001) > gravity=9.81,
(PID.TID 0000.0001) > gBaro=9.81,
(PID.TID 0000.0001) > rigidLid=.FALSE.,
(PID.TID 0000.0001) > implicitFreeSurface=.TRUE.,
(PID.TID 0000.0001) > eosType='LINEAR',
(PID.TID 0000.0001) > readBinaryPrec=64,
(PID.TID 0000.0001) > &
(PID.TID 0000.0001) ># Elliptic solver parameters
(PID.TID 0000.0001) > &PARM02
(PID.TID 0000.0001) > cg2dMaxIters=1000,
(PID.TID 0000.0001) > cg2dTargetResidual=1.E-7,
(PID.TID 0000.0001) > &
(PID.TID 0000.0001) ># Time stepping parameters
(PID.TID 0000.0001) > &PARM03
(PID.TID 0000.0001) > startTime=0,
(PID.TID 0000.0001) >#endTime=311040000,
(PID.TID 0000.0001) > endTime=12000.0,
(PID.TID 0000.0001) > deltaTmom=1200.0,
(PID.TID 0000.0001) > deltaTtracer=1200.0,
(PID.TID 0000.0001) > abEps=0.1,
(PID.TID 0000.0001) > pChkptFreq=2592000.0,
(PID.TID 0000.0001) > chkptFreq=120000.0,
(PID.TID 0000.0001) > dumpFreq=2592000.0,
(PID.TID 0000.0001) > monitorFreq=1.,
(PID.TID 0000.0001) > &
(PID.TID 0000.0001) ># Gridding parameters
(PID.TID 0000.0001) > &PARM04
(PID.TID 0000.0001) > usingCartesianGrid=.TRUE.,
(PID.TID 0000.0001) > usingSphericalPolarGrid=.FALSE.,
(PID.TID 0000.0001) > delX=60*20E3,
(PID.TID 0000.0001) > delY=60*20E3,
(PID.TID 0000.0001) > delZ=5000.,
(PID.TID 0000.0001) > &
(PID.TID 0000.0001) > &PARM05
(PID.TID 0000.0001) > bathyFile='topog.box',
(PID.TID 0000.0001) > hydrogThetaFile=,
(PID.TID 0000.0001) > hydrogSaltFile=,
(PID.TID 0000.0001) > zonalWindFile='windx.sin_y',
(PID.TID 0000.0001) > meridWindFile=,
(PID.TID 0000.0001) > &
(PID.TID 0000.0001) 
(PID.TID 0000.0001) %MON XC_max                       =   1.1900000000000E+06
(PID.TID 0000.0001) %MON XC_min                       =   1.0000000000000E+04
(PID.TID 0000.0001) %MON XC_mean                      =   6.0000000000000E+05
(PID.TID 0000.0001) %MON XC_sd                        =   3.4636204564973E+05
(PID.TID 0000.0001) %MON XG_max                       =   1.1800000000000E+06
(PID.TID 0000.0001) %MON XG_min                       =   2.0000000000000E+04
(PID.TID 0000.0001) %MON XG_mean                      =   6.0000000000000E+05
(PID.TID 0000.0001) %MON XG_sd                        =   3.4058772731853E+05
(PID.TID 0000.0001) %MON DXC_max                      =   2.0000000000000E+04
(PID.TID 0000.0001) %MON DXC_min                      =   2.0000000000000E+04
(PID.TID 0000.0001) %MON DXC_mean                     =   2.0000000000000E+04
(PID.TID 0000.0001) %MON DXC_sd                       =   0.0000000000000E+00
(PID.TID 0000.0001) %MON DXF_max                      =   2.0000000000000E+04
(PID.TID 0000.0001) %MON DXF_min                      =   2.0000000000000E+04
(PID.TID 0000.0001) %MON DXF_mean                     =   2.0000000000000E+04
(PID.TID 0000.0001) %MON DXF_sd                       =   0.0000000000000E+00
(PID.TID 0000.0001) %MON DXG_max                      =   2.0000000000000E+04
(PID.TID 0000.0001) %MON DXG_min                      =   2.0000000000000E+04
(PID.TID 0000.0001) %MON DXG_mean                     =   2.0000000000000E+04
(PID.TID 0000.0001) %MON DXG_sd                       =   0.0000000000000E+00
(PID.TID 0000.0001) %MON DXV_max                      =   2.0000000000000E+04
(PID.TID 0000.0001) %MON DXV_min                      =   2.0000000000000E+04
(PID.TID 0000.0001) %MON DXV_mean                     =   2.0000000000000E+04
(PID.TID 0000.0001) %MON DXV_sd                       =   0.0000000000000E+00
(PID.TID 0000.0001) %MON YC_max                       =   1.1900000000000E+06
(PID.TID 0000.0001) %MON YC_min                       =   1.0000000000000E+04
(PID.TID 0000.0001) %MON YC_mean                      =   6.0000000000000E+05
(PID.TID 0000.0001) %MON YC_sd                        =   3.4636204564973E+05
(PID.TID 0000.0001) %MON YG_max                       =   1.1800000000000E+06
(PID.TID 0000.0001) %MON YG_min                       =   2.0000000000000E+04
(PID.TID 0000.0001) %MON YG_mean                      =   6.0000000000000E+05
(PID.TID 0000.0001) %MON YG_sd                        =   3.4058772731853E+05
(PID.TID 0000.0001) %MON DYC_max                      =   2.0000000000000E+04
(PID.TID 0000.0001) %MON DYC_min                      =   2.0000000000000E+04
(PID.TID 0000.0001) %MON DYC_mean                     =   2.0000000000000E+04
(PID.TID 0000.0001) %MON DYC_sd                       =   0.0000000000000E+00
(PID.TID 0000.0001) %MON DYF_max                      =   2.0000000000000E+04
(PID.TID 0000.0001) %MON DYF_min                      =   2.0000000000000E+04
(PID.TID 0000.0001) %MON DYF_mean                     =   2.0000000000000E+04
(PID.TID 0000.0001) %MON DYF_sd                       =   0.0000000000000E+00
(PID.TID 0000.0001) %MON DYG_max                      =   2.0000000000000E+04
(PID.TID 0000.0001) %MON DYG_min                      =   2.0000000000000E+04
(PID.TID 0000.0001) %MON DYG_mean                     =   2.0000000000000E+04
(PID.TID 0000.0001) %MON DYG_sd                       =   0.0000000000000E+00
(PID.TID 0000.0001) %MON DYU_max                      =   2.0000000000000E+04
(PID.TID 0000.0001) %MON DYU_min                      =   2.0000000000000E+04
(PID.TID 0000.0001) %MON DYU_mean                     =   2.0000000000000E+04
(PID.TID 0000.0001) %MON DYU_sd                       =   0.0000000000000E+00
(PID.TID 0000.0001) %MON RA_max                       =   4.0000000000000E+08
(PID.TID 0000.0001) %MON RA_min                       =   4.0000000000000E+08
(PID.TID 0000.0001) %MON RA_mean                      =   4.0000000000000E+08
(PID.TID 0000.0001) %MON RA_sd                        =   0.0000000000000E+00
(PID.TID 0000.0001) %MON RAW_max                      =   4.0000000000000E+08
(PID.TID 0000.0001) %MON RAW_min                      =   4.0000000000000E+08
(PID.TID 0000.0001) %MON RAW_mean                     =   4.0000000000000E+08
(PID.TID 0000.0001) %MON RAW_sd                       =   0.0000000000000E+00
(PID.TID 0000.0001) %MON RAS_max                      =   4.0000000000000E+08
(PID.TID 0000.0001) %MON RAS_min                      =   4.0000000000000E+08
(PID.TID 0000.0001) %MON RAS_mean                     =   4.0000000000000E+08
(PID.TID 0000.0001) %MON RAS_sd                       =   0.0000000000000E+00
(PID.TID 0000.0001) %MON RAZ_max                      =   4.0000000000000E+08
(PID.TID 0000.0001) %MON RAZ_min                      =   4.0000000000000E+08
(PID.TID 0000.0001) %MON RAZ_mean                     =   4.0000000000000E+08
(PID.TID 0000.0001) %MON RAZ_sd                       =   0.0000000000000E+00
(PID.TID 0000.0001)  MDSREADFIELD: opening global file: topog.box
(PID.TID 0000.0001) // =======================================================
(PID.TID 0000.0001) // Field Model R_low (ini_masks_etc) at iteration          1
(PID.TID 0000.0001) // CMIN =         -5.000000000000000E+03
(PID.TID 0000.0001) // CMAX =         -5.000000000000000E+03
(PID.TID 0000.0001) // CINT =          0.000000000000000E+00
(PID.TID 0000.0001) // SYMBOLS (CMIN->CMAX): -abcdefghijklmnopqrstuvwxyz+
(PID.TID 0000.0001) //                  0.0: .
(PID.TID 0000.0001) // RANGE I (Lo:Hi:Step):(  -2:  63:   1)
(PID.TID 0000.0001) // RANGE J (Lo:Hi:Step):(  63:  -2:  -1)
(PID.TID 0000.0001) // RANGE K (Lo:Hi:Step):(   1:   1:   1)
(PID.TID 0000.0001) // =======================================================
(PID.TID 0000.0001) K =   1
(PID.TID 0000.0001) //                I=7       I=17      I=27      I=37      I=47      I=57
(PID.TID 0000.0001) // |--J--|**0123456|890123456|890123456|890123456|890123456|890123456|890123
(PID.TID 0000.0001) //     63 --.-----------------------------------------------------------.---
(PID.TID 0000.0001) //     62 --.-----------------------------------------------------------.---
(PID.TID 0000.0001) //     61 --.-----------------------------------------------------------.---
(PID.TID 0000.0001) //     60 ..................................................................
(PID.TID 0000.0001) //     59 --.-----------------------------------------------------------.---
(PID.TID 0000.0001) //     58 --.-----------------------------------------------------------.---
(PID.TID 0000.0001) //     57 --.-----------------------------------------------------------.---
(PID.TID 0000.0001) //     56 --.-----------------------------------------------------------.---
(PID.TID 0000.0001) //     55 --.-----------------------------------------------------------.---
(PID.TID 0000.0001) //     54 --.-----------------------------------------------------------.---
(PID.TID 0000.0001) //     53 --.-----------------------------------------------------------.---
(PID.TID 0000.0001) //     52 --.-----------------------------------------------------------.---
(PID.TID 0000.0001) //     51 --.-----------------------------------------------------------.---
(PID.TID 0000.0001) //     50 --.-----------------------------------------------------------.---
(PID.TID 0000.0001) //     49 --.-----------------------------------------------------------.---
(PID.TID 0000.0001) //     48 --.-----------------------------------------------------------.---
(PID.TID 0000.0001) //     47 --.-----------------------------------------------------------.---
(PID.TID 0000.0001) //     46 --.-----------------------------------------------------------.---
(PID.TID 0000.0001) //     45 --.-----------------------------------------------------------.---
(PID.TID 0000.0001) //     44 --.-----------------------------------------------------------.---
(PID.TID 0000.0001) //     43 --.-----------------------------------------------------------.---
(PID.TID 0000.0001) //     42 --.-----------------------------------------------------------.---
(PID.TID 0000.0001) //     41 --.-----------------------------------------------------------.---
(PID.TID 0000.0001) //     40 --.-----------------------------------------------------------.---
(PID.TID 0000.0001) //     39 --.-----------------------------------------------------------.---
(PID.TID 0000.0001) //     38 --.-----------------------------------------------------------.---
(PID.TID 0000.0001) //     37 --.-----------------------------------------------------------.---
(PID.TID 0000.0001) //     36 --.-----------------------------------------------------------.---
(PID.TID 0000.0001) //     35 --.-----------------------------------------------------------.---
(PID.TID 0000.0001) //     34 --.-----------------------------------------------------------.---
(PID.TID 0000.0001) //     33 --.-----------------------------------------------------------.---
(PID.TID 0000.0001) //     32 --.-----------------------------------------------------------.---
(PID.TID 0000.0001) //     31 --.-----------------------------------------------------------.---
(PID.TID 0000.0001) //     30 --.-----------------------------------------------------------.---
(PID.TID 0000.0001) //     29 --.-----------------------------------------------------------.---
(PID.TID 0000.0001) //     28 --.-----------------------------------------------------------.---
(PID.TID 0000.0001) //     27 --.-----------------------------------------------------------.---
(PID.TID 0000.0001) //     26 --.-----------------------------------------------------------.---
(PID.TID 0000.0001) //     25 --.-----------------------------------------------------------.---
(PID.TID 0000.0001) //     24 --.-----------------------------------------------------------.---
(PID.TID 0000.0001) //     23 --.-----------------------------------------------------------.---
(PID.TID 0000.0001) //     22 --.-----------------------------------------------------------.---
(PID.TID 0000.0001) //     21 --.-----------------------------------------------------------.---
(PID.TID 0000.0001) //     20 --.-----------------------------------------------------------.---
(PID.TID 0000.0001) //     19 --.-----------------------------------------------------------.---
(PID.TID 0000.0001) //     18 --.-----------------------------------------------------------.---
(PID.TID 0000.0001) //     17 --.-----------------------------------------------------------.---
(PID.TID 0000.0001) //     16 --.-----------------------------------------------------------.---
(PID.TID 0000.0001) //     15 --.-----------------------------------------------------------.---
(PID.TID 0000.0001) //     14 --.-----------------------------------------------------------.---
(PID.TID 0000.0001) //     13 --.-----------------------------------------------------------.---
(PID.TID 0000.0001) //     12 --.-----------------------------------------------------------.---
(PID.TID 0000.0001) //     11 --.-----------------------------------------------------------.---
(PID.TID 0000.0001) //     10 --.-----------------------------------------------------------.---
(PID.TID 0000.0001) //      9 --.-----------------------------------------------------------.---
(PID.TID 0000.0001) //      8 --.-----------------------------------------------------------.---
(PID.TID 0000.0001) //      7 --.-----------------------------------------------------------.---
(PID.TID 0000.0001) //      6 --.-----------------------------------------------------------.---
(PID.TID 0000.0001) //      5 --.-----------------------------------------------------------.---
(PID.TID 0000.0001) //      4 --.-----------------------------------------------------------.---
(PID.TID 0000.0001) //      3 --.-----------------------------------------------------------.---
(PID.TID 0000.0001) //      2 --.-----------------------------------------------------------.---
(PID.TID 0000.0001) //      1 --.-----------------------------------------------------------.---
(PID.TID 0000.0001) //      0 ..................................................................
(PID.TID 0000.0001) //     -1 --.-----------------------------------------------------------.---
(PID.TID 0000.0001) //     -2 --.-----------------------------------------------------------.---
(PID.TID 0000.0001) // =======================================================
(PID.TID 0000.0001) // END OF FIELD                                          =
(PID.TID 0000.0001) // =======================================================
(PID.TID 0000.0001) 
(PID.TID 0000.0001) // =======================================================
(PID.TID 0000.0001) // Field Model Ro_surf (ini_masks_etc) at iteration          1
(PID.TID 0000.0001) // CMIN =          1.000000000000000E+32
(PID.TID 0000.0001) // CMAX =         -1.000000000000000E+32
(PID.TID 0000.0001) // CINT =          0.000000000000000E+00
(PID.TID 0000.0001) // SYMBOLS (CMIN->CMAX): -abcdefghijklmnopqrstuvwxyz+
(PID.TID 0000.0001) //                  0.0: .
(PID.TID 0000.0001) // RANGE I (Lo:Hi:Step):(  -2:  63:   1)
(PID.TID 0000.0001) // RANGE J (Lo:Hi:Step):(  63:  -2:  -1)
(PID.TID 0000.0001) // RANGE K (Lo:Hi:Step):(   1:   1:   1)
(PID.TID 0000.0001) // =======================================================
(PID.TID 0000.0001) K =   1
(PID.TID 0000.0001) //                I=7       I=17      I=27      I=37      I=47      I=57
(PID.TID 0000.0001) // |--J--|**0123456|890123456|890123456|890123456|890123456|890123456|890123
(PID.TID 0000.0001) //     63 ..................................................................
(PID.TID 0000.0001) //     62 ..................................................................
(PID.TID 0000.0001) //     61 ..................................................................
(PID.TID 0000.0001) //     60 ..................................................................
(PID.TID 0000.0001) //     59 ..................................................................
(PID.TID 0000.0001) //     58 ..................................................................
(PID.TID 0000.0001) //     57 ..................................................................
(PID.TID 0000.0001) //     56 ..................................................................
(PID.TID 0000.0001) //     55 ..................................................................
(PID.TID 0000.0001) //     54 ..................................................................
(PID.TID 0000.0001) //     53 ..................................................................
(PID.TID 0000.0001) //     52 ..................................................................
(PID.TID 0000.0001) //     51 ..................................................................
(PID.TID 0000.0001) //     50 ..................................................................
(PID.TID 0000.0001) //     49 ..................................................................
(PID.TID 0000.0001) //     48 ..................................................................
(PID.TID 0000.0001) //     47 ..................................................................
(PID.TID 0000.0001) //     46 ..................................................................
(PID.TID 0000.0001) //     45 ..................................................................
(PID.TID 0000.0001) //     44 ..................................................................
(PID.TID 0000.0001) //     43 ..................................................................
(PID.TID 0000.0001) //     42 ..................................................................
(PID.TID 0000.0001) //     41 ..................................................................
(PID.TID 0000.0001) //     40 ..................................................................
(PID.TID 0000.0001) //     39 ..................................................................
(PID.TID 0000.0001) //     38 ..................................................................
(PID.TID 0000.0001) //     37 ..................................................................
(PID.TID 0000.0001) //     36 ..................................................................
(PID.TID 0000.0001) //     35 ..................................................................
(PID.TID 0000.0001) //     34 ..................................................................
(PID.TID 0000.0001) //     33 ..................................................................
(PID.TID 0000.0001) //     32 ..................................................................
(PID.TID 0000.0001) //     31 ..................................................................
(PID.TID 0000.0001) //     30 ..................................................................
(PID.TID 0000.0001) //     29 ..................................................................
(PID.TID 0000.0001) //     28 ..................................................................
(PID.TID 0000.0001) //     27 ..................................................................
(PID.TID 0000.0001) //     26 ..................................................................
(PID.TID 0000.0001) //     25 ..................................................................
(PID.TID 0000.0001) //     24 ..................................................................
(PID.TID 0000.0001) //     23 ..................................................................
(PID.TID 0000.0001) //     22 ..................................................................
(PID.TID 0000.0001) //     21 ..................................................................
(PID.TID 0000.0001) //     20 ..................................................................
(PID.TID 0000.0001) //     19 ..................................................................
(PID.TID 0000.0001) //     18 ..................................................................
(PID.TID 0000.0001) //     17 ..................................................................
(PID.TID 0000.0001) //     16 ..................................................................
(PID.TID 0000.0001) //     15 ..................................................................
(PID.TID 0000.0001) //     14 ..................................................................
(PID.TID 0000.0001) //     13 ..................................................................
(PID.TID 0000.0001) //     12 ..................................................................
(PID.TID 0000.0001) //     11 ..................................................................
(PID.TID 0000.0001) //     10 ..................................................................
(PID.TID 0000.0001) //      9 ..................................................................
(PID.TID 0000.0001) //      8 ..................................................................
(PID.TID 0000.0001) //      7 ..................................................................
(PID.TID 0000.0001) //      6 ..................................................................
(PID.TID 0000.0001) //      5 ..................................................................
(PID.TID 0000.0001) //      4 ..................................................................
(PID.TID 0000.0001) //      3 ..................................................................
(PID.TID 0000.0001) //      2 ..................................................................
(PID.TID 0000.0001) //      1 ..................................................................
(PID.TID 0000.0001) //      0 ..................................................................
(PID.TID 0000.0001) //     -1 ..................................................................
(PID.TID 0000.0001) //     -2 ..................................................................
(PID.TID 0000.0001) // =======================================================
(PID.TID 0000.0001) // END OF FIELD                                          =
(PID.TID 0000.0001) // =======================================================
(PID.TID 0000.0001) 
(PID.TID 0000.0001) // =======================================================
(PID.TID 0000.0001) // Field hFacC at iteration          1
(PID.TID 0000.0001) // CMIN =          1.000000000000000E+00
(PID.TID 0000.0001) // CMAX =          1.000000000000000E+00
(PID.TID 0000.0001) // CINT =          0.000000000000000E+00
(PID.TID 0000.0001) // SYMBOLS (CMIN->CMAX): -abcdefghijklmnopqrstuvwxyz+
(PID.TID 0000.0001) //                  0.0: .
(PID.TID 0000.0001) // RANGE I (Lo:Hi:Step):(  -2:  63:   1)
(PID.TID 0000.0001) // RANGE J (Lo:Hi:Step):(  63:  -2:  -1)
(PID.TID 0000.0001) // RANGE K (Lo:Hi:Step):(   1:   1:   1)
(PID.TID 0000.0001) // =======================================================
(PID.TID 0000.0001) K =   1
(PID.TID 0000.0001) //                I=7       I=17      I=27      I=37      I=47      I=57
(PID.TID 0000.0001) // |--J--|**0123456|890123456|890123456|890123456|890123456|890123456|890123
(PID.TID 0000.0001) //     63 --.-----------------------------------------------------------.---
(PID.TID 0000.0001) //     62 --.-----------------------------------------------------------.---
(PID.TID 0000.0001) //     61 --.-----------------------------------------------------------.---
(PID.TID 0000.0001) //     60 ..................................................................
(PID.TID 0000.0001) //     59 --.-----------------------------------------------------------.---
(PID.TID 0000.0001) //     58 --.-----------------------------------------------------------.---
(PID.TID 0000.0001) //     57 --.-----------------------------------------------------------.---
(PID.TID 0000.0001) //     56 --.-----------------------------------------------------------.---
(PID.TID 0000.0001) //     55 --.-----------------------------------------------------------.---
(PID.TID 0000.0001) //     54 --.-----------------------------------------------------------.---
(PID.TID 0000.0001) //     53 --.-----------------------------------------------------------.---
(PID.TID 0000.0001) //     52 --.-----------------------------------------------------------.---
(PID.TID 0000.0001) //     51 --.-----------------------------------------------------------.---
(PID.TID 0000.0001) //     50 --.-----------------------------------------------------------.---
(PID.TID 0000.0001) //     49 --.-----------------------------------------------------------.---
(PID.TID 0000.0001) //     48 --.-----------------------------------------------------------.---
(PID.TID 0000.0001) //     47 --.-----------------------------------------------------------.---
(PID.TID 0000.0001) //     46 --.-----------------------------------------------------------.---
(PID.TID 0000.0001) //     45 --.-----------------------------------------------------------.---
(PID.TID 0000.0001) //     44 --.-----------------------------------------------------------.---
(PID.TID 0000.0001) //     43 --.-----------------------------------------------------------.---
(PID.TID 0000.0001) //     42 --.-----------------------------------------------------------.---
(PID.TID 0000.0001) //     41 --.-----------------------------------------------------------.---
(PID.TID 0000.0001) //     40 --.-----------------------------------------------------------.---
(PID.TID 0000.0001) //     39 --.-----------------------------------------------------------.---
(PID.TID 0000.0001) //     38 --.-----------------------------------------------------------.---
(PID.TID 0000.0001) //     37 --.-----------------------------------------------------------.---
(PID.TID 0000.0001) //     36 --.-----------------------------------------------------------.---
(PID.TID 0000.0001) //     35 --.-----------------------------------------------------------.---
(PID.TID 0000.0001) //     34 --.-----------------------------------------------------------.---
(PID.TID 0000.0001) //     33 --.-----------------------------------------------------------.---
(PID.TID 0000.0001) //     32 --.-----------------------------------------------------------.---
(PID.TID 0000.0001) //     31 --.-----------------------------------------------------------.---
(PID.TID 0000.0001) //     30 --.-----------------------------------------------------------.---
(PID.TID 0000.0001) //     29 --.-----------------------------------------------------------.---
(PID.TID 0000.0001) //     28 --.-----------------------------------------------------------.---
(PID.TID 0000.0001) //     27 --.-----------------------------------------------------------.---
(PID.TID 0000.0001) //     26 --.-----------------------------------------------------------.---
(PID.TID 0000.0001) //     25 --.-----------------------------------------------------------.---
(PID.TID 0000.0001) //     24 --.-----------------------------------------------------------.---
(PID.TID 0000.0001) //     23 --.-----------------------------------------------------------.---
(PID.TID 0000.0001) //     22 --.-----------------------------------------------------------.---
(PID.TID 0000.0001) //     21 --.-----------------------------------------------------------.---
(PID.TID 0000.0001) //     20 --.-----------------------------------------------------------.---
(PID.TID 0000.0001) //     19 --.-----------------------------------------------------------.---
(PID.TID 0000.0001) //     18 --.-----------------------------------------------------------.---
(PID.TID 0000.0001) //     17 --.-----------------------------------------------------------.---
(PID.TID 0000.0001) //     16 --.-----------------------------------------------------------.---
(PID.TID 0000.0001) //     15 --.-----------------------------------------------------------.---
(PID.TID 0000.0001) //     14 --.-----------------------------------------------------------.---
(PID.TID 0000.0001) //     13 --.-----------------------------------------------------------.---
(PID.TID 0000.0001) //     12 --.-----------------------------------------------------------.---
(PID.TID 0000.0001) //     11 --.-----------------------------------------------------------.---
(PID.TID 0000.0001) //     10 --.-----------------------------------------------------------.---
(PID.TID 0000.0001) //      9 --.-----------------------------------------------------------.---
(PID.TID 0000.0001) //      8 --.-----------------------------------------------------------.---
(PID.TID 0000.0001) //      7 --.-----------------------------------------------------------.---
(PID.TID 0000.0001) //      6 --.-----------------------------------------------------------.---
(PID.TID 0000.0001) //      5 --.-----------------------------------------------------------.---
(PID.TID 0000.0001) //      4 --.-----------------------------------------------------------.---
(PID.TID 0000.0001) //      3 --.-----------------------------------------------------------.---
(PID.TID 0000.0001) //      2 --.-----------------------------------------------------------.---
(PID.TID 0000.0001) //      1 --.-----------------------------------------------------------.---
(PID.TID 0000.0001) //      0 ..................................................................
(PID.TID 0000.0001) //     -1 --.-----------------------------------------------------------.---
(PID.TID 0000.0001) //     -2 --.-----------------------------------------------------------.---
(PID.TID 0000.0001) // =======================================================
(PID.TID 0000.0001) // END OF FIELD                                          =
(PID.TID 0000.0001) // =======================================================
(PID.TID 0000.0001) 
(PID.TID 0000.0001) // =======================================================
(PID.TID 0000.0001) // Field hFacW at iteration          1
(PID.TID 0000.0001) // CMIN =          1.000000000000000E+00
(PID.TID 0000.0001) // CMAX =          1.000000000000000E+00
(PID.TID 0000.0001) // CINT =          0.000000000000000E+00
(PID.TID 0000.0001) // SYMBOLS (CMIN->CMAX): -abcdefghijklmnopqrstuvwxyz+
(PID.TID 0000.0001) //                  0.0: .
(PID.TID 0000.0001) // RANGE I (Lo:Hi:Step):(  -2:  63:   1)
(PID.TID 0000.0001) // RANGE J (Lo:Hi:Step):(  63:  -2:  -1)
(PID.TID 0000.0001) // RANGE K (Lo:Hi:Step):(   1:   1:   1)
(PID.TID 0000.0001) // =======================================================
(PID.TID 0000.0001) K =   1
(PID.TID 0000.0001) //                I=7       I=17      I=27      I=37      I=47      I=57
(PID.TID 0000.0001) // |--J--|**0123456|890123456|890123456|890123456|890123456|890123456|890123
(PID.TID 0000.0001) //     63 --..----------------------------------------------------------..--
(PID.TID 0000.0001) //     62 --..----------------------------------------------------------..--
(PID.TID 0000.0001) //     61 --..----------------------------------------------------------..--
(PID.TID 0000.0001) //     60 ..................................................................
(PID.TID 0000.0001) //     59 --..----------------------------------------------------------..--
(PID.TID 0000.0001) //     58 --..----------------------------------------------------------..--
(PID.TID 0000.0001) //     57 --..----------------------------------------------------------..--
(PID.TID 0000.0001) //     56 --..----------------------------------------------------------..--
(PID.TID 0000.0001) //     55 --..----------------------------------------------------------..--
(PID.TID 0000.0001) //     54 --..----------------------------------------------------------..--
(PID.TID 0000.0001) //     53 --..----------------------------------------------------------..--
(PID.TID 0000.0001) //     52 --..----------------------------------------------------------..--
(PID.TID 0000.0001) //     51 --..----------------------------------------------------------..--
(PID.TID 0000.0001) //     50 --..----------------------------------------------------------..--
(PID.TID 0000.0001) //     49 --..----------------------------------------------------------..--
(PID.TID 0000.0001) //     48 --..----------------------------------------------------------..--
(PID.TID 0000.0001) //     47 --..----------------------------------------------------------..--
(PID.TID 0000.0001) //     46 --..----------------------------------------------------------..--
(PID.TID 0000.0001) //     45 --..----------------------------------------------------------..--
(PID.TID 0000.0001) //     44 --..----------------------------------------------------------..--
(PID.TID 0000.0001) //     43 --..----------------------------------------------------------..--
(PID.TID 0000.0001) //     42 --..----------------------------------------------------------..--
(PID.TID 0000.0001) //     41 --..----------------------------------------------------------..--
(PID.TID 0000.0001) //     40 --..----------------------------------------------------------..--
(PID.TID 0000.0001) //     39 --..----------------------------------------------------------..--
(PID.TID 0000.0001) //     38 --..----------------------------------------------------------..--
(PID.TID 0000.0001) //     37 --..----------------------------------------------------------..--
(PID.TID 0000.0001) //     36 --..----------------------------------------------------------..--
(PID.TID 0000.0001) //     35 --..----------------------------------------------------------..--
(PID.TID 0000.0001) //     34 --..----------------------------------------------------------..--
(PID.TID 0000.0001) //     33 --..----------------------------------------------------------..--
(PID.TID 0000.0001) //     32 --..----------------------------------------------------------..--
(PID.TID 0000.0001) //     31 --..----------------------------------------------------------..--
(PID.TID 0000.0001) //     30 --..----------------------------------------------------------..--
(PID.TID 0000.0001) //     29 --..----------------------------------------------------------..--
(PID.TID 0000.0001) //     28 --..----------------------------------------------------------..--
(PID.TID 0000.0001) //     27 --..----------------------------------------------------------..--
(PID.TID 0000.0001) //     26 --..----------------------------------------------------------..--
(PID.TID 0000.0001) //     25 --..----------------------------------------------------------..--
(PID.TID 0000.0001) //     24 --..----------------------------------------------------------..--
(PID.TID 0000.0001) //     23 --..----------------------------------------------------------..--
(PID.TID 0000.0001) //     22 --..----------------------------------------------------------..--
(PID.TID 0000.0001) //     21 --..----------------------------------------------------------..--
(PID.TID 0000.0001) //     20 --..----------------------------------------------------------..--
(PID.TID 0000.0001) //     19 --..----------------------------------------------------------..--
(PID.TID 0000.0001) //     18 --..----------------------------------------------------------..--
(PID.TID 0000.0001) //     17 --..----------------------------------------------------------..--
(PID.TID 0000.0001) //     16 --..----------------------------------------------------------..--
(PID.TID 0000.0001) //     15 --..----------------------------------------------------------..--
(PID.TID 0000.0001) //     14 --..----------------------------------------------------------..--
(PID.TID 0000.0001) //     13 --..----------------------------------------------------------..--
(PID.TID 0000.0001) //     12 --..----------------------------------------------------------..--
(PID.TID 0000.0001) //     11 --..----------------------------------------------------------..--
(PID.TID 0000.0001) //     10 --..----------------------------------------------------------..--
(PID.TID 0000.0001) //      9 --..----------------------------------------------------------..--
(PID.TID 0000.0001) //      8 --..----------------------------------------------------------..--
(PID.TID 0000.0001) //      7 --..----------------------------------------------------------..--
(PID.TID 0000.0001) //      6 --..----------------------------------------------------------..--
(PID.TID 0000.0001) //      5 --..----------------------------------------------------------..--
(PID.TID 0000.0001) //      4 --..----------------------------------------------------------..--
(PID.TID 0000.0001) //      3 --..----------------------------------------------------------..--
(PID.TID 0000.0001) //      2 --..----------------------------------------------------------..--
(PID.TID 0000.0001) //      1 --..----------------------------------------------------------..--
(PID.TID 0000.0001) //      0 ..................................................................
(PID.TID 0000.0001) //     -1 --..----------------------------------------------------------..--
(PID.TID 0000.0001) //     -2 --..----------------------------------------------------------..--
(PID.TID 0000.0001) // =======================================================
(PID.TID 0000.0001) // END OF FIELD                                          =
(PID.TID 0000.0001) // =======================================================
(PID.TID 0000.0001) 
(PID.TID 0000.0001) // =======================================================
(PID.TID 0000.0001) // Field hFacS at iteration          1
(PID.TID 0000.0001) // CMIN =          1.000000000000000E+00
(PID.TID 0000.0001) // CMAX =          1.000000000000000E+00
(PID.TID 0000.0001) // CINT =          0.000000000000000E+00
(PID.TID 0000.0001) // SYMBOLS (CMIN->CMAX): -abcdefghijklmnopqrstuvwxyz+
(PID.TID 0000.0001) //                  0.0: .
(PID.TID 0000.0001) // RANGE I (Lo:Hi:Step):(  -2:  63:   1)
(PID.TID 0000.0001) // RANGE J (Lo:Hi:Step):(  63:  -2:  -1)
(PID.TID 0000.0001) // RANGE K (Lo:Hi:Step):(   1:   1:   1)
(PID.TID 0000.0001) // =======================================================
(PID.TID 0000.0001) K =   1
(PID.TID 0000.0001) //                I=7       I=17      I=27      I=37      I=47      I=57
(PID.TID 0000.0001) // |--J--|**0123456|890123456|890123456|890123456|890123456|890123456|890123
(PID.TID 0000.0001) //     63 --.-----------------------------------------------------------.---
(PID.TID 0000.0001) //     62 --.-----------------------------------------------------------.---
(PID.TID 0000.0001) //     61 ..................................................................
(PID.TID 0000.0001) //     60 ..................................................................
(PID.TID 0000.0001) //     59 --.-----------------------------------------------------------.---
(PID.TID 0000.0001) //     58 --.-----------------------------------------------------------.---
(PID.TID 0000.0001) //     57 --.-----------------------------------------------------------.---
(PID.TID 0000.0001) //     56 --.-----------------------------------------------------------.---
(PID.TID 0000.0001) //     55 --.-----------------------------------------------------------.---
(PID.TID 0000.0001) //     54 --.-----------------------------------------------------------.---
(PID.TID 0000.0001) //     53 --.-----------------------------------------------------------.---
(PID.TID 0000.0001) //     52 --.-----------------------------------------------------------.---
(PID.TID 0000.0001) //     51 --.-----------------------------------------------------------.---
(PID.TID 0000.0001) //     50 --.-----------------------------------------------------------.---
(PID.TID 0000.0001) //     49 --.-----------------------------------------------------------.---
(PID.TID 0000.0001) //     48 --.-----------------------------------------------------------.---
(PID.TID 0000.0001) //     47 --.-----------------------------------------------------------.---
(PID.TID 0000.0001) //     46 --.-----------------------------------------------------------.---
(PID.TID 0000.0001) //     45 --.-----------------------------------------------------------.---
(PID.TID 0000.0001) //     44 --.-----------------------------------------------------------.---
(PID.TID 0000.0001) //     43 --.-----------------------------------------------------------.---
(PID.TID 0000.0001) //     42 --.-----------------------------------------------------------.---
(PID.TID 0000.0001) //     41 --.-----------------------------------------------------------.---
(PID.TID 0000.0001) //     40 --.-----------------------------------------------------------.---
(PID.TID 0000.0001) //     39 --.-----------------------------------------------------------.---
(PID.TID 0000.0001) //     38 --.-----------------------------------------------------------.---
(PID.TID 0000.0001) //     37 --.-----------------------------------------------------------.---
(PID.TID 0000.0001) //     36 --.-----------------------------------------------------------.---
(PID.TID 0000.0001) //     35 --.-----------------------------------------------------------.---
(PID.TID 0000.0001) //     34 --.-----------------------------------------------------------.---
(PID.TID 0000.0001) //     33 --.-----------------------------------------------------------.---
(PID.TID 0000.0001) //     32 --.-----------------------------------------------------------.---
(PID.TID 0000.0001) //     31 --.-----------------------------------------------------------.---
(PID.TID 0000.0001) //     30 --.-----------------------------------------------------------.---
(PID.TID 0000.0001) //     29 --.-----------------------------------------------------------.---
(PID.TID 0000.0001) //     28 --.-----------------------------------------------------------.---
(PID.TID 0000.0001) //     27 --.-----------------------------------------------------------.---
(PID.TID 0000.0001) //     26 --.-----------------------------------------------------------.---
(PID.TID 0000.0001) //     25 --.-----------------------------------------------------------.---
(PID.TID 0000.0001) //     24 --.-----------------------------------------------------------.---
(PID.TID 0000.0001) //     23 --.-----------------------------------------------------------.---
(PID.TID 0000.0001) //     22 --.-----------------------------------------------------------.---
(PID.TID 0000.0001) //     21 --.-----------------------------------------------------------.---
(PID.TID 0000.0001) //     20 --.-----------------------------------------------------------.---
(PID.TID 0000.0001) //     19 --.-----------------------------------------------------------.---
(PID.TID 0000.0001) //     18 --.-----------------------------------------------------------.---
(PID.TID 0000.0001) //     17 --.-----------------------------------------------------------.---
(PID.TID 0000.0001) //     16 --.-----------------------------------------------------------.---
(PID.TID 0000.0001) //     15 --.-----------------------------------------------------------.---
(PID.TID 0000.0001) //     14 --.-----------------------------------------------------------.---
(PID.TID 0000.0001) //     13 --.-----------------------------------------------------------.---
(PID.TID 0000.0001) //     12 --.-----------------------------------------------------------.---
(PID.TID 0000.0001) //     11 --.-----------------------------------------------------------.---
(PID.TID 0000.0001) //     10 --.-----------------------------------------------------------.---
(PID.TID 0000.0001) //      9 --.-----------------------------------------------------------.---
(PID.TID 0000.0001) //      8 --.-----------------------------------------------------------.---
(PID.TID 0000.0001) //      7 --.-----------------------------------------------------------.---
(PID.TID 0000.0001) //      6 --.-----------------------------------------------------------.---
(PID.TID 0000.0001) //      5 --.-----------------------------------------------------------.---
(PID.TID 0000.0001) //      4 --.-----------------------------------------------------------.---
(PID.TID 0000.0001) //      3 --.-----------------------------------------------------------.---
(PID.TID 0000.0001) //      2 --.-----------------------------------------------------------.---
(PID.TID 0000.0001) //      1 ..................................................................
(PID.TID 0000.0001) //      0 ..................................................................
(PID.TID 0000.0001) //     -1 --.-----------------------------------------------------------.---
(PID.TID 0000.0001) //     -2 --.-----------------------------------------------------------.---
(PID.TID 0000.0001) // =======================================================
(PID.TID 0000.0001) // END OF FIELD                                          =
(PID.TID 0000.0001) // =======================================================
(PID.TID 0000.0001) 
(PID.TID 0000.0001) %MON fCori_max                    =   1.1190000000000E-04
(PID.TID 0000.0001) %MON fCori_min                    =   1.0010000000000E-04
(PID.TID 0000.0001) %MON fCori_mean                   =   1.0600000000000E-04
(PID.TID 0000.0001) %MON fCori_sd                     =   3.4636204564973E-06
(PID.TID 0000.0001) %MON fCoriG_max                   =   1.1180000000000E-04
(PID.TID 0000.0001) %MON fCoriG_min                   =   1.0000000000000E-04
(PID.TID 0000.0001) %MON fCoriG_mean                  =   1.0590000000000E-04
(PID.TID 0000.0001) %MON fCoriG_sd                    =   3.4636204564973E-06
(PID.TID 0000.0001)  PACKAGE_INIT: opening data.pkg
(PID.TID 0000.0001)  OPEN_COPY_DATA_FILE: opening file data.pkg
(PID.TID 0000.0001) // =======================================================
(PID.TID 0000.0001) // Parameter file "data.pkg"
(PID.TID 0000.0001) // =======================================================
(PID.TID 0000.0001) ># Packages
(PID.TID 0000.0001) > &PACKAGES
(PID.TID 0000.0001) > &
(PID.TID 0000.0001) 
(PID.TID 0000.0001)  PACKAGE_INIT: finished reading data.pkg
(PID.TID 0000.0001) // CG2D normalisation factor =          0.2000000000000000095843472E-03
(PID.TID 0000.0001) 
(PID.TID 0000.0001) // =======================================================
(PID.TID 0000.0001) // Model configuration
(PID.TID 0000.0001) // =======================================================
(PID.TID 0000.0001) //
(PID.TID 0000.0001) // "Physical" paramters ( PARM01 in namelist )
(PID.TID 0000.0001) //
(PID.TID 0000.0001) tRef =   /* Reference temperature profile ( oC or oK ) */
(PID.TID 0000.0001)                 2.000000000000000E+01       /* K =  1 */
(PID.TID 0000.0001)     ;
(PID.TID 0000.0001) sRef =   /* Reference salinity profile ( ppt ) */
(PID.TID 0000.0001)                 1.000000000000000E+01       /* K =  1 */
(PID.TID 0000.0001)     ;
(PID.TID 0000.0001) viscAh =   /* Lateral eddy viscosity ( m^2/s ) */
(PID.TID 0000.0001)                 4.000000000000000E+02
(PID.TID 0000.0001)     ;
(PID.TID 0000.0001) viscAh =   /* Lateral biharmonic viscosity ( m^4/s ) */
(PID.TID 0000.0001)                 0.000000000000000E+00
(PID.TID 0000.0001)     ;
(PID.TID 0000.0001) no_slip_sides =  /* Viscous BCs: No-slip sides */
(PID.TID 0000.0001)                   T
(PID.TID 0000.0001)     ;
(PID.TID 0000.0001) viscAz =   /* Vertical eddy viscosity ( m^2/s ) */
(PID.TID 0000.0001)                 1.000000000000000E-02
(PID.TID 0000.0001)     ;
(PID.TID 0000.0001) viscAr =   /* Vertical eddy viscosity ( units of r^2/s ) */
(PID.TID 0000.0001)                 1.000000000000000E-02
(PID.TID 0000.0001)     ;
(PID.TID 0000.0001) diffKhT =   /* Laplacian diffusion of heat laterally ( m^2/s ) */
(PID.TID 0000.0001)                 4.000000000000000E+02
(PID.TID 0000.0001)     ;
(PID.TID 0000.0001) diffK4T =   /* Bihaarmonic diffusion of heat laterally ( m^4/s ) */
(PID.TID 0000.0001)                 0.000000000000000E+00
(PID.TID 0000.0001)     ;
(PID.TID 0000.0001) diffKzT =   /* Laplacian diffusion of heat vertically ( m^2/s ) */
(PID.TID 0000.0001)                 1.000000000000000E-02
(PID.TID 0000.0001)     ;
(PID.TID 0000.0001) diffKrT =   /* Laplacian diffusion of heat vertically ( m^2/s ) */
(PID.TID 0000.0001)                 1.000000000000000E-02
(PID.TID 0000.0001)     ;
(PID.TID 0000.0001) diffKhS =   /* Laplacian diffusion of salt laterally ( m^2/s ) */
(PID.TID 0000.0001)                 0.000000000000000E+00
(PID.TID 0000.0001)     ;
(PID.TID 0000.0001) diffK4S =   /* Bihaarmonic diffusion of salt laterally ( m^4/s ) */
(PID.TID 0000.0001)                 0.000000000000000E+00
(PID.TID 0000.0001)     ;
(PID.TID 0000.0001) diffKzS =   /* Laplacian diffusion of salt vertically ( m^2/s ) */
(PID.TID 0000.0001)                 1.234567000000000E+05
(PID.TID 0000.0001)     ;
(PID.TID 0000.0001) diffKrS =   /* Laplacian diffusion of salt vertically ( m^2/s ) */
(PID.TID 0000.0001)                 0.000000000000000E+00
(PID.TID 0000.0001)     ;
(PID.TID 0000.0001) tAlpha =   /* Linear EOS thermal expansion coefficient ( 1/degree ) */
(PID.TID 0000.0001)                 2.000000000000000E-04
(PID.TID 0000.0001)     ;
(PID.TID 0000.0001) sBeta =   /* Linear EOS haline contraction coefficient ( 1/ppt ) */
(PID.TID 0000.0001)                 0.000000000000000E+00
(PID.TID 0000.0001)     ;
(PID.TID 0000.0001) rhonil =   /* Reference density ( kg/m^3 ) */
(PID.TID 0000.0001)                 9.998000000000000E+02
(PID.TID 0000.0001)     ;
(PID.TID 0000.0001) rhoConst =   /* Reference density ( kg/m^3 ) */
(PID.TID 0000.0001)                 9.998000000000000E+02
(PID.TID 0000.0001)     ;
(PID.TID 0000.0001) gravity =   /* Gravitational acceleration ( m/s^2 ) */
(PID.TID 0000.0001)                 9.810000000000000E+00
(PID.TID 0000.0001)     ;
(PID.TID 0000.0001) gBaro =   /* Barotropic gravity ( m/s^2 ) */
(PID.TID 0000.0001)                 9.810000000000000E+00
(PID.TID 0000.0001)     ;
(PID.TID 0000.0001) f0 =   /* Reference coriolis parameter ( 1/s ) */
(PID.TID 0000.0001)                 1.000000000000000E-04
(PID.TID 0000.0001)     ;
(PID.TID 0000.0001) beta =   /* Beta ( 1/(m.s) ) */
(PID.TID 0000.0001)                 9.999999999999999E-12
(PID.TID 0000.0001)     ;
(PID.TID 0000.0001) freeSurfFac =   /* Implicit free surface factor */
(PID.TID 0000.0001)                 1.000000000000000E+00
(PID.TID 0000.0001)     ;
(PID.TID 0000.0001) implicitFreeSurface =   /* Implicit free surface on/off flag */
(PID.TID 0000.0001)                   T
(PID.TID 0000.0001)     ;
(PID.TID 0000.0001) rigidLid =   /* Rigid lid on/off flag */
(PID.TID 0000.0001)                   F
(PID.TID 0000.0001)     ;
(PID.TID 0000.0001) implicSurfPress =   /* Surface Pressure implicit factor (0-1)*/
(PID.TID 0000.0001)                 1.000000000000000E+00
(PID.TID 0000.0001)     ;
(PID.TID 0000.0001) implicDiv2Dflow =   /* Barot. Flow Div. implicit factor (0-1)*/
(PID.TID 0000.0001)                 1.000000000000000E+00
(PID.TID 0000.0001)     ;
(PID.TID 0000.0001) staggerTimeStep =   /* Stagger time stepping on/off flag */
(PID.TID 0000.0001)                   F
(PID.TID 0000.0001)     ;
(PID.TID 0000.0001) momStepping =  /* Momentum equation on/off flag */
(PID.TID 0000.0001)                   T
(PID.TID 0000.0001)     ;
(PID.TID 0000.0001) momAdvection =  /* Momentum advection on/off flag */
(PID.TID 0000.0001)                   T
(PID.TID 0000.0001)     ;
(PID.TID 0000.0001) momViscosity =  /* Momentum viscosity on/off flag */
(PID.TID 0000.0001)                   T
(PID.TID 0000.0001)     ;
(PID.TID 0000.0001) useCoriolis =  /* Coriolis on/off flag */
(PID.TID 0000.0001)                   T
(PID.TID 0000.0001)     ;
(PID.TID 0000.0001) momForcing =  /* Momentum forcing on/off flag */
(PID.TID 0000.0001)                   T
(PID.TID 0000.0001)     ;
(PID.TID 0000.0001) momPressureForcing =  /* Momentum pressure term on/off flag */
(PID.TID 0000.0001)                   T
(PID.TID 0000.0001)     ;
(PID.TID 0000.0001) tempStepping =  /* Temperature equation on/off flag */
(PID.TID 0000.0001)                   T
(PID.TID 0000.0001)     ;
(PID.TID 0000.0001) nonHydrostatic =  /* Non-Hydrostatic on/off flag */
(PID.TID 0000.0001)                   F
(PID.TID 0000.0001)     ;
(PID.TID 0000.0001) //
(PID.TID 0000.0001) // Elliptic solver(s) paramters ( PARM02 in namelist )
(PID.TID 0000.0001) //
(PID.TID 0000.0001) cg2dMaxIters =   /* Upper limit on 2d con. grad iterations  */
(PID.TID 0000.0001)                    1000
(PID.TID 0000.0001)     ;
(PID.TID 0000.0001) cg2dChkResFreq =   /* 2d con. grad convergence test frequency */
(PID.TID 0000.0001)                       1
(PID.TID 0000.0001)     ;
(PID.TID 0000.0001) cg2dTargetResidual =   /* 2d con. grad target residual  */
(PID.TID 0000.0001)                 1.000000000000000E-07
(PID.TID 0000.0001)     ;
(PID.TID 0000.0001) //
(PID.TID 0000.0001) // Time stepping paramters ( PARM03 in namelist )
(PID.TID 0000.0001) //
(PID.TID 0000.0001) nIter0 =   /* Base timestep number  */
(PID.TID 0000.0001)                       0
(PID.TID 0000.0001)     ;
(PID.TID 0000.0001) nTimeSteps =   /* Number of timesteps */
(PID.TID 0000.0001)                      10
(PID.TID 0000.0001)     ;
(PID.TID 0000.0001) deltatTmom =   /* Momentum equation timestep ( s ) */
(PID.TID 0000.0001)                 1.200000000000000E+03
(PID.TID 0000.0001)     ;
(PID.TID 0000.0001) deltatTtracer =   /* Tracer equation timestep ( s ) */
(PID.TID 0000.0001)                 1.200000000000000E+03
(PID.TID 0000.0001)     ;
(PID.TID 0000.0001) deltatTClock  =   /* Model clock timestep ( s ) */
(PID.TID 0000.0001)                 1.200000000000000E+03
(PID.TID 0000.0001)     ;
(PID.TID 0000.0001) cAdjFreq =   /* Convective adjustment interval ( s ) */
(PID.TID 0000.0001)                 0.000000000000000E+00
(PID.TID 0000.0001)     ;
(PID.TID 0000.0001) abeps =   /* Adams-Bashforth stabilizing weight */
(PID.TID 0000.0001)                 1.000000000000000E-01
(PID.TID 0000.0001)     ;
(PID.TID 0000.0001) tauCD =   /* CD coupling time-scale ( s ) */
(PID.TID 0000.0001)                 1.200000000000000E+03
(PID.TID 0000.0001)     ;
(PID.TID 0000.0001) rCD =   /* Normalised CD coupling parameter */
(PID.TID 0000.0001)                 0.000000000000000E+00
(PID.TID 0000.0001)     ;
(PID.TID 0000.0001) startTime =   /* Run start time ( s ). */
(PID.TID 0000.0001)                 0.000000000000000E+00
(PID.TID 0000.0001)     ;
(PID.TID 0000.0001) endTime =   /* Integration ending time ( s ). */
(PID.TID 0000.0001)                 1.200000000000000E+04
(PID.TID 0000.0001)     ;
(PID.TID 0000.0001) pChkPtFreq =   /* Permanent restart/checkpoint file interval ( s ). */
(PID.TID 0000.0001)                 2.592000000000000E+06
(PID.TID 0000.0001)     ;
(PID.TID 0000.0001) chkPtFreq =   /* Rolling restart/checkpoint file interval ( s ). */
(PID.TID 0000.0001)                 1.200000000000000E+05
(PID.TID 0000.0001)     ;
(PID.TID 0000.0001) dumpFreq =   /* Model state write out interval ( s ). */
(PID.TID 0000.0001)                 2.592000000000000E+06
(PID.TID 0000.0001)     ;
(PID.TID 0000.0001) //
(PID.TID 0000.0001) // Gridding paramters ( PARM04 in namelist )
(PID.TID 0000.0001) //
(PID.TID 0000.0001) usingCartesianGrid =   /* Cartesian coordinates flag ( True / False ) */
(PID.TID 0000.0001)                   T
(PID.TID 0000.0001)     ;
(PID.TID 0000.0001) usingSphericalPolarGrid =   /* Spherical coordinates flag ( True / False ) */
(PID.TID 0000.0001)                   F
(PID.TID 0000.0001)     ;
(PID.TID 0000.0001) groundAtK1 =   /* Lower Boundary (ground) at the surface(k=1) ( T / F ) */
(PID.TID 0000.0001)                   F
(PID.TID 0000.0001)     ;
(PID.TID 0000.0001) Ro_SeaLevel =   /* r(1) ( units of r ) */
(PID.TID 0000.0001)                 0.000000000000000E+00
(PID.TID 0000.0001)     ;
(PID.TID 0000.0001) rkFac =   /* minus Vertical index orientation  */
(PID.TID 0000.0001)                 1.000000000000000E+00
(PID.TID 0000.0001)     ;
(PID.TID 0000.0001) horiVertRatio =   /* Ratio on units : Horiz - Vertical */
(PID.TID 0000.0001)                 1.000000000000000E+00
(PID.TID 0000.0001)     ;
(PID.TID 0000.0001) delZ =   /* W spacing ( m ) */
(PID.TID 0000.0001)                 5.000000000000000E+03       /* K =  1 */
(PID.TID 0000.0001)     ;
(PID.TID 0000.0001) delP =   /* W spacing ( Pa ) */
(PID.TID 0000.0001)                 1.234567000000000E+05       /* K =  1 */
(PID.TID 0000.0001)     ;
(PID.TID 0000.0001) delR =   /* W spacing ( units of r ) */
(PID.TID 0000.0001)                 5.000000000000000E+03       /* K =  1 */
(PID.TID 0000.0001)     ;
(PID.TID 0000.0001) delX =   /* U spacing ( m - cartesian, degrees - spherical ) */
(PID.TID 0000.0001)    60 @  2.000000000000000E+04              /* I =  1: 60 */
(PID.TID 0000.0001)     ;
(PID.TID 0000.0001) delY =   /* V spacing ( m - cartesian, degrees - spherical ) */
(PID.TID 0000.0001)    60 @  2.000000000000000E+04              /* J =  1: 60 */
(PID.TID 0000.0001)     ;
(PID.TID 0000.0001) phiMin =    /* South edge (ignored - cartesian, degrees - spherical ) */
(PID.TID 0000.0001)                 0.000000000000000E+00
(PID.TID 0000.0001)     ;
(PID.TID 0000.0001) thetaMin =    /* West edge ( ignored - cartesian, degrees - spherical ) */
(PID.TID 0000.0001)                 0.000000000000000E+00
(PID.TID 0000.0001)     ;
(PID.TID 0000.0001) rSphere =    /* Radius ( ignored - cartesian, m - spherical ) */
(PID.TID 0000.0001)                 6.370000000000000E+06
(PID.TID 0000.0001)     ;
(PID.TID 0000.0001) xcoord =   /* P-point X coord ( m - cartesian, degrees - spherical ) */
(PID.TID 0000.0001)                 1.000000000000000E+04,      /* I =  1 */
(PID.TID 0000.0001)                 3.000000000000000E+04,      /* I =  2 */
(PID.TID 0000.0001)                 5.000000000000000E+04,      /* I =  3 */
(PID.TID 0000.0001)                 7.000000000000000E+04,      /* I =  4 */
(PID.TID 0000.0001)                 9.000000000000000E+04,      /* I =  5 */
(PID.TID 0000.0001)                 1.100000000000000E+05,      /* I =  6 */
(PID.TID 0000.0001)                 1.300000000000000E+05,      /* I =  7 */
(PID.TID 0000.0001)                 1.500000000000000E+05,      /* I =  8 */
(PID.TID 0000.0001)                 1.700000000000000E+05,      /* I =  9 */
(PID.TID 0000.0001)                 1.900000000000000E+05,      /* I = 10 */
(PID.TID 0000.0001)                 2.100000000000000E+05,      /* I = 11 */
(PID.TID 0000.0001)                 2.300000000000000E+05,      /* I = 12 */
(PID.TID 0000.0001)                 2.500000000000000E+05,      /* I = 13 */
(PID.TID 0000.0001)                 2.700000000000000E+05,      /* I = 14 */
(PID.TID 0000.0001)                 2.900000000000000E+05,      /* I = 15 */
(PID.TID 0000.0001)                 3.100000000000000E+05,      /* I = 16 */
(PID.TID 0000.0001)                 3.300000000000000E+05,      /* I = 17 */
(PID.TID 0000.0001)                 3.500000000000000E+05,      /* I = 18 */
(PID.TID 0000.0001)                 3.700000000000000E+05,      /* I = 19 */
(PID.TID 0000.0001)                 3.900000000000000E+05,      /* I = 20 */
(PID.TID 0000.0001)                 4.100000000000000E+05,      /* I = 21 */
(PID.TID 0000.0001)                 4.300000000000000E+05,      /* I = 22 */
(PID.TID 0000.0001)                 4.500000000000000E+05,      /* I = 23 */
(PID.TID 0000.0001)                 4.700000000000000E+05,      /* I = 24 */
(PID.TID 0000.0001)                 4.900000000000000E+05,      /* I = 25 */
(PID.TID 0000.0001)                 5.100000000000000E+05,      /* I = 26 */
(PID.TID 0000.0001)                 5.300000000000000E+05,      /* I = 27 */
(PID.TID 0000.0001)                 5.500000000000000E+05,      /* I = 28 */
(PID.TID 0000.0001)                 5.700000000000000E+05,      /* I = 29 */
(PID.TID 0000.0001)                 5.900000000000000E+05,      /* I = 30 */
(PID.TID 0000.0001)                 6.100000000000000E+05,      /* I = 31 */
(PID.TID 0000.0001)                 6.300000000000000E+05,      /* I = 32 */
(PID.TID 0000.0001)                 6.500000000000000E+05,      /* I = 33 */
(PID.TID 0000.0001)                 6.700000000000000E+05,      /* I = 34 */
(PID.TID 0000.0001)                 6.900000000000000E+05,      /* I = 35 */
(PID.TID 0000.0001)                 7.100000000000000E+05,      /* I = 36 */
(PID.TID 0000.0001)                 7.300000000000000E+05,      /* I = 37 */
(PID.TID 0000.0001)                 7.500000000000000E+05,      /* I = 38 */
(PID.TID 0000.0001)                 7.700000000000000E+05,      /* I = 39 */
(PID.TID 0000.0001)                 7.900000000000000E+05,      /* I = 40 */
(PID.TID 0000.0001)                 8.100000000000000E+05,      /* I = 41 */
(PID.TID 0000.0001)                 8.300000000000000E+05,      /* I = 42 */
(PID.TID 0000.0001)                 8.500000000000000E+05,      /* I = 43 */
(PID.TID 0000.0001)                 8.700000000000000E+05,      /* I = 44 */
(PID.TID 0000.0001)                 8.900000000000000E+05,      /* I = 45 */
(PID.TID 0000.0001)                 9.100000000000000E+05,      /* I = 46 */
(PID.TID 0000.0001)                 9.300000000000000E+05,      /* I = 47 */
(PID.TID 0000.0001)                 9.500000000000000E+05,      /* I = 48 */
(PID.TID 0000.0001)                 9.700000000000000E+05,      /* I = 49 */
(PID.TID 0000.0001)                 9.900000000000000E+05,      /* I = 50 */
(PID.TID 0000.0001)                 1.010000000000000E+06,      /* I = 51 */
(PID.TID 0000.0001)                 1.030000000000000E+06,      /* I = 52 */
(PID.TID 0000.0001)                 1.050000000000000E+06,      /* I = 53 */
(PID.TID 0000.0001)                 1.070000000000000E+06,      /* I = 54 */
(PID.TID 0000.0001)                 1.090000000000000E+06,      /* I = 55 */
(PID.TID 0000.0001)                 1.110000000000000E+06,      /* I = 56 */
(PID.TID 0000.0001)                 1.130000000000000E+06,      /* I = 57 */
(PID.TID 0000.0001)                 1.150000000000000E+06,      /* I = 58 */
(PID.TID 0000.0001)                 1.170000000000000E+06,      /* I = 59 */
(PID.TID 0000.0001)                 1.190000000000000E+06       /* I = 60 */
(PID.TID 0000.0001)     ;
(PID.TID 0000.0001) ycoord =   /* P-point Y coord ( m - cartesian, degrees - spherical ) */
(PID.TID 0000.0001)                 1.000000000000000E+04,      /* J =  1 */
(PID.TID 0000.0001)                 3.000000000000000E+04,      /* J =  2 */
(PID.TID 0000.0001)                 5.000000000000000E+04,      /* J =  3 */
(PID.TID 0000.0001)                 7.000000000000000E+04,      /* J =  4 */
(PID.TID 0000.0001)                 9.000000000000000E+04,      /* J =  5 */
(PID.TID 0000.0001)                 1.100000000000000E+05,      /* J =  6 */
(PID.TID 0000.0001)                 1.300000000000000E+05,      /* J =  7 */
(PID.TID 0000.0001)                 1.500000000000000E+05,      /* J =  8 */
(PID.TID 0000.0001)                 1.700000000000000E+05,      /* J =  9 */
(PID.TID 0000.0001)                 1.900000000000000E+05,      /* J = 10 */
(PID.TID 0000.0001)                 2.100000000000000E+05,      /* J = 11 */
(PID.TID 0000.0001)                 2.300000000000000E+05,      /* J = 12 */
(PID.TID 0000.0001)                 2.500000000000000E+05,      /* J = 13 */
(PID.TID 0000.0001)                 2.700000000000000E+05,      /* J = 14 */
(PID.TID 0000.0001)                 2.900000000000000E+05,      /* J = 15 */
(PID.TID 0000.0001)                 3.100000000000000E+05,      /* J = 16 */
(PID.TID 0000.0001)                 3.300000000000000E+05,      /* J = 17 */
(PID.TID 0000.0001)                 3.500000000000000E+05,      /* J = 18 */
(PID.TID 0000.0001)                 3.700000000000000E+05,      /* J = 19 */
(PID.TID 0000.0001)                 3.900000000000000E+05,      /* J = 20 */
(PID.TID 0000.0001)                 4.100000000000000E+05,      /* J = 21 */
(PID.TID 0000.0001)                 4.300000000000000E+05,      /* J = 22 */
(PID.TID 0000.0001)                 4.500000000000000E+05,      /* J = 23 */
(PID.TID 0000.0001)                 4.700000000000000E+05,      /* J = 24 */
(PID.TID 0000.0001)                 4.900000000000000E+05,      /* J = 25 */
(PID.TID 0000.0001)                 5.100000000000000E+05,      /* J = 26 */
(PID.TID 0000.0001)                 5.300000000000000E+05,      /* J = 27 */
(PID.TID 0000.0001)                 5.500000000000000E+05,      /* J = 28 */
(PID.TID 0000.0001)                 5.700000000000000E+05,      /* J = 29 */
(PID.TID 0000.0001)                 5.900000000000000E+05,      /* J = 30 */
(PID.TID 0000.0001)                 6.100000000000000E+05,      /* J = 31 */
(PID.TID 0000.0001)                 6.300000000000000E+05,      /* J = 32 */
(PID.TID 0000.0001)                 6.500000000000000E+05,      /* J = 33 */
(PID.TID 0000.0001)                 6.700000000000000E+05,      /* J = 34 */
(PID.TID 0000.0001)                 6.900000000000000E+05,      /* J = 35 */
(PID.TID 0000.0001)                 7.100000000000000E+05,      /* J = 36 */
(PID.TID 0000.0001)                 7.300000000000000E+05,      /* J = 37 */
(PID.TID 0000.0001)                 7.500000000000000E+05,      /* J = 38 */
(PID.TID 0000.0001)                 7.700000000000000E+05,      /* J = 39 */
(PID.TID 0000.0001)                 7.900000000000000E+05,      /* J = 40 */
(PID.TID 0000.0001)                 8.100000000000000E+05,      /* J = 41 */
(PID.TID 0000.0001)                 8.300000000000000E+05,      /* J = 42 */
(PID.TID 0000.0001)                 8.500000000000000E+05,      /* J = 43 */
(PID.TID 0000.0001)                 8.700000000000000E+05,      /* J = 44 */
(PID.TID 0000.0001)                 8.900000000000000E+05,      /* J = 45 */
(PID.TID 0000.0001)                 9.100000000000000E+05,      /* J = 46 */
(PID.TID 0000.0001)                 9.300000000000000E+05,      /* J = 47 */
(PID.TID 0000.0001)                 9.500000000000000E+05,      /* J = 48 */
(PID.TID 0000.0001)                 9.700000000000000E+05,      /* J = 49 */
(PID.TID 0000.0001)                 9.900000000000000E+05,      /* J = 50 */
(PID.TID 0000.0001)                 1.010000000000000E+06,      /* J = 51 */
(PID.TID 0000.0001)                 1.030000000000000E+06,      /* J = 52 */
(PID.TID 0000.0001)                 1.050000000000000E+06,      /* J = 53 */
(PID.TID 0000.0001)                 1.070000000000000E+06,      /* J = 54 */
(PID.TID 0000.0001)                 1.090000000000000E+06,      /* J = 55 */
(PID.TID 0000.0001)                 1.110000000000000E+06,      /* J = 56 */
(PID.TID 0000.0001)                 1.130000000000000E+06,      /* J = 57 */
(PID.TID 0000.0001)                 1.150000000000000E+06,      /* J = 58 */
(PID.TID 0000.0001)                 1.170000000000000E+06,      /* J = 59 */
(PID.TID 0000.0001)                 1.190000000000000E+06       /* J = 60 */
(PID.TID 0000.0001)     ;
(PID.TID 0000.0001) rcoord =   /* P-point R coordinate (  units of r ) */
(PID.TID 0000.0001)                -2.500000000000000E+03       /* K =  1 */
(PID.TID 0000.0001)     ;
(PID.TID 0000.0001) dxF =  /* dxF(:,1,:,1) ( m - cartesian, degrees - spherical ) */
(PID.TID 0000.0001)    60 @  2.000000000000000E+04              /* I =  1: 60 */
(PID.TID 0000.0001)     ;
(PID.TID 0000.0001) dxF =  /* dxF(1,:,1,:) ( m - cartesian, degrees - spherical ) */
(PID.TID 0000.0001)    60 @  2.000000000000000E+04              /* J =  1: 60 */
(PID.TID 0000.0001)     ;
(PID.TID 0000.0001) dyF =  /* dyF(:,1,:,1) ( m - cartesian, degrees - spherical ) */
(PID.TID 0000.0001)    60 @  2.000000000000000E+04              /* I =  1: 60 */
(PID.TID 0000.0001)     ;
(PID.TID 0000.0001) dyF =  /* dyF(1,:,1,:) ( m - cartesian, degrees - spherical ) */
(PID.TID 0000.0001)    60 @  2.000000000000000E+04              /* J =  1: 60 */
(PID.TID 0000.0001)     ;
(PID.TID 0000.0001) dxG =  /* dxG(:,1,:,1) ( m - cartesian, degrees - spherical ) */
(PID.TID 0000.0001)    60 @  2.000000000000000E+04              /* I =  1: 60 */
(PID.TID 0000.0001)     ;
(PID.TID 0000.0001) dxG =  /* dxG(1,:,1,:) ( m - cartesian, degrees - spherical ) */
(PID.TID 0000.0001)    60 @  2.000000000000000E+04              /* J =  1: 60 */
(PID.TID 0000.0001)     ;
(PID.TID 0000.0001) dyG =  /* dyG(:,1,:,1) ( m - cartesian, degrees - spherical ) */
(PID.TID 0000.0001)    60 @  2.000000000000000E+04              /* I =  1: 60 */
(PID.TID 0000.0001)     ;
(PID.TID 0000.0001) dyG =  /* dyG(1,:,1,:) ( m - cartesian, degrees - spherical ) */
(PID.TID 0000.0001)    60 @  2.000000000000000E+04              /* J =  1: 60 */
(PID.TID 0000.0001)     ;
(PID.TID 0000.0001) dxC =  /* dxC(:,1,:,1) ( m - cartesian, degrees - spherical ) */
(PID.TID 0000.0001)    60 @  2.000000000000000E+04              /* I =  1: 60 */
(PID.TID 0000.0001)     ;
(PID.TID 0000.0001) dxC =  /* dxC(1,:,1,:) ( m - cartesian, degrees - spherical ) */
(PID.TID 0000.0001)    60 @  2.000000000000000E+04              /* J =  1: 60 */
(PID.TID 0000.0001)     ;
(PID.TID 0000.0001) dyC =  /* dyC(:,1,:,1) ( m - cartesian, degrees - spherical ) */
(PID.TID 0000.0001)    60 @  2.000000000000000E+04              /* I =  1: 60 */
(PID.TID 0000.0001)     ;
(PID.TID 0000.0001) dyC =  /* dyC(1,:,1,:) ( m - cartesian, degrees - spherical ) */
(PID.TID 0000.0001)    60 @  2.000000000000000E+04              /* J =  1: 60 */
(PID.TID 0000.0001)     ;
(PID.TID 0000.0001) dxV =  /* dxV(:,1,:,1) ( m - cartesian, degrees - spherical ) */
(PID.TID 0000.0001)    60 @  2.000000000000000E+04              /* I =  1: 60 */
(PID.TID 0000.0001)     ;
(PID.TID 0000.0001) dxV =  /* dxV(1,:,1,:) ( m - cartesian, degrees - spherical ) */
(PID.TID 0000.0001)    60 @  2.000000000000000E+04              /* J =  1: 60 */
(PID.TID 0000.0001)     ;
(PID.TID 0000.0001) dyU =  /* dyU(:,1,:,1) ( m - cartesian, degrees - spherical ) */
(PID.TID 0000.0001)    60 @  2.000000000000000E+04              /* I =  1: 60 */
(PID.TID 0000.0001)     ;
(PID.TID 0000.0001) dyU =  /* dyU(1,:,1,:) ( m - cartesian, degrees - spherical ) */
(PID.TID 0000.0001)    60 @  2.000000000000000E+04              /* J =  1: 60 */
(PID.TID 0000.0001)     ;
(PID.TID 0000.0001) rA =  /* rA(:,1,:,1) ( m - cartesian, degrees - spherical ) */
(PID.TID 0000.0001)    60 @  4.000000000000000E+08              /* I =  1: 60 */
(PID.TID 0000.0001)     ;
(PID.TID 0000.0001) rA =  /* rA(1,:,1,:) ( m - cartesian, degrees - spherical ) */
(PID.TID 0000.0001)    60 @  4.000000000000000E+08              /* J =  1: 60 */
(PID.TID 0000.0001)     ;
(PID.TID 0000.0001) rAw =  /* rAw(:,1,:,1) ( m - cartesian, degrees - spherical ) */
(PID.TID 0000.0001)    60 @  4.000000000000000E+08              /* I =  1: 60 */
(PID.TID 0000.0001)     ;
(PID.TID 0000.0001) rAw =  /* rAw(1,:,1,:) ( m - cartesian, degrees - spherical ) */
(PID.TID 0000.0001)    60 @  4.000000000000000E+08              /* J =  1: 60 */
(PID.TID 0000.0001)     ;
(PID.TID 0000.0001) rAs =  /* rAs(:,1,:,1) ( m - cartesian, degrees - spherical ) */
(PID.TID 0000.0001)    60 @  4.000000000000000E+08              /* I =  1: 60 */
(PID.TID 0000.0001)     ;
(PID.TID 0000.0001) rAs =  /* rAs(1,:,1,:) ( m - cartesian, degrees - spherical ) */
(PID.TID 0000.0001)    60 @  4.000000000000000E+08              /* J =  1: 60 */
(PID.TID 0000.0001)     ;
(PID.TID 0000.0001) 
(PID.TID 0000.0001) // =======================================================
(PID.TID 0000.0001) // Field Initial Temperature at iteration          1
(PID.TID 0000.0001) // CMIN =          2.000000000000000E+01
(PID.TID 0000.0001) // CMAX =          2.000000000000000E+01
(PID.TID 0000.0001) // CINT =          0.000000000000000E+00
(PID.TID 0000.0001) // SYMBOLS (CMIN->CMAX): -abcdefghijklmnopqrstuvwxyz+
(PID.TID 0000.0001) //                  0.0: .
(PID.TID 0000.0001) // RANGE I (Lo:Hi:Step):(   1:  60:   1)
(PID.TID 0000.0001) // RANGE J (Lo:Hi:Step):(  60:   1:  -1)
(PID.TID 0000.0001) // RANGE K (Lo:Hi:Step):(   1:   1:   1)
(PID.TID 0000.0001) // =======================================================
(PID.TID 0000.0001) K =   1
(PID.TID 0000.0001)                I=10      I=20      I=30      I=40      I=50      I=60
(PID.TID 0000.0001) |--J--|123456789|123456789|123456789|123456789|123456789|123456789|
(PID.TID 0000.0001)     60 ............................................................
(PID.TID 0000.0001)     59 -----------------------------------------------------------.
(PID.TID 0000.0001)     58 -----------------------------------------------------------.
(PID.TID 0000.0001)     57 -----------------------------------------------------------.
(PID.TID 0000.0001)     56 -----------------------------------------------------------.
(PID.TID 0000.0001)     55 -----------------------------------------------------------.
(PID.TID 0000.0001)     54 -----------------------------------------------------------.
(PID.TID 0000.0001)     53 -----------------------------------------------------------.
(PID.TID 0000.0001)     52 -----------------------------------------------------------.
(PID.TID 0000.0001)     51 -----------------------------------------------------------.
(PID.TID 0000.0001)     50 -----------------------------------------------------------.
(PID.TID 0000.0001)     49 -----------------------------------------------------------.
(PID.TID 0000.0001)     48 -----------------------------------------------------------.
(PID.TID 0000.0001)     47 -----------------------------------------------------------.
(PID.TID 0000.0001)     46 -----------------------------------------------------------.
(PID.TID 0000.0001)     45 -----------------------------------------------------------.
(PID.TID 0000.0001)     44 -----------------------------------------------------------.
(PID.TID 0000.0001)     43 -----------------------------------------------------------.
(PID.TID 0000.0001)     42 -----------------------------------------------------------.
(PID.TID 0000.0001)     41 -----------------------------------------------------------.
(PID.TID 0000.0001)     40 -----------------------------------------------------------.
(PID.TID 0000.0001)     39 -----------------------------------------------------------.
(PID.TID 0000.0001)     38 -----------------------------------------------------------.
(PID.TID 0000.0001)     37 -----------------------------------------------------------.
(PID.TID 0000.0001)     36 -----------------------------------------------------------.
(PID.TID 0000.0001)     35 -----------------------------------------------------------.
(PID.TID 0000.0001)     34 -----------------------------------------------------------.
(PID.TID 0000.0001)     33 -----------------------------------------------------------.
(PID.TID 0000.0001)     32 -----------------------------------------------------------.
(PID.TID 0000.0001)     31 -----------------------------------------------------------.
(PID.TID 0000.0001)     30 -----------------------------------------------------------.
(PID.TID 0000.0001)     29 -----------------------------------------------------------.
(PID.TID 0000.0001)     28 -----------------------------------------------------------.
(PID.TID 0000.0001)     27 -----------------------------------------------------------.
(PID.TID 0000.0001)     26 -----------------------------------------------------------.
(PID.TID 0000.0001)     25 -----------------------------------------------------------.
(PID.TID 0000.0001)     24 -----------------------------------------------------------.
(PID.TID 0000.0001)     23 -----------------------------------------------------------.
(PID.TID 0000.0001)     22 -----------------------------------------------------------.
(PID.TID 0000.0001)     21 -----------------------------------------------------------.
(PID.TID 0000.0001)     20 -----------------------------------------------------------.
(PID.TID 0000.0001)     19 -----------------------------------------------------------.
(PID.TID 0000.0001)     18 -----------------------------------------------------------.
(PID.TID 0000.0001)     17 -----------------------------------------------------------.
(PID.TID 0000.0001)     16 -----------------------------------------------------------.
(PID.TID 0000.0001)     15 -----------------------------------------------------------.
(PID.TID 0000.0001)     14 -----------------------------------------------------------.
(PID.TID 0000.0001)     13 -----------------------------------------------------------.
(PID.TID 0000.0001)     12 -----------------------------------------------------------.
(PID.TID 0000.0001)     11 -----------------------------------------------------------.
(PID.TID 0000.0001)     10 -----------------------------------------------------------.
(PID.TID 0000.0001)      9 -----------------------------------------------------------.
(PID.TID 0000.0001)      8 -----------------------------------------------------------.
(PID.TID 0000.0001)      7 -----------------------------------------------------------.
(PID.TID 0000.0001)      6 -----------------------------------------------------------.
(PID.TID 0000.0001)      5 -----------------------------------------------------------.
(PID.TID 0000.0001)      4 -----------------------------------------------------------.
(PID.TID 0000.0001)      3 -----------------------------------------------------------.
(PID.TID 0000.0001)      2 -----------------------------------------------------------.
(PID.TID 0000.0001)      1 -----------------------------------------------------------.
(PID.TID 0000.0001) // =======================================================
(PID.TID 0000.0001) // END OF FIELD                                          =
(PID.TID 0000.0001) // =======================================================
(PID.TID 0000.0001) 
(PID.TID 0000.0001) // =======================================================
(PID.TID 0000.0001) // Field Initial Salinity at iteration          1
(PID.TID 0000.0001) // CMIN =          1.000000000000000E+01
(PID.TID 0000.0001) // CMAX =          1.000000000000000E+01
(PID.TID 0000.0001) // CINT =          0.000000000000000E+00
(PID.TID 0000.0001) // SYMBOLS (CMIN->CMAX): -abcdefghijklmnopqrstuvwxyz+
(PID.TID 0000.0001) //                  0.0: .
(PID.TID 0000.0001) // RANGE I (Lo:Hi:Step):(   1:  60:   1)
(PID.TID 0000.0001) // RANGE J (Lo:Hi:Step):(  60:   1:  -1)
(PID.TID 0000.0001) // RANGE K (Lo:Hi:Step):(   1:   1:   1)
(PID.TID 0000.0001) // =======================================================
(PID.TID 0000.0001) K =   1
(PID.TID 0000.0001)                I=10      I=20      I=30      I=40      I=50      I=60
(PID.TID 0000.0001) |--J--|123456789|123456789|123456789|123456789|123456789|123456789|
(PID.TID 0000.0001)     60 ............................................................
(PID.TID 0000.0001)     59 -----------------------------------------------------------.
(PID.TID 0000.0001)     58 -----------------------------------------------------------.
(PID.TID 0000.0001)     57 -----------------------------------------------------------.
(PID.TID 0000.0001)     56 -----------------------------------------------------------.
(PID.TID 0000.0001)     55 -----------------------------------------------------------.
(PID.TID 0000.0001)     54 -----------------------------------------------------------.
(PID.TID 0000.0001)     53 -----------------------------------------------------------.
(PID.TID 0000.0001)     52 -----------------------------------------------------------.
(PID.TID 0000.0001)     51 -----------------------------------------------------------.
(PID.TID 0000.0001)     50 -----------------------------------------------------------.
(PID.TID 0000.0001)     49 -----------------------------------------------------------.
(PID.TID 0000.0001)     48 -----------------------------------------------------------.
(PID.TID 0000.0001)     47 -----------------------------------------------------------.
(PID.TID 0000.0001)     46 -----------------------------------------------------------.
(PID.TID 0000.0001)     45 -----------------------------------------------------------.
(PID.TID 0000.0001)     44 -----------------------------------------------------------.
(PID.TID 0000.0001)     43 -----------------------------------------------------------.
(PID.TID 0000.0001)     42 -----------------------------------------------------------.
(PID.TID 0000.0001)     41 -----------------------------------------------------------.
(PID.TID 0000.0001)     40 -----------------------------------------------------------.
(PID.TID 0000.0001)     39 -----------------------------------------------------------.
(PID.TID 0000.0001)     38 -----------------------------------------------------------.
(PID.TID 0000.0001)     37 -----------------------------------------------------------.
(PID.TID 0000.0001)     36 -----------------------------------------------------------.
(PID.TID 0000.0001)     35 -----------------------------------------------------------.
(PID.TID 0000.0001)     34 -----------------------------------------------------------.
(PID.TID 0000.0001)     33 -----------------------------------------------------------.
(PID.TID 0000.0001)     32 -----------------------------------------------------------.
(PID.TID 0000.0001)     31 -----------------------------------------------------------.
(PID.TID 0000.0001)     30 -----------------------------------------------------------.
(PID.TID 0000.0001)     29 -----------------------------------------------------------.
(PID.TID 0000.0001)     28 -----------------------------------------------------------.
(PID.TID 0000.0001)     27 -----------------------------------------------------------.
(PID.TID 0000.0001)     26 -----------------------------------------------------------.
(PID.TID 0000.0001)     25 -----------------------------------------------------------.
(PID.TID 0000.0001)     24 -----------------------------------------------------------.
(PID.TID 0000.0001)     23 -----------------------------------------------------------.
(PID.TID 0000.0001)     22 -----------------------------------------------------------.
(PID.TID 0000.0001)     21 -----------------------------------------------------------.
(PID.TID 0000.0001)     20 -----------------------------------------------------------.
(PID.TID 0000.0001)     19 -----------------------------------------------------------.
(PID.TID 0000.0001)     18 -----------------------------------------------------------.
(PID.TID 0000.0001)     17 -----------------------------------------------------------.
(PID.TID 0000.0001)     16 -----------------------------------------------------------.
(PID.TID 0000.0001)     15 -----------------------------------------------------------.
(PID.TID 0000.0001)     14 -----------------------------------------------------------.
(PID.TID 0000.0001)     13 -----------------------------------------------------------.
(PID.TID 0000.0001)     12 -----------------------------------------------------------.
(PID.TID 0000.0001)     11 -----------------------------------------------------------.
(PID.TID 0000.0001)     10 -----------------------------------------------------------.
(PID.TID 0000.0001)      9 -----------------------------------------------------------.
(PID.TID 0000.0001)      8 -----------------------------------------------------------.
(PID.TID 0000.0001)      7 -----------------------------------------------------------.
(PID.TID 0000.0001)      6 -----------------------------------------------------------.
(PID.TID 0000.0001)      5 -----------------------------------------------------------.
(PID.TID 0000.0001)      4 -----------------------------------------------------------.
(PID.TID 0000.0001)      3 -----------------------------------------------------------.
(PID.TID 0000.0001)      2 -----------------------------------------------------------.
(PID.TID 0000.0001)      1 -----------------------------------------------------------.
(PID.TID 0000.0001) // =======================================================
(PID.TID 0000.0001) // END OF FIELD                                          =
(PID.TID 0000.0001) // =======================================================
(PID.TID 0000.0001) 
(PID.TID 0000.0001)  MDSREADFIELD: opening global file: windx.sin_y
(PID.TID 0000.0001) // =======================================================
(PID.TID 0000.0001) // Model current state
(PID.TID 0000.0001) // =======================================================
(PID.TID 0000.0001) 
(PID.TID 0000.0001) // =======================================================
(PID.TID 0000.0001) // Begin MONITOR dynamic field statistics
(PID.TID 0000.0001) // =======================================================
(PID.TID 0000.0001) %MON time_tsnumber                =                     0
(PID.TID 0000.0001) %MON time_secondsf                =   0.0000000000000E+00
(PID.TID 0000.0001) %MON time_secondsi                =                     0
(PID.TID 0000.0001) %MON dynstat_eta_max              =   0.0000000000000E+00
(PID.TID 0000.0001) %MON dynstat_eta_min              =   0.0000000000000E+00
(PID.TID 0000.0001) %MON dynstat_eta_mean             =   0.0000000000000E+00
(PID.TID 0000.0001) %MON dynstat_eta_sd               =   0.0000000000000E+00
(PID.TID 0000.0001) %MON dynstat_uvel_max             =   0.0000000000000E+00
(PID.TID 0000.0001) %MON dynstat_uvel_min             =   0.0000000000000E+00
(PID.TID 0000.0001) %MON dynstat_uvel_mean            =   0.0000000000000E+00
(PID.TID 0000.0001) %MON dynstat_uvel_sd              =   0.0000000000000E+00
(PID.TID 0000.0001) %MON dynstat_vvel_max             =   0.0000000000000E+00
(PID.TID 0000.0001) %MON dynstat_vvel_min             =   0.0000000000000E+00
(PID.TID 0000.0001) %MON dynstat_vvel_mean            =   0.0000000000000E+00
(PID.TID 0000.0001) %MON dynstat_vvel_sd              =   0.0000000000000E+00
(PID.TID 0000.0001) %MON dynstat_wvel_max             =   0.0000000000000E+00
(PID.TID 0000.0001) %MON dynstat_wvel_min             =   0.0000000000000E+00
(PID.TID 0000.0001) %MON dynstat_wvel_mean            =   0.0000000000000E+00
(PID.TID 0000.0001) %MON dynstat_wvel_sd              =   0.0000000000000E+00
(PID.TID 0000.0001) %MON dynstat_theta_max            =   2.0000000000000E+01
(PID.TID 0000.0001) %MON dynstat_theta_min            =   2.0000000000000E+01
(PID.TID 0000.0001) %MON dynstat_theta_mean           =   2.0000000000000E+01
(PID.TID 0000.0001) %MON dynstat_theta_sd             =   0.0000000000000E+00
(PID.TID 0000.0001) %MON dynstat_salt_max             =   1.0000000000000E+01
(PID.TID 0000.0001) %MON dynstat_salt_min             =   1.0000000000000E+01
(PID.TID 0000.0001) %MON dynstat_salt_mean            =   1.0000000000000E+01
(PID.TID 0000.0001) %MON dynstat_salt_sd              =   0.0000000000000E+00
(PID.TID 0000.0001) %MON advcfl_uvel_max              =   0.0000000000000E+00
(PID.TID 0000.0001) %MON advcfl_vvel_max              =   0.0000000000000E+00
(PID.TID 0000.0001) %MON advcfl_wvel_max              =   0.0000000000000E+00
(PID.TID 0000.0001) %MON advcfl_W_hf_max              =   0.0000000000000E+00
(PID.TID 0000.0001) %MON ke_max                       =   0.0000000000000E+00
(PID.TID 0000.0001) %MON ke_mean                      =   0.0000000000000E+00
(PID.TID 0000.0001) // =======================================================
(PID.TID 0000.0001) // End MONITOR dynamic field statistics
(PID.TID 0000.0001) // =======================================================
 cg2d: Sum(rhs),rhsMax =   0.00000000000000E+00  4.00080016003201E-04
(PID.TID 0000.0001)                    cg2d_init_res =    7.68114574786861E+00
(PID.TID 0000.0001)                       cg2d_iters =    70
(PID.TID 0000.0001)                         cg2d_res =    8.05222445954921E-08
(PID.TID 0000.0001) // =======================================================
(PID.TID 0000.0001) // Begin MONITOR dynamic field statistics
(PID.TID 0000.0001) // =======================================================
(PID.TID 0000.0001) %MON time_tsnumber                =                     1
(PID.TID 0000.0001) %MON time_secondsf                =   1.2000000000000E+03
(PID.TID 0000.0001) %MON time_secondsi                =                  1200
(PID.TID 0000.0001) %MON dynstat_eta_max              =   4.3758632977847E-04
(PID.TID 0000.0001) %MON dynstat_eta_min              =  -4.3758632977847E-04
(PID.TID 0000.0001) %MON dynstat_eta_mean             =   1.3081439599078E-21
(PID.TID 0000.0001) %MON dynstat_eta_sd               =   1.5673928684392E-04
(PID.TID 0000.0001) %MON dynstat_uvel_max             =   2.0287550985396E-05
(PID.TID 0000.0001) %MON dynstat_uvel_min             =  -3.9462434727084E-06
(PID.TID 0000.0001) %MON dynstat_uvel_mean            =   8.7025824510726E-06
(PID.TID 0000.0001) %MON dynstat_uvel_sd              =   6.7009594059407E-06
(PID.TID 0000.0001) %MON dynstat_vvel_max             =   7.8123864513865E-06
(PID.TID 0000.0001) %MON dynstat_vvel_min             =  -7.8123864513865E-06
(PID.TID 0000.0001) %MON dynstat_vvel_mean            =   1.2623810727636E-23
(PID.TID 0000.0001) %MON dynstat_vvel_sd              =   2.1661848252698E-06
(PID.TID 0000.0001) %MON dynstat_wvel_max             =   0.0000000000000E+00
(PID.TID 0000.0001) %MON dynstat_wvel_min             =   0.0000000000000E+00
(PID.TID 0000.0001) %MON dynstat_wvel_mean            =   0.0000000000000E+00
(PID.TID 0000.0001) %MON dynstat_wvel_sd              =   0.0000000000000E+00
(PID.TID 0000.0001) %MON dynstat_theta_max            =   2.0000000000000E+01
(PID.TID 0000.0001) %MON dynstat_theta_min            =   2.0000000000000E+01
(PID.TID 0000.0001) %MON dynstat_theta_mean           =   2.0000000000000E+01
(PID.TID 0000.0001) %MON dynstat_theta_sd             =   0.0000000000000E+00
(PID.TID 0000.0001) %MON dynstat_salt_max             =   1.0000000000000E+01
(PID.TID 0000.0001) %MON dynstat_salt_min             =   1.0000000000000E+01
(PID.TID 0000.0001) %MON dynstat_salt_mean            =   1.0000000000000E+01
(PID.TID 0000.0001) %MON dynstat_salt_sd              =   0.0000000000000E+00
(PID.TID 0000.0001) %MON advcfl_uvel_max              =   1.2172530591237E-06
(PID.TID 0000.0001) %MON advcfl_vvel_max              =   4.6874318708319E-07
(PID.TID 0000.0001) %MON advcfl_wvel_max              =   0.0000000000000E+00
(PID.TID 0000.0001) %MON advcfl_W_hf_max              =   0.0000000000000E+00
(PID.TID 0000.0001) %MON ke_max                       =   2.0579236249252E-10
(PID.TID 0000.0001) %MON ke_mean                      =   6.1602957530090E-11
(PID.TID 0000.0001) // =======================================================
(PID.TID 0000.0001) // End MONITOR dynamic field statistics
(PID.TID 0000.0001) // =======================================================
 cg2d: Sum(rhs),rhsMax =  -3.06699110552699E-15  4.50084479597628E-04
(PID.TID 0000.0001)                    cg2d_init_res =    2.36253875262731E+00
(PID.TID 0000.0001)                       cg2d_iters =    91
(PID.TID 0000.0001)                         cg2d_res =    7.96947530511652E-08
(PID.TID 0000.0001) // =======================================================
(PID.TID 0000.0001) // Begin MONITOR dynamic field statistics
(PID.TID 0000.0001) // =======================================================
(PID.TID 0000.0001) %MON time_tsnumber                =                     2
(PID.TID 0000.0001) %MON time_secondsf                =   2.4000000000000E+03
(PID.TID 0000.0001) %MON time_secondsi                =                  2400
(PID.TID 0000.0001) %MON dynstat_eta_max              =   7.8174252783372E-04
(PID.TID 0000.0001) %MON dynstat_eta_min              =  -7.8088778720278E-04
(PID.TID 0000.0001) %MON dynstat_eta_mean             =  -1.3369574159707E-14
(PID.TID 0000.0001) %MON dynstat_eta_sd               =   3.5102603645643E-04
(PID.TID 0000.0001) %MON dynstat_uvel_max             =   3.2907571558992E-05
(PID.TID 0000.0001) %MON dynstat_uvel_min             =  -1.3319659886870E-05
(PID.TID 0000.0001) %MON dynstat_uvel_mean            =   1.1287667717349E-05
(PID.TID 0000.0001) %MON dynstat_uvel_sd              =   1.2209285791680E-05
(PID.TID 0000.0001) %MON dynstat_vvel_max             =   1.8512953349156E-05
(PID.TID 0000.0001) %MON dynstat_vvel_min             =  -1.7994176989181E-05
(PID.TID 0000.0001) %MON dynstat_vvel_mean            =  -1.2421483130188E-06
(PID.TID 0000.0001) %MON dynstat_vvel_sd              =   5.4499429672373E-06
(PID.TID 0000.0001) %MON dynstat_wvel_max             =   3.6465527936436E-07
(PID.TID 0000.0001) %MON dynstat_wvel_min             =  -3.6465527936436E-07
(PID.TID 0000.0001) %MON dynstat_wvel_mean            =  -7.6040734276636E-26
(PID.TID 0000.0001) %MON dynstat_wvel_sd              =   1.3061607236993E-07
(PID.TID 0000.0001) %MON dynstat_theta_max            =   2.0000000000000E+01
(PID.TID 0000.0001) %MON dynstat_theta_min            =   2.0000000000000E+01
(PID.TID 0000.0001) %MON dynstat_theta_mean           =   2.0000000000000E+01
(PID.TID 0000.0001) %MON dynstat_theta_sd             =   0.0000000000000E+00
(PID.TID 0000.0001) %MON dynstat_salt_max             =   1.0000000000000E+01
(PID.TID 0000.0001) %MON dynstat_salt_min             =   1.0000000000000E+01
(PID.TID 0000.0001) %MON dynstat_salt_mean            =   1.0000000000000E+01
(PID.TID 0000.0001) %MON dynstat_salt_sd              =   0.0000000000000E+00
(PID.TID 0000.0001) %MON advcfl_uvel_max              =   1.9744542935395E-06
(PID.TID 0000.0001) %MON advcfl_vvel_max              =   1.1107772009494E-06
(PID.TID 0000.0001) %MON advcfl_wvel_max              =   1.7503453409489E-07
(PID.TID 0000.0001) %MON advcfl_W_hf_max              =   0.0000000000000E+00
(PID.TID 0000.0001) %MON ke_max                       =   5.4530303504179E-10
(PID.TID 0000.0001) %MON ke_mean                      =   1.5125363511387E-10
(PID.TID 0000.0001) // =======================================================
(PID.TID 0000.0001) // End MONITOR dynamic field statistics
(PID.TID 0000.0001) // =======================================================
 cg2d: Sum(rhs),rhsMax =   5.51641546331361E-09  4.68697242548701E-04
(PID.TID 0000.0001)                    cg2d_init_res =    1.86594477165273E+00
(PID.TID 0000.0001)                       cg2d_iters =   101
(PID.TID 0000.0001)                         cg2d_res =    8.17997859731968E-08
(PID.TID 0000.0001) // =======================================================
(PID.TID 0000.0001) // Begin MONITOR dynamic field statistics
(PID.TID 0000.0001) // =======================================================
(PID.TID 0000.0001) %MON time_tsnumber                =                     3
(PID.TID 0000.0001) %MON time_secondsf                =   3.6000000000000E+03
(PID.TID 0000.0001) %MON time_secondsi                =                  3600
(PID.TID 0000.0001) %MON dynstat_eta_max              =   1.0025466645951E-03
(PID.TID 0000.0001) %MON dynstat_eta_min              =  -1.0008899950901E-03
(PID.TID 0000.0001) %MON dynstat_eta_mean             =   2.1036865668741E-14
(PID.TID 0000.0001) %MON dynstat_eta_sd               =   5.0985228723396E-04
(PID.TID 0000.0001) %MON dynstat_uvel_max             =   3.7594045977254E-05
(PID.TID 0000.0001) %MON dynstat_uvel_min             =  -2.8264287531564E-05
(PID.TID 0000.0001) %MON dynstat_uvel_mean            =   9.1369201945671E-06
(PID.TID 0000.0001) %MON dynstat_uvel_sd              =   1.6868439193567E-05
(PID.TID 0000.0001) %MON dynstat_vvel_max             =   2.9572069440014E-05
(PID.TID 0000.0001) %MON dynstat_vvel_min             =  -2.7460381019481E-05
(PID.TID 0000.0001) %MON dynstat_vvel_mean            =  -1.7193142563760E-06
(PID.TID 0000.0001) %MON dynstat_vvel_sd              =   8.7384967741039E-06
(PID.TID 0000.0001) %MON dynstat_wvel_max             =   2.8701672632173E-07
(PID.TID 0000.0001) %MON dynstat_wvel_min             =  -2.8630564797166E-07
(PID.TID 0000.0001) %MON dynstat_wvel_mean            =   6.5395031477907E-24
(PID.TID 0000.0001) %MON dynstat_wvel_sd              =   1.6482649782438E-07
(PID.TID 0000.0001) %MON dynstat_theta_max            =   2.0000000000000E+01
(PID.TID 0000.0001) %MON dynstat_theta_min            =   2.0000000000000E+01
(PID.TID 0000.0001) %MON dynstat_theta_mean           =   2.0000000000000E+01
(PID.TID 0000.0001) %MON dynstat_theta_sd             =   0.0000000000000E+00
(PID.TID 0000.0001) %MON dynstat_salt_max             =   1.0000000000000E+01
(PID.TID 0000.0001) %MON dynstat_salt_min             =   1.0000000000000E+01
(PID.TID 0000.0001) %MON dynstat_salt_mean            =   1.0000000000000E+01
(PID.TID 0000.0001) %MON dynstat_salt_sd              =   0.0000000000000E+00
(PID.TID 0000.0001) %MON advcfl_uvel_max              =   2.2556427586352E-06
(PID.TID 0000.0001) %MON advcfl_vvel_max              =   1.7743241664008E-06
(PID.TID 0000.0001) %MON advcfl_wvel_max              =   1.3776802863443E-07
(PID.TID 0000.0001) %MON advcfl_W_hf_max              =   0.0000000000000E+00
(PID.TID 0000.0001) %MON ke_max                       =   7.1675260160899E-10
(PID.TID 0000.0001) %MON ke_mean                      =   2.1988140079174E-10
(PID.TID 0000.0001) // =======================================================
(PID.TID 0000.0001) // End MONITOR dynamic field statistics
(PID.TID 0000.0001) // =======================================================
 cg2d: Sum(rhs),rhsMax =  -8.42797751032798E-09  4.82711414142770E-04
(PID.TID 0000.0001)                    cg2d_init_res =    1.24219299675566E+00
(PID.TID 0000.0001)                       cg2d_iters =   100
(PID.TID 0000.0001)                         cg2d_res =    9.89819424538320E-08
(PID.TID 0000.0001) // =======================================================
(PID.TID 0000.0001) // Begin MONITOR dynamic field statistics
(PID.TID 0000.0001) // =======================================================
(PID.TID 0000.0001) %MON time_tsnumber                =                     4
(PID.TID 0000.0001) %MON time_secondsf                =   4.8000000000000E+03
(PID.TID 0000.0001) %MON time_secondsi                =                  4800
(PID.TID 0000.0001) %MON dynstat_eta_max              =   1.1061504071643E-03
(PID.TID 0000.0001) %MON dynstat_eta_min              =  -1.1043122031639E-03
(PID.TID 0000.0001) %MON dynstat_eta_mean             =   3.8517759321249E-14
(PID.TID 0000.0001) %MON dynstat_eta_sd               =   5.9307326714862E-04
(PID.TID 0000.0001) %MON dynstat_uvel_max             =   3.8321337317447E-05
(PID.TID 0000.0001) %MON dynstat_uvel_min             =  -4.7589747449979E-05
(PID.TID 0000.0001) %MON dynstat_uvel_mean            =   4.7042529096160E-06
(PID.TID 0000.0001) %MON dynstat_uvel_sd              =   2.1736003045261E-05
(PID.TID 0000.0001) %MON dynstat_vvel_max             =   4.0239001304324E-05
(PID.TID 0000.0001) %MON dynstat_vvel_min             =  -3.5941624736132E-05
(PID.TID 0000.0001) %MON dynstat_vvel_mean            =  -1.2682500848059E-06
(PID.TID 0000.0001) %MON dynstat_vvel_sd              =   1.1685735006870E-05
(PID.TID 0000.0001) %MON dynstat_wvel_max             =   2.0683211324377E-07
(PID.TID 0000.0001) %MON dynstat_wvel_min             =  -2.0639979271197E-07
(PID.TID 0000.0001) %MON dynstat_wvel_mean            =  -7.5736571339529E-24
(PID.TID 0000.0001) %MON dynstat_wvel_sd              =   1.3563249671941E-07
(PID.TID 0000.0001) %MON dynstat_theta_max            =   2.0000000000000E+01
(PID.TID 0000.0001) %MON dynstat_theta_min            =   2.0000000000000E+01
(PID.TID 0000.0001) %MON dynstat_theta_mean           =   2.0000000000000E+01
(PID.TID 0000.0001) %MON dynstat_theta_sd             =   0.0000000000000E+00
(PID.TID 0000.0001) %MON dynstat_salt_max             =   1.0000000000000E+01
(PID.TID 0000.0001) %MON dynstat_salt_min             =   1.0000000000000E+01
(PID.TID 0000.0001) %MON dynstat_salt_mean            =   1.0000000000000E+01
(PID.TID 0000.0001) %MON dynstat_salt_sd              =   0.0000000000000E+00
(PID.TID 0000.0001) %MON advcfl_uvel_max              =   2.8553848469988E-06
(PID.TID 0000.0001) %MON advcfl_vvel_max              =   2.4143400782595E-06
(PID.TID 0000.0001) %MON advcfl_wvel_max              =   9.9279414357008E-08
(PID.TID 0000.0001) %MON advcfl_W_hf_max              =   0.0000000000000E+00
(PID.TID 0000.0001) %MON ke_max                       =   1.1323830423192E-09
(PID.TID 0000.0001) %MON ke_mean                      =   3.1101206538541E-10
(PID.TID 0000.0001) // =======================================================
(PID.TID 0000.0001) // End MONITOR dynamic field statistics
(PID.TID 0000.0001) // =======================================================
 cg2d: Sum(rhs),rhsMax =  -1.51175032492290E-08  4.92733895556953E-04
(PID.TID 0000.0001)                    cg2d_init_res =    9.07487550020529E-01
(PID.TID 0000.0001)                       cg2d_iters =   101
(PID.TID 0000.0001)                         cg2d_res =    8.20688117775152E-08
(PID.TID 0000.0001) // =======================================================
(PID.TID 0000.0001) // Begin MONITOR dynamic field statistics
(PID.TID 0000.0001) // =======================================================
(PID.TID 0000.0001) %MON time_tsnumber                =                     5
(PID.TID 0000.0001) %MON time_secondsf                =   6.0000000000000E+03
(PID.TID 0000.0001) %MON time_secondsi                =                  6000
(PID.TID 0000.0001) %MON dynstat_eta_max              =   1.1084803098865E-03
(PID.TID 0000.0001) %MON dynstat_eta_min              =  -1.1070178961776E-03
(PID.TID 0000.0001) %MON dynstat_eta_mean             =   4.7955710547007E-14
(PID.TID 0000.0001) %MON dynstat_eta_sd               =   5.9840968654762E-04
(PID.TID 0000.0001) %MON dynstat_uvel_max             =   3.9121455067508E-05
(PID.TID 0000.0001) %MON dynstat_uvel_min             =  -6.7792059180365E-05
(PID.TID 0000.0001) %MON dynstat_uvel_mean            =   2.6027955037745E-07
(PID.TID 0000.0001) %MON dynstat_uvel_sd              =   2.7051929685613E-05
(PID.TID 0000.0001) %MON dynstat_vvel_max             =   5.0472088517575E-05
(PID.TID 0000.0001) %MON dynstat_vvel_min             =  -4.4197056720347E-05
(PID.TID 0000.0001) %MON dynstat_vvel_mean            =  -3.0567476580542E-07
(PID.TID 0000.0001) %MON dynstat_vvel_sd              =   1.4457875663356E-05
(PID.TID 0000.0001) %MON dynstat_wvel_max             =   1.1892968048044E-07
(PID.TID 0000.0001) %MON dynstat_wvel_min             =  -1.1807276614276E-07
(PID.TID 0000.0001) %MON dynstat_wvel_mean            =  -1.2063862492988E-23
(PID.TID 0000.0001) %MON dynstat_wvel_sd              =   7.1715274245344E-08
(PID.TID 0000.0001) %MON dynstat_theta_max            =   2.0000000000000E+01
(PID.TID 0000.0001) %MON dynstat_theta_min            =   2.0000000000000E+01
(PID.TID 0000.0001) %MON dynstat_theta_mean           =   2.0000000000000E+01
(PID.TID 0000.0001) %MON dynstat_theta_sd             =   0.0000000000000E+00
(PID.TID 0000.0001) %MON dynstat_salt_max             =   1.0000000000000E+01
(PID.TID 0000.0001) %MON dynstat_salt_min             =   1.0000000000000E+01
(PID.TID 0000.0001) %MON dynstat_salt_mean            =   1.0000000000000E+01
(PID.TID 0000.0001) %MON dynstat_salt_sd              =   0.0000000000000E+00
(PID.TID 0000.0001) %MON advcfl_uvel_max              =   4.0675235508219E-06
(PID.TID 0000.0001) %MON advcfl_vvel_max              =   3.0283253110545E-06
(PID.TID 0000.0001) %MON advcfl_wvel_max              =   5.7086246630611E-08
(PID.TID 0000.0001) %MON advcfl_W_hf_max              =   0.0000000000000E+00
(PID.TID 0000.0001) %MON ke_max                       =   2.2978481354920E-09
(PID.TID 0000.0001) %MON ke_mean                      =   4.6252456401113E-10
(PID.TID 0000.0001) // =======================================================
(PID.TID 0000.0001) // End MONITOR dynamic field statistics
(PID.TID 0000.0001) // =======================================================
 cg2d: Sum(rhs),rhsMax =  -1.85678246389376E-08  4.99471441359076E-04
(PID.TID 0000.0001)                    cg2d_init_res =    9.59300531781547E-01
(PID.TID 0000.0001)                       cg2d_iters =   101
(PID.TID 0000.0001)                         cg2d_res =    7.67520423113656E-08
(PID.TID 0000.0001) // =======================================================
(PID.TID 0000.0001) // Begin MONITOR dynamic field statistics
(PID.TID 0000.0001) // =======================================================
(PID.TID 0000.0001) %MON time_tsnumber                =                     6
(PID.TID 0000.0001) %MON time_secondsf                =   7.2000000000000E+03
(PID.TID 0000.0001) %MON time_secondsi                =                  7200
(PID.TID 0000.0001) %MON dynstat_eta_max              =   1.0424529215788E-03
(PID.TID 0000.0001) %MON dynstat_eta_min              =  -1.0414472970050E-03
(PID.TID 0000.0001) %MON dynstat_eta_mean             =   5.7010536556511E-14
(PID.TID 0000.0001) %MON dynstat_eta_sd               =   5.5116253327997E-04
(PID.TID 0000.0001) %MON dynstat_uvel_max             =   4.2395347501990E-05
(PID.TID 0000.0001) %MON dynstat_uvel_min             =  -8.5915663990883E-05
(PID.TID 0000.0001) %MON dynstat_uvel_mean            =  -2.7028570835928E-06
(PID.TID 0000.0001) %MON dynstat_uvel_sd              =   3.2568337717207E-05
(PID.TID 0000.0001) %MON dynstat_vvel_max             =   6.0359086324997E-05
(PID.TID 0000.0001) %MON dynstat_vvel_min             =  -5.3044998067534E-05
(PID.TID 0000.0001) %MON dynstat_vvel_mean            =   5.7930398851169E-07
(PID.TID 0000.0001) %MON dynstat_vvel_sd              =   1.7245607609309E-05
(PID.TID 0000.0001) %MON dynstat_wvel_max             =   1.8393892242794E-08
(PID.TID 0000.0001) %MON dynstat_wvel_min             =  -1.7380284804895E-08
(PID.TID 0000.0001) %MON dynstat_wvel_mean            =  -8.7874573548437E-25
(PID.TID 0000.0001) %MON dynstat_wvel_sd              =   9.4276272536108E-09
(PID.TID 0000.0001) %MON dynstat_theta_max            =   2.0000000000000E+01
(PID.TID 0000.0001) %MON dynstat_theta_min            =   2.0000000000000E+01
(PID.TID 0000.0001) %MON dynstat_theta_mean           =   2.0000000000000E+01
(PID.TID 0000.0001) %MON dynstat_theta_sd             =   0.0000000000000E+00
(PID.TID 0000.0001) %MON dynstat_salt_max             =   1.0000000000000E+01
(PID.TID 0000.0001) %MON dynstat_salt_min             =   1.0000000000000E+01
(PID.TID 0000.0001) %MON dynstat_salt_mean            =   1.0000000000000E+01
(PID.TID 0000.0001) %MON dynstat_salt_sd              =   0.0000000000000E+00
(PID.TID 0000.0001) %MON advcfl_uvel_max              =   5.1549398394530E-06
(PID.TID 0000.0001) %MON advcfl_vvel_max              =   3.6215451794998E-06
(PID.TID 0000.0001) %MON advcfl_wvel_max              =   8.8290682765409E-09
(PID.TID 0000.0001) %MON advcfl_W_hf_max              =   0.0000000000000E+00
(PID.TID 0000.0001) %MON ke_max                       =   3.6894413253987E-09
(PID.TID 0000.0001) %MON ke_mean                      =   6.7130017554322E-10
(PID.TID 0000.0001) // =======================================================
(PID.TID 0000.0001) // End MONITOR dynamic field statistics
(PID.TID 0000.0001) // =======================================================
 cg2d: Sum(rhs),rhsMax =  -2.18486425895836E-08  5.04618839525017E-04
(PID.TID 0000.0001)                    cg2d_init_res =    9.71710352317695E-01
(PID.TID 0000.0001)                       cg2d_iters =    98
(PID.TID 0000.0001)                         cg2d_res =    9.87832301869137E-08
(PID.TID 0000.0001) // =======================================================
(PID.TID 0000.0001) // Begin MONITOR dynamic field statistics
(PID.TID 0000.0001) // =======================================================
(PID.TID 0000.0001) %MON time_tsnumber                =                     7
(PID.TID 0000.0001) %MON time_secondsf                =   8.4000000000000E+03
(PID.TID 0000.0001) %MON time_secondsi                =                  8400
(PID.TID 0000.0001) %MON dynstat_eta_max              =   9.5224873860029E-04
(PID.TID 0000.0001) %MON dynstat_eta_min              =  -9.5143225792482E-04
(PID.TID 0000.0001) %MON dynstat_eta_mean             =   9.1483074968184E-14
(PID.TID 0000.0001) %MON dynstat_eta_sd               =   4.8613052736108E-04
(PID.TID 0000.0001) %MON dynstat_uvel_max             =   4.8753837840744E-05
(PID.TID 0000.0001) %MON dynstat_uvel_min             =  -1.0103671361569E-04
(PID.TID 0000.0001) %MON dynstat_uvel_mean            =  -3.7158403060800E-06
(PID.TID 0000.0001) %MON dynstat_uvel_sd              =   3.8088714834883E-05
(PID.TID 0000.0001) %MON dynstat_vvel_max             =   6.9787129023862E-05
(PID.TID 0000.0001) %MON dynstat_vvel_min             =  -6.2665753297450E-05
(PID.TID 0000.0001) %MON dynstat_vvel_mean            =   9.5404537839934E-07
(PID.TID 0000.0001) %MON dynstat_vvel_sd              =   2.0101830811163E-05
(PID.TID 0000.0001) %MON dynstat_wvel_max             =   7.4181939084352E-08
(PID.TID 0000.0001) %MON dynstat_wvel_min             =  -7.3011202571564E-08
(PID.TID 0000.0001) %MON dynstat_wvel_mean            =   7.8474037773488E-24
(PID.TID 0000.0001) %MON dynstat_wvel_sd              =   4.0584925896147E-08
(PID.TID 0000.0001) %MON dynstat_theta_max            =   2.0000000000000E+01
(PID.TID 0000.0001) %MON dynstat_theta_min            =   2.0000000000000E+01
(PID.TID 0000.0001) %MON dynstat_theta_mean           =   2.0000000000000E+01
(PID.TID 0000.0001) %MON dynstat_theta_sd             =   0.0000000000000E+00
(PID.TID 0000.0001) %MON dynstat_salt_max             =   1.0000000000000E+01
(PID.TID 0000.0001) %MON dynstat_salt_min             =   1.0000000000000E+01
(PID.TID 0000.0001) %MON dynstat_salt_mean            =   1.0000000000000E+01
(PID.TID 0000.0001) %MON dynstat_salt_sd              =   0.0000000000000E+00
(PID.TID 0000.0001) %MON advcfl_uvel_max              =   6.0622028169413E-06
(PID.TID 0000.0001) %MON advcfl_vvel_max              =   4.1872277414317E-06
(PID.TID 0000.0001) %MON advcfl_wvel_max              =   3.5607330760489E-08
(PID.TID 0000.0001) %MON advcfl_W_hf_max              =   0.0000000000000E+00
(PID.TID 0000.0001) %MON ke_max                       =   5.1031514938700E-09
(PID.TID 0000.0001) %MON ke_mean                      =   9.1893207921088E-10
(PID.TID 0000.0001) // =======================================================
(PID.TID 0000.0001) // End MONITOR dynamic field statistics
(PID.TID 0000.0001) // =======================================================
 cg2d: Sum(rhs),rhsMax =  -3.46840588472119E-08  5.10084701901675E-04
(PID.TID 0000.0001)                    cg2d_init_res =    8.23062793979476E-01
(PID.TID 0000.0001)                       cg2d_iters =    98
(PID.TID 0000.0001)                         cg2d_res =    9.51563187628442E-08
(PID.TID 0000.0001) // =======================================================
(PID.TID 0000.0001) // Begin MONITOR dynamic field statistics
(PID.TID 0000.0001) // =======================================================
(PID.TID 0000.0001) %MON time_tsnumber                =                     8
(PID.TID 0000.0001) %MON time_secondsf                =   9.6000000000000E+03
(PID.TID 0000.0001) %MON time_secondsi                =                  9600
(PID.TID 0000.0001) %MON dynstat_eta_max              =   8.7603570381693E-04
(PID.TID 0000.0001) %MON dynstat_eta_min              =  -8.7497484289178E-04
(PID.TID 0000.0001) %MON dynstat_eta_mean             =   1.4107121446947E-13
(PID.TID 0000.0001) %MON dynstat_eta_sd               =   4.3186277585130E-04
(PID.TID 0000.0001) %MON dynstat_uvel_max             =   5.7542834865590E-05
(PID.TID 0000.0001) %MON dynstat_uvel_min             =  -1.1367590173580E-04
(PID.TID 0000.0001) %MON dynstat_uvel_mean            =  -3.1403070114971E-06
(PID.TID 0000.0001) %MON dynstat_uvel_sd              =   4.3564475508566E-05
(PID.TID 0000.0001) %MON dynstat_vvel_max             =   7.8777360197682E-05
(PID.TID 0000.0001) %MON dynstat_vvel_min             =  -7.2865066441776E-05
(PID.TID 0000.0001) %MON dynstat_vvel_mean            =   7.1176409385119E-07
(PID.TID 0000.0001) %MON dynstat_vvel_sd              =   2.2996942257548E-05
(PID.TID 0000.0001) %MON dynstat_wvel_max             =   1.0616116976177E-07
(PID.TID 0000.0001) %MON dynstat_wvel_min             =  -1.0530123090688E-07
(PID.TID 0000.0001) %MON dynstat_wvel_mean            =  -4.3761442576204E-24
(PID.TID 0000.0001) %MON dynstat_wvel_sd              =   5.5929985836973E-08
(PID.TID 0000.0001) %MON dynstat_theta_max            =   2.0000000000000E+01
(PID.TID 0000.0001) %MON dynstat_theta_min            =   2.0000000000000E+01
(PID.TID 0000.0001) %MON dynstat_theta_mean           =   2.0000000000000E+01
(PID.TID 0000.0001) %MON dynstat_theta_sd             =   0.0000000000000E+00
(PID.TID 0000.0001) %MON dynstat_salt_max             =   1.0000000000000E+01
(PID.TID 0000.0001) %MON dynstat_salt_min             =   1.0000000000000E+01
(PID.TID 0000.0001) %MON dynstat_salt_mean            =   1.0000000000000E+01
(PID.TID 0000.0001) %MON dynstat_salt_sd              =   0.0000000000000E+00
(PID.TID 0000.0001) %MON advcfl_uvel_max              =   6.8205541041480E-06
(PID.TID 0000.0001) %MON advcfl_vvel_max              =   4.7266416118609E-06
(PID.TID 0000.0001) %MON advcfl_wvel_max              =   5.0957361485648E-08
(PID.TID 0000.0001) %MON advcfl_W_hf_max              =   0.0000000000000E+00
(PID.TID 0000.0001) %MON ke_max                       =   6.4598112075797E-09
(PID.TID 0000.0001) %MON ke_mean                      =   1.1978921941995E-09
(PID.TID 0000.0001) // =======================================================
(PID.TID 0000.0001) // End MONITOR dynamic field statistics
(PID.TID 0000.0001) // =======================================================
 cg2d: Sum(rhs),rhsMax =  -5.27318804732779E-08  5.17364922906288E-04
(PID.TID 0000.0001)                    cg2d_init_res =    6.28460260650165E-01
(PID.TID 0000.0001)                       cg2d_iters =    99
(PID.TID 0000.0001)                         cg2d_res =    9.87831918706307E-08
(PID.TID 0000.0001) // =======================================================
(PID.TID 0000.0001) // Begin MONITOR dynamic field statistics
(PID.TID 0000.0001) // =======================================================
(PID.TID 0000.0001) %MON time_tsnumber                =                     9
(PID.TID 0000.0001) %MON time_secondsf                =   1.0800000000000E+04
(PID.TID 0000.0001) %MON time_secondsi                =                 10800
(PID.TID 0000.0001) %MON dynstat_eta_max              =   8.3267428768591E-04
(PID.TID 0000.0001) %MON dynstat_eta_min              =  -8.3123625360158E-04
(PID.TID 0000.0001) %MON dynstat_eta_mean             =   1.9814501962663E-13
(PID.TID 0000.0001) %MON dynstat_eta_sd               =   4.0280764801996E-04
(PID.TID 0000.0001) %MON dynstat_uvel_max             =   6.7537899640286E-05
(PID.TID 0000.0001) %MON dynstat_uvel_min             =  -1.2497066008628E-04
(PID.TID 0000.0001) %MON dynstat_uvel_mean            =  -1.7455272242574E-06
(PID.TID 0000.0001) %MON dynstat_uvel_sd              =   4.9005370222574E-05
(PID.TID 0000.0001) %MON dynstat_vvel_max             =   8.7502569285532E-05
(PID.TID 0000.0001) %MON dynstat_vvel_min             =  -8.3242192543846E-05
(PID.TID 0000.0001) %MON dynstat_vvel_mean            =   4.6298501227968E-08
(PID.TID 0000.0001) %MON dynstat_vvel_sd              =   2.5892806056102E-05
(PID.TID 0000.0001) %MON dynstat_wvel_max             =   9.0910949826880E-08
(PID.TID 0000.0001) %MON dynstat_wvel_min             =  -9.0247027136105E-08
(PID.TID 0000.0001) %MON dynstat_wvel_mean            =  -4.6099695155210E-24
(PID.TID 0000.0001) %MON dynstat_wvel_sd              =   4.6950847039500E-08
(PID.TID 0000.0001) %MON dynstat_theta_max            =   2.0000000000000E+01
(PID.TID 0000.0001) %MON dynstat_theta_min            =   2.0000000000000E+01
(PID.TID 0000.0001) %MON dynstat_theta_mean           =   2.0000000000000E+01
(PID.TID 0000.0001) %MON dynstat_theta_sd             =   0.0000000000000E+00
(PID.TID 0000.0001) %MON dynstat_salt_max             =   1.0000000000000E+01
(PID.TID 0000.0001) %MON dynstat_salt_min             =   1.0000000000000E+01
(PID.TID 0000.0001) %MON dynstat_salt_mean            =   1.0000000000000E+01
(PID.TID 0000.0001) %MON dynstat_salt_sd              =   0.0000000000000E+00
(PID.TID 0000.0001) %MON advcfl_uvel_max              =   7.4982396051770E-06
(PID.TID 0000.0001) %MON advcfl_vvel_max              =   5.2501541571319E-06
(PID.TID 0000.0001) %MON advcfl_wvel_max              =   4.3637255916903E-08
(PID.TID 0000.0001) %MON advcfl_W_hf_max              =   0.0000000000000E+00
(PID.TID 0000.0001) %MON ke_max                       =   7.8084570383545E-09
(PID.TID 0000.0001) %MON ke_mean                      =   1.5114469326037E-09
(PID.TID 0000.0001) // =======================================================
(PID.TID 0000.0001) // End MONITOR dynamic field statistics
(PID.TID 0000.0001) // =======================================================
 cg2d: Sum(rhs),rhsMax =  -7.26858790656149E-08  5.27187435515030E-04
(PID.TID 0000.0001)                    cg2d_init_res =    5.44615920652257E-01
(PID.TID 0000.0001)                       cg2d_iters =    99
(PID.TID 0000.0001)                         cg2d_res =    9.56392712072353E-08
(PID.TID 0000.0001) // =======================================================
(PID.TID 0000.0001) // Begin MONITOR dynamic field statistics
(PID.TID 0000.0001) // =======================================================
(PID.TID 0000.0001) %MON time_tsnumber                =                    10
(PID.TID 0000.0001) %MON time_secondsf                =   1.2000000000000E+04
(PID.TID 0000.0001) %MON time_secondsi                =                 12000
(PID.TID 0000.0001) %MON dynstat_eta_max              =   8.2307063714970E-04
(PID.TID 0000.0001) %MON dynstat_eta_min              =  -8.2121557416531E-04
(PID.TID 0000.0001) %MON dynstat_eta_mean             =   2.5976329036387E-13
(PID.TID 0000.0001) %MON dynstat_eta_sd               =   4.0008689352584E-04
(PID.TID 0000.0001) %MON dynstat_uvel_max             =   7.7557091260298E-05
(PID.TID 0000.0001) %MON dynstat_uvel_min             =  -1.3608934433106E-04
(PID.TID 0000.0001) %MON dynstat_uvel_mean            =  -2.9388852697672E-07
(PID.TID 0000.0001) %MON dynstat_uvel_sd              =   5.4418922499461E-05
(PID.TID 0000.0001) %MON dynstat_vvel_max             =   9.6224307241564E-05
(PID.TID 0000.0001) %MON dynstat_vvel_min             =  -9.3414767244986E-05
(PID.TID 0000.0001) %MON dynstat_vvel_mean            =  -7.0249295369433E-07
(PID.TID 0000.0001) %MON dynstat_vvel_sd              =   2.8768232810848E-05
(PID.TID 0000.0001) %MON dynstat_wvel_max             =   4.8514922741914E-08
(PID.TID 0000.0001) %MON dynstat_wvel_min             =  -4.7886715665775E-08
(PID.TID 0000.0001) %MON dynstat_wvel_mean            =   1.6919063376551E-25
(PID.TID 0000.0001) %MON dynstat_wvel_sd              =   2.5770061822988E-08
(PID.TID 0000.0001) %MON dynstat_theta_max            =   2.0000000000000E+01
(PID.TID 0000.0001) %MON dynstat_theta_min            =   2.0000000000000E+01
(PID.TID 0000.0001) %MON dynstat_theta_mean           =   2.0000000000000E+01
(PID.TID 0000.0001) %MON dynstat_theta_sd             =   0.0000000000000E+00
(PID.TID 0000.0001) %MON dynstat_salt_max             =   1.0000000000000E+01
(PID.TID 0000.0001) %MON dynstat_salt_min             =   1.0000000000000E+01
(PID.TID 0000.0001) %MON dynstat_salt_mean            =   1.0000000000000E+01
(PID.TID 0000.0001) %MON dynstat_salt_sd              =   0.0000000000000E+00
(PID.TID 0000.0001) %MON advcfl_uvel_max              =   8.1653606598634E-06
(PID.TID 0000.0001) %MON advcfl_vvel_max              =   5.7734584344939E-06
(PID.TID 0000.0001) %MON advcfl_wvel_max              =   2.3287162916119E-08
(PID.TID 0000.0001) %MON advcfl_W_hf_max              =   0.0000000000000E+00
(PID.TID 0000.0001) %MON ke_max                       =   9.2589124405544E-09
(PID.TID 0000.0001) %MON ke_mean                      =   1.8626897651602E-09
(PID.TID 0000.0001) // =======================================================
(PID.TID 0000.0001) // End MONITOR dynamic field statistics
(PID.TID 0000.0001) // =======================================================
(PID.TID 0000.0001)   Seconds in section "ALL                [THE_MODEL_MAIN]":
(PID.TID 0000.0001)           User time:  2.79999994
(PID.TID 0000.0001)         System time:  0.040000001
(PID.TID 0000.0001)     Wall clock time:  2.920609
(PID.TID 0000.0001)          No. starts: 1
(PID.TID 0000.0001)           No. stops: 1
(PID.TID 0000.0001)   Seconds in section "INITIALISE_FIXED   [THE_MODEL_MAIN]":
(PID.TID 0000.0001)           User time:  0.0999999996
(PID.TID 0000.0001)         System time:  0.0199999996
(PID.TID 0000.0001)     Wall clock time:  0.165700078
(PID.TID 0000.0001)          No. starts: 1
(PID.TID 0000.0001)           No. stops: 1
(PID.TID 0000.0001)   Seconds in section "THE_MAIN_LOOP      [THE_MODEL_MAIN]":
(PID.TID 0000.0001)           User time:  2.65999998
(PID.TID 0000.0001)         System time:  0.0200000014
(PID.TID 0000.0001)     Wall clock time:  2.71441007
(PID.TID 0000.0001)          No. starts: 1
(PID.TID 0000.0001)           No. stops: 1
(PID.TID 0000.0001)   Seconds in section "INITIALISE_VARIA    [THE_MAIN_LOOP]":
(PID.TID 0000.0001)           User time:  0.0199999958
(PID.TID 0000.0001)         System time:  0.
(PID.TID 0000.0001)     Wall clock time:  0.0286340714
(PID.TID 0000.0001)          No. starts: 1
(PID.TID 0000.0001)           No. stops: 1
(PID.TID 0000.0001)   Seconds in section "WRITE_STATE         [THE_MAIN_LOOP]":
(PID.TID 0000.0001)           User time:  0.
(PID.TID 0000.0001)         System time:  0.00999999978
(PID.TID 0000.0001)     Wall clock time:  0.0102369785
(PID.TID 0000.0001)          No. starts: 1
(PID.TID 0000.0001)           No. stops: 1
(PID.TID 0000.0001)   Seconds in section "MONITOR             [THE_MAIN_LOOP]":
(PID.TID 0000.0001)           User time:  0.
(PID.TID 0000.0001)         System time:  0.
(PID.TID 0000.0001)     Wall clock time:  0.00504100323
(PID.TID 0000.0001)          No. starts: 1
(PID.TID 0000.0001)           No. stops: 1
(PID.TID 0000.0001)   Seconds in section "MAIN LOOP           [THE_MAIN_LOOP]":
(PID.TID 0000.0001)           User time:  2.62999998
(PID.TID 0000.0001)         System time:  0.0100000016
(PID.TID 0000.0001)     Wall clock time:  2.670187
(PID.TID 0000.0001)          No. starts: 1
(PID.TID 0000.0001)           No. stops: 1
(PID.TID 0000.0001)   Seconds in section "FORWARD_STEP        [THE_MAIN_LOOP]":
(PID.TID 0000.0001)           User time:  2.62999998
(PID.TID 0000.0001)         System time:  0.0100000016
(PID.TID 0000.0001)     Wall clock time:  2.66957021
(PID.TID 0000.0001)          No. starts: 10
(PID.TID 0000.0001)           No. stops: 10
(PID.TID 0000.0001)   Seconds in section "EXTERNAL_FIELDS_LOAD[THE_MAIN_LOOP]":
(PID.TID 0000.0001)           User time:  0.
(PID.TID 0000.0001)         System time:  0.
(PID.TID 0000.0001)     Wall clock time:  0.000560283661
(PID.TID 0000.0001)          No. starts: 10
(PID.TID 0000.0001)           No. stops: 10
(PID.TID 0000.0001)   Seconds in section "THERMODYNAMICS      [THE_MAIN_LOOP]":
(PID.TID 0000.0001)           User time:  0.180000052
(PID.TID 0000.0001)         System time:  0.0100000016
(PID.TID 0000.0001)     Wall clock time:  0.155396104
(PID.TID 0000.0001)          No. starts: 10
(PID.TID 0000.0001)           No. stops: 10
(PID.TID 0000.0001)   Seconds in section "DYNAMICS            [THE_MAIN_LOOP]":
(PID.TID 0000.0001)           User time:  0.310000032
(PID.TID 0000.0001)         System time:  0.
(PID.TID 0000.0001)     Wall clock time:  0.325688839
(PID.TID 0000.0001)          No. starts: 10
(PID.TID 0000.0001)           No. stops: 10
(PID.TID 0000.0001)   Seconds in section "SOLVE_FOR_PRESSURE  [THE_MAIN_LOOP]":
(PID.TID 0000.0001)           User time:  2.03
(PID.TID 0000.0001)         System time:  0.
(PID.TID 0000.0001)     Wall clock time:  2.07739091
(PID.TID 0000.0001)          No. starts: 10
(PID.TID 0000.0001)           No. stops: 10
(PID.TID 0000.0001)   Seconds in section "THE_CORRECTION_STEP [THE_MAIN_LOOP]":
(PID.TID 0000.0001)           User time:  0.0399999619
(PID.TID 0000.0001)         System time:  0.
(PID.TID 0000.0001)     Wall clock time:  0.0253709555
(PID.TID 0000.0001)          No. starts: 10
(PID.TID 0000.0001)           No. stops: 10
(PID.TID 0000.0001)   Seconds in section "BLOCKING_EXCHANGES  [THE_MAIN_LOOP]":
(PID.TID 0000.0001)           User time:  0.00999999046
(PID.TID 0000.0001)         System time:  0.
(PID.TID 0000.0001)     Wall clock time:  0.00493121147
(PID.TID 0000.0001)          No. starts: 10
(PID.TID 0000.0001)           No. stops: 10
(PID.TID 0000.0001)   Seconds in section "DO_THE_MODEL_IO     [THE_MAIN_LOOP]":
(PID.TID 0000.0001)           User time:  0.00999999046
(PID.TID 0000.0001)         System time:  0.
(PID.TID 0000.0001)     Wall clock time:  0.0105439425
(PID.TID 0000.0001)          No. starts: 10
(PID.TID 0000.0001)           No. stops: 10
(PID.TID 0000.0001)   Seconds in section "WRITE_CHECKPOINT    [THE_MAIN_LOOP]":
(PID.TID 0000.0001)           User time:  0.
(PID.TID 0000.0001)         System time:  0.
(PID.TID 0000.0001)     Wall clock time:  0.000567913055
(PID.TID 0000.0001)          No. starts: 10
(PID.TID 0000.0001)           No. stops: 10
(PID.TID 0000.0001)   Seconds in section "WRITE_CHECKPOINT   [THE_MODEL_MAIN]":
(PID.TID 0000.0001)           User time:  0.0399999619
(PID.TID 0000.0001)         System time:  0.
(PID.TID 0000.0001)     Wall clock time:  0.0402159691
(PID.TID 0000.0001)          No. starts: 1
(PID.TID 0000.0001)           No. stops: 1
(PID.TID 0000.0001) // ======================================================
(PID.TID 0000.0001) // Tile <-> Tile communication statistics
(PID.TID 0000.0001) // ======================================================
(PID.TID 0000.0001) // o Tile number: 000001
(PID.TID 0000.0001) //         No. X exchanges =              0
(PID.TID 0000.0001) //            Max. X spins =          STOP NORMAL END statement executed
    0
(PID.TID 0000.0001) //            Min. X spins =     1000000000
(PID.TID 0000.0001) //          Total. X spins =              0
(PID.TID 0000.0001) //            Avg. X spins =       0.00E+00
(PID.TID 0000.0001) //         No. Y exchanges =              0
(PID.TID 0000.0001) //            Max. Y spins =              0
(PID.TID 0000.0001) //            Min. Y spins =     1000000000
(PID.TID 0000.0001) //          Total. Y spins =              0
(PID.TID 0000.0001) //            Avg. Y spins =       0.00E+00
(PID.TID 0000.0001) // o Thread number: 000001
(PID.TID 0000.0001) //            No. barriers =          14016
(PID.TID 0000.0001) //      Max. barrier spins =              1
(PID.TID 0000.0001) //      Min. barrier spins =              1
(PID.TID 0000.0001) //     Total barrier spins =          14016
(PID.TID 0000.0001) //      Avg. barrier spins =       1.00E+00
