(PID.TID 0000.0001) 
(PID.TID 0000.0001) // ======================================================
(PID.TID 0000.0001) //                      MITgcm UV
(PID.TID 0000.0001) //                      =========
(PID.TID 0000.0001) // ======================================================
(PID.TID 0000.0001) // execution environment starting up...
(PID.TID 0000.0001) 
(PID.TID 0000.0001) // MITgcmUV version:  checkpoint61n
(PID.TID 0000.0001) // Build user:        jmc
(PID.TID 0000.0001) // Build host:        faulks
(PID.TID 0000.0001) // Build date:        Sun May 17 19:04:44 EDT 2009
(PID.TID 0000.0001) 
(PID.TID 0000.0001) // =======================================================
(PID.TID 0000.0001) // Execution Environment parameter file "eedata"
(PID.TID 0000.0001) // =======================================================
(PID.TID 0000.0001) ># Example "eedata" file
(PID.TID 0000.0001) ># Lines beginning "#" are comments
(PID.TID 0000.0001) ># nTx - No. threads per process in X
(PID.TID 0000.0001) ># nTy - No. threads per process in Y
(PID.TID 0000.0001) > &EEPARMS
(PID.TID 0000.0001) > useCubedSphereExchange=.TRUE.,
(PID.TID 0000.0001) ># Activate one line below to support 2, 3 or 6 way multi-threading
(PID.TID 0000.0001) >#nTx=2,
(PID.TID 0000.0001) >#nTx=3,
(PID.TID 0000.0001) >#nTx=6,
(PID.TID 0000.0001) > &
(PID.TID 0000.0001) ># Note: Some systems use & as the
(PID.TID 0000.0001) ># namelist terminator. Other systems
(PID.TID 0000.0001) ># use a / character (as shown here).
(PID.TID 0000.0001) 
(PID.TID 0000.0001) // =======================================================
(PID.TID 0000.0001) // Computational Grid Specification ( see files "SIZE.h" )
(PID.TID 0000.0001) //                                  ( and "eedata"       )
(PID.TID 0000.0001) // =======================================================
(PID.TID 0000.0001)      nPx =    1 ; /* No. processes in X */
(PID.TID 0000.0001)      nPy =    1 ; /* No. processes in Y */
(PID.TID 0000.0001)      nSx =   12 ; /* No. tiles in X per process */
(PID.TID 0000.0001)      nSy =    1 ; /* No. tiles in Y per process */
(PID.TID 0000.0001)      sNx =   16 ; /* Tile size in X */
(PID.TID 0000.0001)      sNy =   32 ; /* Tile size in Y */
(PID.TID 0000.0001)      OLx =    2 ; /* Tile overlap distance in X */
(PID.TID 0000.0001)      OLy =    2 ; /* Tile overlap distance in Y */
(PID.TID 0000.0001)      nTx =    1 ; /* No. threads in X per process */
(PID.TID 0000.0001)      nTy =    1 ; /* No. threads in Y per process */
(PID.TID 0000.0001)       Nr =    5 ; /* No. levels in the vertical   */
(PID.TID 0000.0001)       Nx =  192 ; /* Total domain size in X ( = nPx*nSx*sNx ) */
(PID.TID 0000.0001)       Ny =   32 ; /* Total domain size in Y ( = nPy*nSy*sNy ) */
(PID.TID 0000.0001)   nTiles =   12 ; /* Total no. tiles per process ( = nSx*nSy ) */
(PID.TID 0000.0001)   nProcs =    1 ; /* Total no. processes ( = nPx*nPy ) */
(PID.TID 0000.0001) nThreads =    1 ; /* Total no. threads per process ( = nTx*nTy ) */
(PID.TID 0000.0001) usingMPI =    F ; /* Flag used to control whether MPI is in use */
(PID.TID 0000.0001)                   /*  note: To execute a program with MPI calls */
(PID.TID 0000.0001)                   /*  it must be launched appropriately e.g     */
(PID.TID 0000.0001)                   /*  "mpirun -np 64 ......"                    */
(PID.TID 0000.0001) useCoupler=    F ;/* Flag used to control communications with   */
(PID.TID 0000.0001)                   /*  other model components, through a coupler */
(PID.TID 0000.0001) printMapIncludesZeros=    F ; /* print zeros in Std.Output maps */
(PID.TID 0000.0001) maxLengthPrt1D=   65 /* maxLength of 1D array printed to StdOut */
(PID.TID 0000.0001) 
(PID.TID 0000.0001) // ======================================================
(PID.TID 0000.0001) // Mapping of tiles to threads
(PID.TID 0000.0001) // ======================================================
(PID.TID 0000.0001) // -o- Thread   1, tiles (   1:  12,   1:   1)
(PID.TID 0000.0001) 
(PID.TID 0000.0001) W2_READPARMS: file data.exch2 not found
(PID.TID 0000.0001) => use W2_EXCH2 default: regular 6-facets Cube
(PID.TID 0000.0001) ===== Start setting W2 TOPOLOGY:
(PID.TID 0000.0001)  write to log-file: w2_tile_topology.0000.log
(PID.TID 0000.0001) =====       setting W2 TOPOLOGY: Done
(PID.TID 0000.0001) 
(PID.TID 0000.0001) // =======================================================
(PID.TID 0000.0001) // Model parameter file "data"
(PID.TID 0000.0001) // =======================================================
(PID.TID 0000.0001) ># ====================
(PID.TID 0000.0001) ># | Model parameters |
(PID.TID 0000.0001) ># ====================
(PID.TID 0000.0001) >#
(PID.TID 0000.0001) ># Continuous equation parameters
(PID.TID 0000.0001) > &PARM01
(PID.TID 0000.0001) > tRef=289.6, 298.1, 314.5, 335.8, 437.4,
(PID.TID 0000.0001) > sRef=5*0.0,
(PID.TID 0000.0001) > no_slip_sides=.FALSE.,
(PID.TID 0000.0001) > no_slip_bottom=.FALSE.,
(PID.TID 0000.0001) > buoyancyRelation='ATMOSPHERIC',
(PID.TID 0000.0001) > eosType='IDEALGAS',
(PID.TID 0000.0001) > implicitFreeSurface=.TRUE.,
(PID.TID 0000.0001) > exactConserv=.TRUE.,
(PID.TID 0000.0001) >#nonlinFreeSurf=4,
(PID.TID 0000.0001) >#select_rStar=2,
(PID.TID 0000.0001) > hFacInf=0.2,
(PID.TID 0000.0001) > hFacSup=2.0,
(PID.TID 0000.0001) > uniformLin_PhiSurf=.FALSE.,
(PID.TID 0000.0001) > saltStepping=.FALSE.,
(PID.TID 0000.0001) > momViscosity=.FALSE.,
(PID.TID 0000.0001) > vectorInvariantMomentum=.TRUE.,
(PID.TID 0000.0001) > useAbsVorticity=.TRUE.,
(PID.TID 0000.0001) > selectVortScheme=2,
(PID.TID 0000.0001) > selectKEscheme=3,
(PID.TID 0000.0001) >#staggerTimeStep=.TRUE.,
(PID.TID 0000.0001) > implicitIntGravWave=.TRUE.,
(PID.TID 0000.0001) > readBinaryPrec=64,
(PID.TID 0000.0001) > writeBinaryPrec=64,
(PID.TID 0000.0001) > useSingleCpuIO=.TRUE.,
(PID.TID 0000.0001) > &
(PID.TID 0000.0001) >
(PID.TID 0000.0001) ># Elliptic solver parameters
(PID.TID 0000.0001) > &PARM02
(PID.TID 0000.0001) > cg2dMaxIters=200,
(PID.TID 0000.0001) >#cg2dTargetResidual=1.E-12,
(PID.TID 0000.0001) > cg2dTargetResWunit=1.E-17,
(PID.TID 0000.0001) > cg3dMaxIters=40,
(PID.TID 0000.0001) > cg3dTargetResidual=1.E-4,
(PID.TID 0000.0001) > &
(PID.TID 0000.0001) >
(PID.TID 0000.0001) ># Time stepping parameters
(PID.TID 0000.0001) > &PARM03
(PID.TID 0000.0001) >#- stable up to 1350.s
(PID.TID 0000.0001) > deltaT=1200.,
(PID.TID 0000.0001) > nIter0=25920,
(PID.TID 0000.0001) > nTimeSteps=10,
(PID.TID 0000.0001) >#forcing_In_AB=.FALSE.,
(PID.TID 0000.0001) >#alph_AB=0.6,
(PID.TID 0000.0001) >#beta_AB=0.,
(PID.TID 0000.0001) > alph_AB=0.5,
(PID.TID 0000.0001) > beta_AB=0.281105,
(PID.TID 0000.0001) > doAB_onGtGs=.FALSE.,
(PID.TID 0000.0001) > pickupStrictlyMatch=.FALSE.,
(PID.TID 0000.0001) >#startFromPickupAB2=.TRUE.,
(PID.TID 0000.0001) > pChkptFreq=31104000.,
(PID.TID 0000.0001) > chkptFreq =0.,
(PID.TID 0000.0001) > dumpFreq  =31104000.,
(PID.TID 0000.0001) > monitorFreq=432000.,
(PID.TID 0000.0001) > taveFreq=0.,
(PID.TID 0000.0001) > monitorFreq=1.,
(PID.TID 0000.0001) > &
(PID.TID 0000.0001) >
(PID.TID 0000.0001) ># Gridding parameters
(PID.TID 0000.0001) > &PARM04
(PID.TID 0000.0001) > usingCurvilinearGrid=.TRUE.,
(PID.TID 0000.0001) > horizGridFile='dxC1_dXYa',
(PID.TID 0000.0001) > delR=100.E2, 250.E2, 300.E2, 200.E2, 150.E2,
(PID.TID 0000.0001) > Ro_SeaLevel=1.E5,
(PID.TID 0000.0001) > &
(PID.TID 0000.0001) >
(PID.TID 0000.0001) ># Input datasets
(PID.TID 0000.0001) > &PARM05
(PID.TID 0000.0001) > &
(PID.TID 0000.0001) 
(PID.TID 0000.0001) S/R INI_PARMS ; starts to read PARM01
(PID.TID 0000.0001) S/R INI_PARMS ; read PARM01 : OK
(PID.TID 0000.0001) S/R INI_PARMS ; starts to read PARM02
(PID.TID 0000.0001) S/R INI_PARMS ; read PARM02 : OK
(PID.TID 0000.0001) S/R INI_PARMS ; starts to read PARM03
(PID.TID 0000.0001) S/R INI_PARMS ; read PARM03 : OK
(PID.TID 0000.0001) S/R INI_PARMS ; starts to read PARM04
(PID.TID 0000.0001) S/R INI_PARMS ; read PARM04 : OK
(PID.TID 0000.0001) S/R INI_PARMS ; starts to read PARM05
(PID.TID 0000.0001) S/R INI_PARMS ; read PARM05 : OK
(PID.TID 0000.0001)  PACKAGES_BOOT: opening data.pkg
(PID.TID 0000.0001)  OPEN_COPY_DATA_FILE: opening file data.pkg
(PID.TID 0000.0001) // =======================================================
(PID.TID 0000.0001) // Parameter file "data.pkg"
(PID.TID 0000.0001) // =======================================================
(PID.TID 0000.0001) ># Packages
(PID.TID 0000.0001) > &PACKAGES
(PID.TID 0000.0001) > useSHAP_FILT=.TRUE.,
(PID.TID 0000.0001) > usediagnostics=.TRUE.,
(PID.TID 0000.0001) >#useMNC=.TRUE.,
(PID.TID 0000.0001) > &
(PID.TID 0000.0001) 
(PID.TID 0000.0001)  PACKAGES_BOOT: finished reading data.pkg
(PID.TID 0000.0001)  SHAP_FILT_READPARMS: opening data.shap
(PID.TID 0000.0001)  OPEN_COPY_DATA_FILE: opening file data.shap
(PID.TID 0000.0001) // =======================================================
(PID.TID 0000.0001) // Parameter file "data.shap"
(PID.TID 0000.0001) // =======================================================
(PID.TID 0000.0001) ># Shapiro Filter parameters
(PID.TID 0000.0001) > &SHAP_PARM01
(PID.TID 0000.0001) > shap_filt_uvStar=.FALSE.,
(PID.TID 0000.0001) > shap_filt_TrStagg=.TRUE.,
(PID.TID 0000.0001) > Shap_funct=2,
(PID.TID 0000.0001) > nShapT=0,
(PID.TID 0000.0001) > nShapUV=4,
(PID.TID 0000.0001) > nShapTrPhys=0,
(PID.TID 0000.0001) > nShapUVPhys=4,
(PID.TID 0000.0001) >#Shap_TrLength=140000.,
(PID.TID 0000.0001) >#Shap_uvLength=110000.,
(PID.TID 0000.0001) > Shap_uvLength=-1.,
(PID.TID 0000.0001) >#Shap_Trtau=5400.,
(PID.TID 0000.0001) > Shap_uvtau=1800.,
(PID.TID 0000.0001) >#Shap_diagFreq=2592000.,
(PID.TID 0000.0001) > &
(PID.TID 0000.0001) 
(PID.TID 0000.0001)  SHAP_FILT_READPARMS: finished reading data.shap
(PID.TID 0000.0001) Shap_funct =   /* select Shapiro filter function */
(PID.TID 0000.0001)                       2
(PID.TID 0000.0001)     ;
(PID.TID 0000.0001) nShapT =   /* power of Shapiro filter for Temperat */
(PID.TID 0000.0001)                       0
(PID.TID 0000.0001)     ;
(PID.TID 0000.0001) nShapS =   /* power of Shapiro filter for Salinity */
(PID.TID 0000.0001)                       0
(PID.TID 0000.0001)     ;
(PID.TID 0000.0001) nShapUV =   /* power of Shapiro filter for momentum */
(PID.TID 0000.0001)                       4
(PID.TID 0000.0001)     ;
(PID.TID 0000.0001) shap_filt_uvStar = /* apply filter before Press. Solver */
(PID.TID 0000.0001)                   F
(PID.TID 0000.0001)     ;
(PID.TID 0000.0001) shap_filt_TrStagg = /* filter T,S before calc PhiHyd (staggerTimeStep) */
(PID.TID 0000.0001)                   T
(PID.TID 0000.0001)     ;
(PID.TID 0000.0001) Shap_alwaysExchUV = /* always exch(U,V)    nShapUV times*/
(PID.TID 0000.0001)                   F
(PID.TID 0000.0001)     ;
(PID.TID 0000.0001) Shap_alwaysExchTr = /* always exch(Tracer) nShapTr times*/
(PID.TID 0000.0001)                   F
(PID.TID 0000.0001)     ;
(PID.TID 0000.0001) nShapTrPhys =   /* power of physical-space filter (Tracer) */
(PID.TID 0000.0001)                       0
(PID.TID 0000.0001)     ;
(PID.TID 0000.0001) nShapUVPhys =   /* power of physical-space filter (Momentum) */
(PID.TID 0000.0001)                       4
(PID.TID 0000.0001)     ;
(PID.TID 0000.0001) Shap_Trtau =   /* time scale of Shapiro filter (Tracer) */
(PID.TID 0000.0001)                 1.200000000000000E+03
(PID.TID 0000.0001)     ;
(PID.TID 0000.0001) Shap_TrLength =   /* Length scale of Shapiro filter (Tracer) */
(PID.TID 0000.0001)                 0.000000000000000E+00
(PID.TID 0000.0001)     ;
(PID.TID 0000.0001) Shap_uvtau =   /* time scale of Shapiro filter (Momentum) */
(PID.TID 0000.0001)                 1.800000000000000E+03
(PID.TID 0000.0001)     ;
(PID.TID 0000.0001) Shap_uvLength =   /* Length scale of Shapiro filter (Momentum) */
(PID.TID 0000.0001)                -1.000000000000000E+00
(PID.TID 0000.0001)     ;
(PID.TID 0000.0001) Shap_noSlip =  /* No-slip parameter (0=Free-slip ; 1=No-slip)*/
(PID.TID 0000.0001)                 0.000000000000000E+00
(PID.TID 0000.0001)     ;
(PID.TID 0000.0001) Shap_diagFreq =   /* Frequency^-1 for diagnostic output (s)*/
(PID.TID 0000.0001)                 0.000000000000000E+00
(PID.TID 0000.0001)     ;
(PID.TID 0000.0001)  DIAGNOSTICS_READPARMS: opening data.diagnostics
(PID.TID 0000.0001)  OPEN_COPY_DATA_FILE: opening file data.diagnostics
(PID.TID 0000.0001) // =======================================================
(PID.TID 0000.0001) // Parameter file "data.diagnostics"
(PID.TID 0000.0001) // =======================================================
(PID.TID 0000.0001) ># Diagnostic Package Choices
(PID.TID 0000.0001) >#-----------------
(PID.TID 0000.0001) ># for each output-stream:
(PID.TID 0000.0001) >#  filename(n) : prefix of the output file name (only 8.c long) for outp.stream n
(PID.TID 0000.0001) >#  frequency(n):< 0 : write snap-shot output every |frequency| seconds
(PID.TID 0000.0001) >#               > 0 : write time-average output every frequency seconds
(PID.TID 0000.0001) >#  timePhase(n)     : write at time = timePhase + multiple of |frequency|
(PID.TID 0000.0001) >#  levels(:,n) : list of levels to write to file (Notes: declared as REAL)
(PID.TID 0000.0001) >#                 when this entry is missing, select all common levels of this list
(PID.TID 0000.0001) >#  fields(:,n) : list of diagnostics fields (8.c) (see "available_diagnostics" file
(PID.TID 0000.0001) >#                 for the list of all available diag. in this particular config)
(PID.TID 0000.0001) >#-----------------
(PID.TID 0000.0001) > &diagnostics_list
(PID.TID 0000.0001) >  diag_mnc     = .FALSE.,
(PID.TID 0000.0001) >  frequency(1) = 31104000.,
(PID.TID 0000.0001) >   filename(1) = 'surfDiag',
(PID.TID 0000.0001) >   levels(1,1) = 1.,
(PID.TID 0000.0001) >   fields(1,1) = 'ETAN    ','ETANSQ  ','DETADT2 ',
(PID.TID 0000.0001) >  frequency(2) = 31104000.,
(PID.TID 0000.0001) >   filename(2) = 'dynDiag',
(PID.TID 0000.0001) >   fields(1,2) = 'UVEL    ','VVEL    ','WVEL    ','THETA   ',
(PID.TID 0000.0001) >                 'UVELSQ  ','VVELSQ  ','WVELSQ  ','THETASQ ',
(PID.TID 0000.0001) >#                'UVELMASS','VVELMASS','UV_VEL_C',
(PID.TID 0000.0001) >                 'UTHMASS ','VTHMASS ','WVELTH  ','PHIHYD  ',
(PID.TID 0000.0001) >  frequency(3) = 31104000.,
(PID.TID 0000.0001) >#  filename(3) = 'shapDiag',
(PID.TID 0000.0001) >   fields(1,3) = 'SHAP_dU ','SHAP_dV ',
(PID.TID 0000.0001) >#                'SHAP_dT ',
(PID.TID 0000.0001) > &
(PID.TID 0000.0001) >
(PID.TID 0000.0001) ># Parameter for Diagnostics of per level statistics:
(PID.TID 0000.0001) >#-----------------
(PID.TID 0000.0001) ># for each output-stream:
(PID.TID 0000.0001) >#  stat_fname(n) : prefix of the output file name (only 8.c long) for outp.stream n
(PID.TID 0000.0001) >#  stat_freq(n):< 0 : write snap-shot output every |stat_freq| seconds
(PID.TID 0000.0001) >#               > 0 : write time-average output every stat_freq seconds
(PID.TID 0000.0001) >#  stat_phase(n)    : write at time = stat_phase + multiple of |stat_freq|
(PID.TID 0000.0001) >#  stat_region(:,n) : list of "regions" (default: 1 region only=global)
(PID.TID 0000.0001) >#  stat_fields(:,n) : list of diagnostics fields (8.c) (see "available_diagnostics.log"
(PID.TID 0000.0001) >#                 file for the list of all available diag. in this particular config)
(PID.TID 0000.0001) >#-----------------
(PID.TID 0000.0001) > &DIAG_STATIS_PARMS
(PID.TID 0000.0001) >#- an example just to check the agreement with MONITOR output:
(PID.TID 0000.0001) >  diagSt_mnc     = .TRUE.,
(PID.TID 0000.0001) > stat_fields(1,1)= 'ETAN    ','UVEL    ','VVEL    ','WVEL    ',
(PID.TID 0000.0001) >                   'THETA   ','PHIHYD  ','DETADT2 ',
(PID.TID 0000.0001) >    stat_fname(1)= 'dynStDiag',
(PID.TID 0000.0001) >#    stat_freq(1)= 864000.,
(PID.TID 0000.0001) >     stat_freq(1)= -3600.,
(PID.TID 0000.0001) >    stat_phase(1)= 0.,
(PID.TID 0000.0001) > &
(PID.TID 0000.0001) >
(PID.TID 0000.0001) 
(PID.TID 0000.0001) S/R DIAGNOSTICS_READPARMS, read namelist "diagnostics_list": start
(PID.TID 0000.0001) S/R DIAGNOSTICS_READPARMS, read namelist "diagnostics_list": OK
(PID.TID 0000.0001) S/R DIAGNOSTICS_READPARMS, read namelist "DIAG_STATIS_PARMS": start
(PID.TID 0000.0001) S/R DIAGNOSTICS_READPARMS, read namelist "DIAG_STATIS_PARMS": OK
(PID.TID 0000.0001) -----------------------------------------------------
(PID.TID 0000.0001)  DIAGNOSTICS_READPARMS: active diagnostics summary:
(PID.TID 0000.0001) -----------------------------------------------------
(PID.TID 0000.0001) Creating Output Stream: surfDiag
(PID.TID 0000.0001) Output Frequency:   31104000.000000 ; Phase:           0.000000
(PID.TID 0000.0001)  Averaging Freq.:   31104000.000000 , Phase:           0.000000 , Cycle:   1
(PID.TID 0000.0001)  missing value:  1.234567000000E+05 ; for integers:   123456789
(PID.TID 0000.0001)  Levels:       1.
(PID.TID 0000.0001)  Fields:    ETAN     ETANSQ   DETADT2
(PID.TID 0000.0001) Creating Output Stream: dynDiag
(PID.TID 0000.0001) Output Frequency:   31104000.000000 ; Phase:           0.000000
(PID.TID 0000.0001)  Averaging Freq.:   31104000.000000 , Phase:           0.000000 , Cycle:   1
(PID.TID 0000.0001)  missing value:  1.234567000000E+05 ; for integers:   123456789
(PID.TID 0000.0001)  Levels:    will be set later
(PID.TID 0000.0001)  Fields:    UVEL     VVEL     WVEL     THETA    UVELSQ   VVELSQ   WVELSQ   THETASQ  UTHMASS  VTHMASS
(PID.TID 0000.0001)  Fields:    WVELTH   PHIHYD
(PID.TID 0000.0001) -----------------------------------------------------
(PID.TID 0000.0001)  DIAGNOSTICS_READPARMS: statistics diags. summary:
(PID.TID 0000.0001) Creating Stats. Output Stream: dynStDiag
(PID.TID 0000.0001) Output Frequency:      -3600.000000 ; Phase:           0.000000
(PID.TID 0000.0001)  Regions:   0
(PID.TID 0000.0001)  Fields:    ETAN     UVEL     VVEL     WVEL     THETA    PHIHYD   DETADT2
(PID.TID 0000.0001) -----------------------------------------------------
(PID.TID 0000.0001) 
(PID.TID 0000.0001) SET_PARMS: done
(PID.TID 0000.0001) Enter INI_VERTICAL_GRID: setInterFDr=    T ; setCenterDr=    F
(PID.TID 0000.0001) tile:   1 ; Read from file dxC1_dXYa.face001.bin
(PID.TID 0000.0001)   => xC yC dxF dyF rA xG yG dxV dyU rAz dxC dyC rAw rAs dxG dyG AngleCS AngleSN
(PID.TID 0000.0001) tile:   2 ; Read from file dxC1_dXYa.face001.bin
(PID.TID 0000.0001)   => xC yC dxF dyF rA xG yG dxV dyU rAz dxC dyC rAw rAs dxG dyG AngleCS AngleSN
(PID.TID 0000.0001) tile:   3 ; Read from file dxC1_dXYa.face002.bin
(PID.TID 0000.0001)   => xC yC dxF dyF rA xG yG dxV dyU rAz dxC dyC rAw rAs dxG dyG AngleCS AngleSN
(PID.TID 0000.0001) tile:   4 ; Read from file dxC1_dXYa.face002.bin
(PID.TID 0000.0001)   => xC yC dxF dyF rA xG yG dxV dyU rAz dxC dyC rAw rAs dxG dyG AngleCS AngleSN
(PID.TID 0000.0001) tile:   5 ; Read from file dxC1_dXYa.face003.bin
(PID.TID 0000.0001)   => xC yC dxF dyF rA xG yG dxV dyU rAz dxC dyC rAw rAs dxG dyG AngleCS AngleSN
(PID.TID 0000.0001) tile:   6 ; Read from file dxC1_dXYa.face003.bin
(PID.TID 0000.0001)   => xC yC dxF dyF rA xG yG dxV dyU rAz dxC dyC rAw rAs dxG dyG AngleCS AngleSN
(PID.TID 0000.0001) tile:   7 ; Read from file dxC1_dXYa.face004.bin
(PID.TID 0000.0001)   => xC yC dxF dyF rA xG yG dxV dyU rAz dxC dyC rAw rAs dxG dyG AngleCS AngleSN
(PID.TID 0000.0001) tile:   8 ; Read from file dxC1_dXYa.face004.bin
(PID.TID 0000.0001)   => xC yC dxF dyF rA xG yG dxV dyU rAz dxC dyC rAw rAs dxG dyG AngleCS AngleSN
(PID.TID 0000.0001) tile:   9 ; Read from file dxC1_dXYa.face005.bin
(PID.TID 0000.0001)   => xC yC dxF dyF rA xG yG dxV dyU rAz dxC dyC rAw rAs dxG dyG AngleCS AngleSN
(PID.TID 0000.0001) tile:  10 ; Read from file dxC1_dXYa.face005.bin
(PID.TID 0000.0001)   => xC yC dxF dyF rA xG yG dxV dyU rAz dxC dyC rAw rAs dxG dyG AngleCS AngleSN
(PID.TID 0000.0001) tile:  11 ; Read from file dxC1_dXYa.face006.bin
(PID.TID 0000.0001)   => xC yC dxF dyF rA xG yG dxV dyU rAz dxC dyC rAw rAs dxG dyG AngleCS AngleSN
(PID.TID 0000.0001) tile:  12 ; Read from file dxC1_dXYa.face006.bin
(PID.TID 0000.0001)   => xC yC dxF dyF rA xG yG dxV dyU rAz dxC dyC rAw rAs dxG dyG AngleCS AngleSN
(PID.TID 0000.0001) %MON XC_max                       =   1.7854351589505E+02
(PID.TID 0000.0001) %MON XC_min                       =  -1.7854351589505E+02
(PID.TID 0000.0001) %MON XC_mean                      =  -3.5527136788005E-15
(PID.TID 0000.0001) %MON XC_sd                        =   1.0355545336287E+02
(PID.TID 0000.0001) %MON XG_max                       =   1.8000000000000E+02
(PID.TID 0000.0001) %MON XG_min                       =  -1.7708797161002E+02
(PID.TID 0000.0001) %MON XG_mean                      =   1.8603515625000E+00
(PID.TID 0000.0001) %MON XG_sd                        =   1.0357130300504E+02
(PID.TID 0000.0001) %MON DXC_max                      =   3.2375185836900E+05
(PID.TID 0000.0001) %MON DXC_min                      =   1.1353730006923E+05
(PID.TID 0000.0001) %MON DXC_mean                     =   2.8606102525036E+05
(PID.TID 0000.0001) %MON DXC_sd                       =   3.4020997630307E+04
(PID.TID 0000.0001) %MON DXF_max                      =   3.2369947500827E+05
(PID.TID 0000.0001) %MON DXF_min                      =   1.2020820513318E+05
(PID.TID 0000.0001) %MON DXF_mean                     =   2.8605437324820E+05
(PID.TID 0000.0001) %MON DXF_sd                       =   3.4050524252539E+04
(PID.TID 0000.0001) %MON DXG_max                      =   3.2375195872773E+05
(PID.TID 0000.0001) %MON DXG_min                      =   1.0098378008791E+05
(PID.TID 0000.0001) %MON DXG_mean                     =   2.8603818508931E+05
(PID.TID 0000.0001) %MON DXG_sd                       =   3.4140406908005E+04
(PID.TID 0000.0001) %MON DXV_max                      =   3.2380418162750E+05
(PID.TID 0000.0001) %MON DXV_min                      =   8.0152299824136E+04
(PID.TID 0000.0001) %MON DXV_mean                     =   2.8603970633619E+05
(PID.TID 0000.0001) %MON DXV_sd                       =   3.4145142117723E+04
(PID.TID 0000.0001) %MON YC_max                       =   8.7940663871962E+01
(PID.TID 0000.0001) %MON YC_min                       =  -8.7940663871962E+01
(PID.TID 0000.0001) %MON YC_mean                      =   1.1842378929335E-15
(PID.TID 0000.0001) %MON YC_sd                        =   3.8676242969072E+01
(PID.TID 0000.0001) %MON YG_max                       =   9.0000000000000E+01
(PID.TID 0000.0001) %MON YG_min                       =  -9.0000000000000E+01
(PID.TID 0000.0001) %MON YG_mean                      =  -5.9211894646675E-16
(PID.TID 0000.0001) %MON YG_sd                        =   3.8676895860710E+01
(PID.TID 0000.0001) %MON DYC_max                      =   3.2375185836900E+05
(PID.TID 0000.0001) %MON DYC_min                      =   1.1353730006923E+05
(PID.TID 0000.0001) %MON DYC_mean                     =   2.8606102525036E+05
(PID.TID 0000.0001) %MON DYC_sd                       =   3.4020997630307E+04
(PID.TID 0000.0001) %MON DYF_max                      =   3.2369947500827E+05
(PID.TID 0000.0001) %MON DYF_min                      =   1.2020820513318E+05
(PID.TID 0000.0001) %MON DYF_mean                     =   2.8605437324820E+05
(PID.TID 0000.0001) %MON DYF_sd                       =   3.4050524252539E+04
(PID.TID 0000.0001) %MON DYG_max                      =   3.2375195872773E+05
(PID.TID 0000.0001) %MON DYG_min                      =   1.0098378008791E+05
(PID.TID 0000.0001) %MON DYG_mean                     =   2.8603818508931E+05
(PID.TID 0000.0001) %MON DYG_sd                       =   3.4140406908005E+04
(PID.TID 0000.0001) %MON DYU_max                      =   3.2380418162750E+05
(PID.TID 0000.0001) %MON DYU_min                      =   8.0152299824136E+04
(PID.TID 0000.0001) %MON DYU_mean                     =   2.8603970633619E+05
(PID.TID 0000.0001) %MON DYU_sd                       =   3.4145142117723E+04
(PID.TID 0000.0001) %MON RA_max                       =   1.0474757731659E+11
(PID.TID 0000.0001) %MON RA_min                       =   1.5497867056722E+10
(PID.TID 0000.0001) %MON RA_mean                      =   8.2985711332657E+10
(PID.TID 0000.0001) %MON RA_sd                        =   1.7448591913787E+10
(PID.TID 0000.0001) %MON RAW_max                      =   1.0481529828871E+11
(PID.TID 0000.0001) %MON RAW_min                      =   1.1465425741966E+10
(PID.TID 0000.0001) %MON RAW_mean                     =   8.2985711332657E+10
(PID.TID 0000.0001) %MON RAW_sd                       =   1.7503889570794E+10
(PID.TID 0000.0001) %MON RAS_max                      =   1.0481529828871E+11
(PID.TID 0000.0001) %MON RAS_min                      =   1.1465425741966E+10
(PID.TID 0000.0001) %MON RAS_mean                     =   8.2985711332657E+10
(PID.TID 0000.0001) %MON RAS_sd                       =   1.7503889570794E+10
(PID.TID 0000.0001) %MON RAZ_max                      =   1.0484349334619E+11
(PID.TID 0000.0001) %MON RAZ_min                      =   8.8317900612505E+09
(PID.TID 0000.0001) %MON RAZ_mean                     =   8.2992246709235E+10
(PID.TID 0000.0001) %MON RAZ_sd                       =   1.7482297311044E+10
(PID.TID 0000.0001) %MON AngleCS_max                  =   9.9999994756719E-01
(PID.TID 0000.0001) %MON AngleCS_min                  =  -9.9968286884824E-01
(PID.TID 0000.0001) %MON AngleCS_mean                 =   3.3078850405987E-01
(PID.TID 0000.0001) %MON AngleCS_sd                   =   6.2496317138039E-01
(PID.TID 0000.0001) %MON AngleSN_max                  =   9.9968286884824E-01
(PID.TID 0000.0001) %MON AngleSN_min                  =  -9.9999994756719E-01
(PID.TID 0000.0001) %MON AngleSN_mean                 =  -3.3078850405987E-01
(PID.TID 0000.0001) %MON AngleSN_sd                   =   6.2496317138039E-01
(PID.TID 0000.0001) 
(PID.TID 0000.0001) SET_REF_STATE: PhiRef/g [m] at level Center (integer)
(PID.TID 0000.0001)                      and at level Interface (half-int.) :
(PID.TID 0000.0001)  K=  0.5  ;  r=       100000.0  ;  phiRef/g=        0.000
(PID.TID 0000.0001)  K=  1.0  ;  r=        95000.0  ;  phiRef/g=      431.199
(PID.TID 0000.0001)  K=  1.5  ;  r=        90000.0  ;  phiRef/g=     1256.487
(PID.TID 0000.0001)  K=  2.0  ;  r=        77500.0  ;  phiRef/g=     2105.998
(PID.TID 0000.0001)  K=  2.5  ;  r=        65000.0  ;  phiRef/g=     3775.246
(PID.TID 0000.0001)  K=  3.0  ;  r=        50000.0  ;  phiRef/g=     5536.327
(PID.TID 0000.0001)  K=  3.5  ;  r=        35000.0  ;  phiRef/g=     7908.298
(PID.TID 0000.0001)  K=  4.0  ;  r=        25000.0  ;  phiRef/g=    10440.915
(PID.TID 0000.0001)  K=  4.5  ;  r=        15000.0  ;  phiRef/g=    13806.721
(PID.TID 0000.0001)  K=  5.0  ;  r=         7500.0  ;  phiRef/g=    18190.889
(PID.TID 0000.0001)  K=  5.5  ;  r=            0.0  ;  phiRef/g=    39547.504
(PID.TID 0000.0001) // =======================================================
(PID.TID 0000.0001) // Field Model R_low (ini_masks_etc) at iteration          1
(PID.TID 0000.0001) // CMIN =          1.000000000000000E+32
(PID.TID 0000.0001) // CMAX =         -1.000000000000000E+32
(PID.TID 0000.0001) // CINT =          0.000000000000000E+00
(PID.TID 0000.0001) // SYMBOLS (CMIN->CMAX): -abcdefghijklmnopqrstuvwxyz+
(PID.TID 0000.0001) //                  0.0: .
(PID.TID 0000.0001) // RANGE I (Lo:Hi:Step):(  -1: 194:   1)
(PID.TID 0000.0001) // RANGE J (Lo:Hi:Step):(  34:  -1:  -1)
(PID.TID 0000.0001) // RANGE K (Lo:Hi:Step):(   1:   1:   1)
(PID.TID 0000.0001) // =======================================================
(PID.TID 0000.0001) // =======================================================
(PID.TID 0000.0001) // END OF FIELD                                          =
(PID.TID 0000.0001) // =======================================================
(PID.TID 0000.0001) 
(PID.TID 0000.0001) // =======================================================
(PID.TID 0000.0001) // Field Model Ro_surf (ini_masks_etc) at iteration          1
(PID.TID 0000.0001) // CMIN =          1.000000000000000E+05
(PID.TID 0000.0001) // CMAX =          1.000000000000000E+05
(PID.TID 0000.0001) // CINT =          0.000000000000000E+00
(PID.TID 0000.0001) // SYMBOLS (CMIN->CMAX): -abcdefghijklmnopqrstuvwxyz+
(PID.TID 0000.0001) //                  0.0: .
(PID.TID 0000.0001) // RANGE I (Lo:Hi:Step):(  -1: 194:   1)
(PID.TID 0000.0001) // RANGE J (Lo:Hi:Step):(  34:  -1:  -1)
(PID.TID 0000.0001) // RANGE K (Lo:Hi:Step):(   1:   1:   1)
(PID.TID 0000.0001) // =======================================================
(PID.TID 0000.0001) // =======================================================
(PID.TID 0000.0001) // END OF FIELD                                          =
(PID.TID 0000.0001) // =======================================================
(PID.TID 0000.0001) 
(PID.TID 0000.0001) // =======================================================
(PID.TID 0000.0001) // Field hFacC at iteration          1
(PID.TID 0000.0001) // CMIN =          1.000000000000000E+00
(PID.TID 0000.0001) // CMAX =          1.000000000000000E+00
(PID.TID 0000.0001) // CINT =          0.000000000000000E+00
(PID.TID 0000.0001) // SYMBOLS (CMIN->CMAX): -abcdefghijklmnopqrstuvwxyz+
(PID.TID 0000.0001) //                  0.0: .
(PID.TID 0000.0001) // RANGE I (Lo:Hi:Step):(  -1: 194:   1)
(PID.TID 0000.0001) // RANGE J (Lo:Hi:Step):(  34:  -1:  -1)
(PID.TID 0000.0001) // RANGE K (Lo:Hi:Step):(   1:   1:   1)
(PID.TID 0000.0001) // =======================================================
(PID.TID 0000.0001) // =======================================================
(PID.TID 0000.0001) // END OF FIELD                                          =
(PID.TID 0000.0001) // =======================================================
(PID.TID 0000.0001) 
(PID.TID 0000.0001) // =======================================================
(PID.TID 0000.0001) // Field hFacW at iteration          1
(PID.TID 0000.0001) // CMIN =          1.000000000000000E+00
(PID.TID 0000.0001) // CMAX =          1.000000000000000E+00
(PID.TID 0000.0001) // CINT =          0.000000000000000E+00
(PID.TID 0000.0001) // SYMBOLS (CMIN->CMAX): -abcdefghijklmnopqrstuvwxyz+
(PID.TID 0000.0001) //                  0.0: .
(PID.TID 0000.0001) // RANGE I (Lo:Hi:Step):(  -1: 194:   1)
(PID.TID 0000.0001) // RANGE J (Lo:Hi:Step):(  34:  -1:  -1)
(PID.TID 0000.0001) // RANGE K (Lo:Hi:Step):(   1:   1:   1)
(PID.TID 0000.0001) // =======================================================
(PID.TID 0000.0001) // =======================================================
(PID.TID 0000.0001) // END OF FIELD                                          =
(PID.TID 0000.0001) // =======================================================
(PID.TID 0000.0001) 
(PID.TID 0000.0001) // =======================================================
(PID.TID 0000.0001) // Field hFacS at iteration          1
(PID.TID 0000.0001) // CMIN =          1.000000000000000E+00
(PID.TID 0000.0001) // CMAX =          1.000000000000000E+00
(PID.TID 0000.0001) // CINT =          0.000000000000000E+00
(PID.TID 0000.0001) // SYMBOLS (CMIN->CMAX): -abcdefghijklmnopqrstuvwxyz+
(PID.TID 0000.0001) //                  0.0: .
(PID.TID 0000.0001) // RANGE I (Lo:Hi:Step):(  -1: 194:   1)
(PID.TID 0000.0001) // RANGE J (Lo:Hi:Step):(  34:  -1:  -1)
(PID.TID 0000.0001) // RANGE K (Lo:Hi:Step):(   1:   1:   1)
(PID.TID 0000.0001) // =======================================================
(PID.TID 0000.0001) // =======================================================
(PID.TID 0000.0001) // END OF FIELD                                          =
(PID.TID 0000.0001) // =======================================================
(PID.TID 0000.0001) 
(PID.TID 0000.0001) 
(PID.TID 0000.0001) // ===================================
(PID.TID 0000.0001) // GAD parameters :
(PID.TID 0000.0001) // ===================================
(PID.TID 0000.0001) tempAdvScheme =   /* Temp. Horiz.Advection scheme selector */
(PID.TID 0000.0001)                       2
(PID.TID 0000.0001)     ;
(PID.TID 0000.0001) tempVertAdvScheme =   /* Temp. Vert. Advection scheme selector */
(PID.TID 0000.0001)                       2
(PID.TID 0000.0001)     ;
(PID.TID 0000.0001) tempMultiDimAdvec =   /* use Muti-Dim Advec method for Temp */
(PID.TID 0000.0001)                   F
(PID.TID 0000.0001)     ;
(PID.TID 0000.0001) tempSOM_Advection = /* use 2nd Order Moment Advection for Temp */
(PID.TID 0000.0001)                   F
(PID.TID 0000.0001)     ;
(PID.TID 0000.0001) AdamsBashforthGt = /* apply Adams-Bashforth extrapolation on Gt */
(PID.TID 0000.0001)                   F
(PID.TID 0000.0001)     ;
(PID.TID 0000.0001) AdamsBashforth_T = /* apply Adams-Bashforth extrapolation on Temp */
(PID.TID 0000.0001)                   T
(PID.TID 0000.0001)     ;
(PID.TID 0000.0001) saltAdvScheme =   /* Salt. Horiz.advection scheme selector */
(PID.TID 0000.0001)                       2
(PID.TID 0000.0001)     ;
(PID.TID 0000.0001) saltVertAdvScheme =   /* Salt. Vert. Advection scheme selector */
(PID.TID 0000.0001)                       2
(PID.TID 0000.0001)     ;
(PID.TID 0000.0001) saltMultiDimAdvec =   /* use Muti-Dim Advec method for Salt */
(PID.TID 0000.0001)                   F
(PID.TID 0000.0001)     ;
(PID.TID 0000.0001) saltSOM_Advection = /* use 2nd Order Moment Advection for Salt */
(PID.TID 0000.0001)                   F
(PID.TID 0000.0001)     ;
(PID.TID 0000.0001) AdamsBashforthGs = /* apply Adams-Bashforth extrapolation on Gs */
(PID.TID 0000.0001)                   F
(PID.TID 0000.0001)     ;
(PID.TID 0000.0001) AdamsBashforth_S = /* apply Adams-Bashforth extrapolation on Salt */
(PID.TID 0000.0001)                   F
(PID.TID 0000.0001)     ;
(PID.TID 0000.0001) // ===================================
(PID.TID 0000.0001) ------------------------------------------------------------
(PID.TID 0000.0001) DIAGNOSTICS_SET_LEVELS: done
(PID.TID 0000.0001)  Total Nb of available Diagnostics: ndiagt=   177
(PID.TID 0000.0001)  write list of available Diagnostics to file: available_diagnostics.log
(PID.TID 0000.0001) SETDIAG: Allocate  1 x  1 Levels for Diagnostic #    23 ETAN
(PID.TID 0000.0001) SETDIAG: Allocate  1 x  1 Levels for Diagnostic #    24 ETANSQ
(PID.TID 0000.0001) SETDIAG: Allocate  1 x  1 Levels for Diagnostic #    25 DETADT2
(PID.TID 0000.0001) SETDIAG: Allocate  5 x  1 Levels for Diagnostic #    29 UVEL
(PID.TID 0000.0001) SETDIAG: Allocate  5 x  1 Levels for Diagnostic #    30 VVEL
(PID.TID 0000.0001) SETDIAG: Allocate  5 x  1 Levels for Diagnostic #    31 WVEL
(PID.TID 0000.0001) SETDIAG: Allocate  5 x  1 Levels for Diagnostic #    26 THETA
(PID.TID 0000.0001) SETDIAG: Allocate  5 x  1 Levels for Diagnostic #    34 UVELSQ
(PID.TID 0000.0001) SETDIAG: Allocate  5 x  1 Levels for Diagnostic #    35 VVELSQ
(PID.TID 0000.0001) SETDIAG: Allocate  5 x  1 Levels for Diagnostic #    36 WVELSQ
(PID.TID 0000.0001) SETDIAG: Allocate  5 x  1 Levels for Diagnostic #    32 THETASQ
(PID.TID 0000.0001) SETDIAG: Allocate  5 x  1 Levels for Diagnostic #    46 UTHMASS
(PID.TID 0000.0001) SETDIAG: Allocate  5 x  1 Levels for Diagnostic #    47 VTHMASS
(PID.TID 0000.0001) SETDIAG: Allocate  5 x  1 Levels for Diagnostic #    54 WVELTH
(PID.TID 0000.0001) SETDIAG: Allocate  5 x  1 Levels for Diagnostic #    65 PHIHYD
(PID.TID 0000.0001)   space allocated for all diagnostics:      63 levels
(PID.TID 0000.0001)   set mate pointer for diag #    29  UVEL     , Parms: UU      MR , mate:    30
(PID.TID 0000.0001)   set mate pointer for diag #    30  VVEL     , Parms: VV      MR , mate:    29
(PID.TID 0000.0001)   set mate pointer for diag #    34  UVELSQ   , Parms: UU P    MR , mate:    35
(PID.TID 0000.0001)   set mate pointer for diag #    35  VVELSQ   , Parms: VV P    MR , mate:    34
(PID.TID 0000.0001)   set mate pointer for diag #    46  UTHMASS  , Parms: UU      MR , mate:    47
(PID.TID 0000.0001)   set mate pointer for diag #    47  VTHMASS  , Parms: VV      MR , mate:    46
(PID.TID 0000.0001) DIAGNOSTICS_SET_POINTERS: Set levels for Outp.Stream: dynDiag
(PID.TID 0000.0001)  Levels:       1.   2.   3.   4.   5.
(PID.TID 0000.0001) DIAGNOSTICS_SET_POINTERS: done
(PID.TID 0000.0001) ------------------------------------------------------------
(PID.TID 0000.0001) DIAGSTATS_SET_REGIONS: define no region
(PID.TID 0000.0001) ------------------------------------------------------------
(PID.TID 0000.0001) SETDIAG: Allocate  1 Levels for Stats-Diag #    23 ETAN
(PID.TID 0000.0001) SETDIAG: Allocate  5 Levels for Stats-Diag #    29 UVEL
(PID.TID 0000.0001) SETDIAG: Allocate  5 Levels for Stats-Diag #    30 VVEL
(PID.TID 0000.0001) SETDIAG: Allocate  5 Levels for Stats-Diag #    31 WVEL
(PID.TID 0000.0001) SETDIAG: Allocate  5 Levels for Stats-Diag #    26 THETA
(PID.TID 0000.0001) SETDIAG: Allocate  5 Levels for Stats-Diag #    65 PHIHYD
(PID.TID 0000.0001) SETDIAG: Allocate  1 Levels for Stats-Diag #    25 DETADT2
(PID.TID 0000.0001)   space allocated for all stats-diags:      27 levels
(PID.TID 0000.0001) DIAGSTATS_SET_POINTERS: done
(PID.TID 0000.0001) ------------------------------------------------------------
(PID.TID 0000.0001) DIAGSTATS_INI_IO: open file: dynStDiag.0000025920.txt , unit=     9
(PID.TID 0000.0001) %MON fCori_max                    =   1.4574827780704E-04
(PID.TID 0000.0001) %MON fCori_min                    =  -1.4574827780704E-04
(PID.TID 0000.0001) %MON fCori_mean                   =  -2.2587545260115E-21
(PID.TID 0000.0001) %MON fCori_sd                     =   8.4202189509968E-05
(PID.TID 0000.0001) %MON fCoriG_max                   =   1.4584247033981E-04
(PID.TID 0000.0001) %MON fCoriG_min                   =  -1.4584247033981E-04
(PID.TID 0000.0001) %MON fCoriG_mean                  =   5.6468863150287E-21
(PID.TID 0000.0001) %MON fCoriG_sd                    =   8.4202189509968E-05
(PID.TID 0000.0001) %MON fCoriCos_max                 =   1.4580166994612E-04
(PID.TID 0000.0001) %MON fCoriCos_min                 =   5.2407700865903E-06
(PID.TID 0000.0001) %MON fCoriCos_mean                =   1.1514045869113E-04
(PID.TID 0000.0001) %MON fCoriCos_sd                  =   3.0375849106513E-05
(PID.TID 0000.0001) INI_CG2D: CG2D normalisation factor =  9.9119603843467461E-06
(PID.TID 0000.0001) INI_CG2D: cg2dTolerance = 4.211461545964202E-11 (Area=5.0986421043E+14)
(PID.TID 0000.0001) 
(PID.TID 0000.0001) INI_CG3D: CG3D normalisation factor =  3.7334079046875808E-07
(PID.TID 0000.0001) 
(PID.TID 0000.0001) // =======================================================
(PID.TID 0000.0001) // Model configuration
(PID.TID 0000.0001) // =======================================================
(PID.TID 0000.0001) //
(PID.TID 0000.0001) // "Physical" paramters ( PARM01 in namelist )
(PID.TID 0000.0001) //
(PID.TID 0000.0001) buoyancyRelation = /* Type of relation to get Buoyancy */
(PID.TID 0000.0001)               'ATMOSPHERIC'
(PID.TID 0000.0001)     ;
(PID.TID 0000.0001) fluidIsAir  =  /* fluid major constituent is Air */
(PID.TID 0000.0001)                   T
(PID.TID 0000.0001)     ;
(PID.TID 0000.0001) fluidIsWater=  /* fluid major constituent is Water */
(PID.TID 0000.0001)                   F
(PID.TID 0000.0001)     ;
(PID.TID 0000.0001) usingPCoords =  /* use p (or p*) vertical coordinate */
(PID.TID 0000.0001)                   T
(PID.TID 0000.0001)     ;
(PID.TID 0000.0001) usingZCoords =  /* use z (or z*) vertical coordinate */
(PID.TID 0000.0001)                   F
(PID.TID 0000.0001)     ;
(PID.TID 0000.0001) tRef =   /* Reference temperature profile ( oC or K ) */
(PID.TID 0000.0001)                 2.896000000000000E+02,      /* K =  1 */
(PID.TID 0000.0001)                 2.981000000000000E+02,      /* K =  2 */
(PID.TID 0000.0001)                 3.145000000000000E+02,      /* K =  3 */
(PID.TID 0000.0001)                 3.358000000000000E+02,      /* K =  4 */
(PID.TID 0000.0001)                 4.374000000000000E+02       /* K =  5 */
(PID.TID 0000.0001)     ;
(PID.TID 0000.0001) sRef =   /* Reference salinity profile ( psu ) */
(PID.TID 0000.0001)     5 @  0.000000000000000E+00              /* K =  1:  5 */
(PID.TID 0000.0001)     ;
(PID.TID 0000.0001) viscAh =   /* Lateral eddy viscosity ( m^2/s ) */
(PID.TID 0000.0001)                 0.000000000000000E+00
(PID.TID 0000.0001)     ;
(PID.TID 0000.0001) viscAhMax =   /* Maximum lateral eddy viscosity ( m^2/s ) */
(PID.TID 0000.0001)                 1.000000000000000E+21
(PID.TID 0000.0001)     ;
(PID.TID 0000.0001) viscAhGrid =   /* Grid dependent lateral eddy viscosity ( non-dim. ) */
(PID.TID 0000.0001)                 0.000000000000000E+00
(PID.TID 0000.0001)     ;
(PID.TID 0000.0001) useFullLeith =   /* Use Full Form of Leith Viscosity on/off flag*/
(PID.TID 0000.0001)                   F
(PID.TID 0000.0001)     ;
(PID.TID 0000.0001) useStrainTensionVisc =   /* Use StrainTension Form of Viscous Operator on/off flag*/
(PID.TID 0000.0001)                   F
(PID.TID 0000.0001)     ;
(PID.TID 0000.0001) useAreaViscLength =   /* Use area for visc length instead of geom. mean*/
(PID.TID 0000.0001)                   F
(PID.TID 0000.0001)     ;
(PID.TID 0000.0001) viscC2leith = /* Leith harmonic visc. factor (on grad(vort),non-dim.) */
(PID.TID 0000.0001)                 0.000000000000000E+00
(PID.TID 0000.0001)     ;
(PID.TID 0000.0001) viscC2leithD = /* Leith harmonic viscosity factor (on grad(div),non-dim.) */
(PID.TID 0000.0001)                 0.000000000000000E+00
(PID.TID 0000.0001)     ;
(PID.TID 0000.0001) viscC2smag =   /* Smagorinsky harmonic viscosity factor (non-dim.) */
(PID.TID 0000.0001)                 0.000000000000000E+00
(PID.TID 0000.0001)     ;
(PID.TID 0000.0001) viscA4 =   /* Lateral biharmonic viscosity ( m^4/s ) */
(PID.TID 0000.0001)                 0.000000000000000E+00
(PID.TID 0000.0001)     ;
(PID.TID 0000.0001) viscA4Max =   /* Maximum biharmonic viscosity ( m^2/s ) */
(PID.TID 0000.0001)                 1.000000000000000E+21
(PID.TID 0000.0001)     ;
(PID.TID 0000.0001) viscA4Grid =   /* Grid dependent biharmonic viscosity ( non-dim. ) */
(PID.TID 0000.0001)                 0.000000000000000E+00
(PID.TID 0000.0001)     ;
(PID.TID 0000.0001) viscC4leith = /* Leith biharm viscosity factor (on grad(vort), non-dim.) */
(PID.TID 0000.0001)                 0.000000000000000E+00
(PID.TID 0000.0001)     ;
(PID.TID 0000.0001) viscC4leithD = /* Leith biharm viscosity factor (on grad(div), non-dim.) */
(PID.TID 0000.0001)                 0.000000000000000E+00
(PID.TID 0000.0001)     ;
(PID.TID 0000.0001) viscC4Smag = /* Smagorinsky biharm viscosity factor (non-dim) */
(PID.TID 0000.0001)                 0.000000000000000E+00
(PID.TID 0000.0001)     ;
(PID.TID 0000.0001) no_slip_sides =  /* Viscous BCs: No-slip sides */
(PID.TID 0000.0001)                   F
(PID.TID 0000.0001)     ;
(PID.TID 0000.0001) sideDragFactor = /* side-drag scaling factor (non-dim) */
(PID.TID 0000.0001)                 2.000000000000000E+00
(PID.TID 0000.0001)     ;
(PID.TID 0000.0001) viscAr =   /* Vertical eddy viscosity (Pa^2/s ) */
(PID.TID 0000.0001)                 0.000000000000000E+00
(PID.TID 0000.0001)     ;
(PID.TID 0000.0001) no_slip_bottom =  /* Viscous BCs: No-slip bottom */
(PID.TID 0000.0001)                   F
(PID.TID 0000.0001)     ;
(PID.TID 0000.0001) bottomDragLinear = /* linear bottom-drag coefficient ( m/s ) */
(PID.TID 0000.0001)                 0.000000000000000E+00
(PID.TID 0000.0001)     ;
(PID.TID 0000.0001) bottomDragQuadratic = /* quadratic bottom-drag coefficient (-) */
(PID.TID 0000.0001)                 0.000000000000000E+00
(PID.TID 0000.0001)     ;
(PID.TID 0000.0001) diffKhT =   /* Laplacian diffusion of heat laterally ( m^2/s ) */
(PID.TID 0000.0001)                 0.000000000000000E+00
(PID.TID 0000.0001)     ;
(PID.TID 0000.0001) diffK4T =   /* Biharmonic diffusion of heat laterally ( m^4/s ) */
(PID.TID 0000.0001)                 0.000000000000000E+00
(PID.TID 0000.0001)     ;
(PID.TID 0000.0001) diffKhS =   /* Laplacian diffusion of salt laterally ( m^2/s ) */
(PID.TID 0000.0001)                 0.000000000000000E+00
(PID.TID 0000.0001)     ;
(PID.TID 0000.0001) diffK4S =   /* Biharmonic diffusion of salt laterally ( m^4/s ) */
(PID.TID 0000.0001)                 0.000000000000000E+00
(PID.TID 0000.0001)     ;
(PID.TID 0000.0001) diffKrNrT = /* vertical profile of vertical diffusion of Temp (Pa^2/s )*/
(PID.TID 0000.0001)     5 @  0.000000000000000E+00              /* K =  1:  5 */
(PID.TID 0000.0001)     ;
(PID.TID 0000.0001) diffKrNrS = /* vertical profile of vertical diffusion of Salt (Pa^2/s )*/
(PID.TID 0000.0001)     5 @  0.000000000000000E+00              /* K =  1:  5 */
(PID.TID 0000.0001)     ;
(PID.TID 0000.0001) diffKrBL79surf = /* Surface diffusion for Bryan and Lewis 79 ( m^2/s ) */
(PID.TID 0000.0001)                 0.000000000000000E+00
(PID.TID 0000.0001)     ;
(PID.TID 0000.0001) diffKrBL79deep = /* Deep diffusion for Bryan and Lewis 1979 ( m^2/s ) */
(PID.TID 0000.0001)                 0.000000000000000E+00
(PID.TID 0000.0001)     ;
(PID.TID 0000.0001) diffKrBL79scl = /* Depth scale for Bryan and Lewis 1979 ( m ) */
(PID.TID 0000.0001)                 2.000000000000000E+02
(PID.TID 0000.0001)     ;
(PID.TID 0000.0001) diffKrBL79Ho = /* Turning depth for Bryan and Lewis 1979 ( m ) */
(PID.TID 0000.0001)                -2.000000000000000E+03
(PID.TID 0000.0001)     ;
(PID.TID 0000.0001) ivdc_kappa = /* Implicit Vertical Diffusivity for Convection (Pa^2/s ) */
(PID.TID 0000.0001)                 0.000000000000000E+00
(PID.TID 0000.0001)     ;
(PID.TID 0000.0001) hMixCriteria=  /* Criteria for mixed-layer diagnostic */
(PID.TID 0000.0001)                -8.000000000000000E-01
(PID.TID 0000.0001)     ;
(PID.TID 0000.0001) dRhoSmall=  /* Parameter for mixed-layer diagnostic */
(PID.TID 0000.0001)                 1.000000000000000E-06
(PID.TID 0000.0001)     ;
(PID.TID 0000.0001) hMixSmooth=  /* Smoothing parameter for mixed-layer diagnostic */
(PID.TID 0000.0001)                 0.000000000000000E+00
(PID.TID 0000.0001)     ;
(PID.TID 0000.0001) eosType =  /* Type of Equation of State */
(PID.TID 0000.0001)               'IDEALG'
(PID.TID 0000.0001)     ;
(PID.TID 0000.0001) tAlpha =   /* Linear EOS thermal expansion coefficient ( 1/oC ) */
(PID.TID 0000.0001)                 1.234567000000000E+05
(PID.TID 0000.0001)     ;
(PID.TID 0000.0001) sBeta =   /* Linear EOS haline contraction coefficient ( 1/psu ) */
(PID.TID 0000.0001)                 1.234567000000000E+05
(PID.TID 0000.0001)     ;
(PID.TID 0000.0001) atm_Rd =  /* gas constant for dry air ( J/kg/K ) */
(PID.TID 0000.0001)                 2.868571428571428E+02
(PID.TID 0000.0001)     ;
(PID.TID 0000.0001) atm_Cp =  /* specific heat (Cp) of dry air ( J/kg/K ) */
(PID.TID 0000.0001)                 1.004000000000000E+03
(PID.TID 0000.0001)     ;
(PID.TID 0000.0001) atm_kappa =  /* kappa (=Rd/Cp ) of dry air */
(PID.TID 0000.0001)                 2.857142857142857E-01
(PID.TID 0000.0001)     ;
(PID.TID 0000.0001) atm_Rq = /* water vap. specific vol. anomaly relative to dry air */
(PID.TID 0000.0001)                 0.000000000000000E+00
(PID.TID 0000.0001)     ;
(PID.TID 0000.0001) atm_Po =  /* standard reference pressure ( Pa ) */
(PID.TID 0000.0001)                 1.000000000000000E+05
(PID.TID 0000.0001)     ;
(PID.TID 0000.0001) integr_GeoPot =  /* select how the geopotential is integrated */
(PID.TID 0000.0001)                       2
(PID.TID 0000.0001)     ;
(PID.TID 0000.0001) selectFindRoSurf=  /* select how Surf.Ref. pressure is defined */
(PID.TID 0000.0001)                       0
(PID.TID 0000.0001)     ;
(PID.TID 0000.0001) rhonil =   /* Reference density ( kg/m^3 ) */
(PID.TID 0000.0001)                 9.998000000000000E+02
(PID.TID 0000.0001)     ;
(PID.TID 0000.0001) rhoConst =   /* Reference density ( kg/m^3 ) */
(PID.TID 0000.0001)                 9.998000000000000E+02
(PID.TID 0000.0001)     ;
(PID.TID 0000.0001) rhoFacC = /* normalized Reference density @ cell-Center (-) */
(PID.TID 0000.0001)     5 @  1.000000000000000E+00              /* K =  1:  5 */
(PID.TID 0000.0001)     ;
(PID.TID 0000.0001) rhoFacF = /* normalized Reference density @ W-Interface (-) */
(PID.TID 0000.0001)     6 @  1.000000000000000E+00              /* K =  1:  6 */
(PID.TID 0000.0001)     ;
(PID.TID 0000.0001) rhoConstFresh =   /* Reference density ( kg/m^3 ) */
(PID.TID 0000.0001)                 9.998000000000000E+02
(PID.TID 0000.0001)     ;
(PID.TID 0000.0001) gravity =   /* Gravitational acceleration ( m/s^2 ) */
(PID.TID 0000.0001)                 9.810000000000000E+00
(PID.TID 0000.0001)     ;
(PID.TID 0000.0001) gBaro =   /* Barotropic gravity ( m/s^2 ) */
(PID.TID 0000.0001)                 9.810000000000000E+00
(PID.TID 0000.0001)     ;
(PID.TID 0000.0001) rotationPeriod =   /* Rotation Period ( s ) */
(PID.TID 0000.0001)                 8.616400000000000E+04
(PID.TID 0000.0001)     ;
(PID.TID 0000.0001) omega =   /* Angular velocity ( rad/s ) */
(PID.TID 0000.0001)                 7.292123516990375E-05
(PID.TID 0000.0001)     ;
(PID.TID 0000.0001) f0 =   /* Reference coriolis parameter ( 1/s ) */
(PID.TID 0000.0001)                 1.000000000000000E-04
(PID.TID 0000.0001)     ;
(PID.TID 0000.0001) beta =   /* Beta ( 1/(m.s) ) */
(PID.TID 0000.0001)                 9.999999999999999E-12
(PID.TID 0000.0001)     ;
(PID.TID 0000.0001) freeSurfFac =   /* Implicit free surface factor */
(PID.TID 0000.0001)                 1.000000000000000E+00
(PID.TID 0000.0001)     ;
(PID.TID 0000.0001) implicitFreeSurface =   /* Implicit free surface on/off flag */
(PID.TID 0000.0001)                   T
(PID.TID 0000.0001)     ;
(PID.TID 0000.0001) rigidLid =   /* Rigid lid on/off flag */
(PID.TID 0000.0001)                   F
(PID.TID 0000.0001)     ;
(PID.TID 0000.0001) implicSurfPress =   /* Surface Pressure implicit factor (0-1)*/
(PID.TID 0000.0001)                 1.000000000000000E+00
(PID.TID 0000.0001)     ;
(PID.TID 0000.0001) implicDiv2Dflow =   /* Barot. Flow Div. implicit factor (0-1)*/
(PID.TID 0000.0001)                 1.000000000000000E+00
(PID.TID 0000.0001)     ;
(PID.TID 0000.0001) exactConserv =   /* Exact Volume Conservation on/off flag*/
(PID.TID 0000.0001)                   T
(PID.TID 0000.0001)     ;
(PID.TID 0000.0001) linFSConserveTr =   /* Tracer correction for Lin Free Surface on/off flag*/
(PID.TID 0000.0001)                   F
(PID.TID 0000.0001)     ;
(PID.TID 0000.0001) uniformLin_PhiSurf =   /* use uniform Bo_surf on/off flag*/
(PID.TID 0000.0001)                   F
(PID.TID 0000.0001)     ;
(PID.TID 0000.0001) nonlinFreeSurf =   /* Non-linear Free Surf. options (-1,0,1,2,3)*/
(PID.TID 0000.0001)                       0
(PID.TID 0000.0001)     ;
(PID.TID 0000.0001)      -1,0= Off ; 1,2,3= On, 2=+rescale gU,gV, 3=+update cg2d solv.
(PID.TID 0000.0001) hFacInf =   /* lower threshold for hFac (nonlinFreeSurf only)*/
(PID.TID 0000.0001)                 2.000000000000000E-01
(PID.TID 0000.0001)     ;
(PID.TID 0000.0001) hFacSup =   /* upper threshold for hFac (nonlinFreeSurf only)*/
(PID.TID 0000.0001)                 2.000000000000000E+00
(PID.TID 0000.0001)     ;
(PID.TID 0000.0001) select_rStar = /* r* Vertical coord. options (=0 r coord.; > 0 uses r*) */
(PID.TID 0000.0001)                       0
(PID.TID 0000.0001)     ;
(PID.TID 0000.0001) selectAddFluid = /* option for mass source/sink of fluid (=0: off) */
(PID.TID 0000.0001)                       0
(PID.TID 0000.0001)     ;
(PID.TID 0000.0001) useRealFreshWaterFlux = /* Real Fresh Water Flux on/off flag*/
(PID.TID 0000.0001)                   F
(PID.TID 0000.0001)     ;
(PID.TID 0000.0001) temp_EvPrRn = /* Temp. of Evap/Prec/R (UNSET=use local T)(oC)*/
(PID.TID 0000.0001)                 1.234567000000000E+05
(PID.TID 0000.0001)     ;
(PID.TID 0000.0001) salt_EvPrRn = /* Salin. of Evap/Prec/R (UNSET=use local S)(ppt)*/
(PID.TID 0000.0001)                 0.000000000000000E+00
(PID.TID 0000.0001)     ;
(PID.TID 0000.0001) convertFW2Salt = /* convert F.W. Flux to Salt Flux (-1=use local S)(ppt)*/
(PID.TID 0000.0001)                 3.500000000000000E+01
(PID.TID 0000.0001)     ;
(PID.TID 0000.0001) use3Dsolver = /* use 3-D pressure solver on/off flag */
(PID.TID 0000.0001)                   T
(PID.TID 0000.0001)     ;
(PID.TID 0000.0001) nonHydrostatic =  /* Non-Hydrostatic on/off flag */
(PID.TID 0000.0001)                   F
(PID.TID 0000.0001)     ;
(PID.TID 0000.0001) nh_Am2 = /* Non-Hydrostatic terms scaling factor */
(PID.TID 0000.0001)                 1.000000000000000E+00
(PID.TID 0000.0001)     ;
(PID.TID 0000.0001) quasiHydrostatic = /* Quasi-Hydrostatic on/off flag */
(PID.TID 0000.0001)                   F
(PID.TID 0000.0001)     ;
(PID.TID 0000.0001) momStepping =  /* Momentum equation on/off flag */
(PID.TID 0000.0001)                   T
(PID.TID 0000.0001)     ;
(PID.TID 0000.0001) vectorInvariantMomentum= /* Vector-Invariant Momentum on/off */
(PID.TID 0000.0001)                   T
(PID.TID 0000.0001)     ;
(PID.TID 0000.0001) momAdvection =  /* Momentum advection on/off flag */
(PID.TID 0000.0001)                   T
(PID.TID 0000.0001)     ;
(PID.TID 0000.0001) momViscosity =  /* Momentum viscosity on/off flag */
(PID.TID 0000.0001)                   F
(PID.TID 0000.0001)     ;
(PID.TID 0000.0001) momImplVertAdv =/* Momentum implicit vert. advection on/off*/
(PID.TID 0000.0001)                   F
(PID.TID 0000.0001)     ;
(PID.TID 0000.0001) implicitViscosity = /* Implicit viscosity on/off flag */
(PID.TID 0000.0001)                   F
(PID.TID 0000.0001)     ;
(PID.TID 0000.0001) metricTerms =  /* metric-Terms on/off flag */
(PID.TID 0000.0001)                   F
(PID.TID 0000.0001)     ;
(PID.TID 0000.0001) useNHMTerms = /* Non-Hydrostatic Metric-Terms on/off */
(PID.TID 0000.0001)                   F
(PID.TID 0000.0001)     ;
(PID.TID 0000.0001) useConstantF =  /* use Constant f0 Coriolis flag */
(PID.TID 0000.0001)                   F
(PID.TID 0000.0001)     ;
(PID.TID 0000.0001) useBetaPlaneF = /* use Beta-Plane Coriolis flag */
(PID.TID 0000.0001)                   F
(PID.TID 0000.0001)     ;
(PID.TID 0000.0001) useSphereF  =   /* use Spherical Coriolis flag */
(PID.TID 0000.0001)                   T
(PID.TID 0000.0001)     ;
(PID.TID 0000.0001) use3dCoriolis = /* 3-D Coriolis on/off flag */
(PID.TID 0000.0001)                   F
(PID.TID 0000.0001)     ;
(PID.TID 0000.0001) useCoriolis =  /* Coriolis on/off flag */
(PID.TID 0000.0001)                   T
(PID.TID 0000.0001)     ;
(PID.TID 0000.0001) useCDscheme =  /* CD scheme on/off flag */
(PID.TID 0000.0001)                   F
(PID.TID 0000.0001)     ;
(PID.TID 0000.0001) useJamartWetPoints= /* Coriolis WetPoints method flag */
(PID.TID 0000.0001)                   F
(PID.TID 0000.0001)     ;
(PID.TID 0000.0001) useJamartMomAdv= /* V.I. Non-linear terms Jamart flag */
(PID.TID 0000.0001)                   F
(PID.TID 0000.0001)     ;
(PID.TID 0000.0001) useAbsVorticity= /* Work with f+zeta in Coriolis */
(PID.TID 0000.0001)                   T
(PID.TID 0000.0001)     ;
(PID.TID 0000.0001) selectVortScheme= /* Scheme selector for Vorticity-Term */
(PID.TID 0000.0001)                       2
(PID.TID 0000.0001)    = 0 : enstrophy (Shallow-Water Eq.) conserving scheme by Sadourny, JAS 75
(PID.TID 0000.0001)    = 1 : same as 0 with modified hFac
(PID.TID 0000.0001)    = 2 : energy conserving scheme (used by Sadourny in JAS 75 paper)
(PID.TID 0000.0001)    = 3 : energy (general) and enstrophy (2D, nonDiv.) conserving scheme
(PID.TID 0000.0001)          from Sadourny (Burridge & Haseler, ECMWF Rep.4, 1977)
(PID.TID 0000.0001)     ;
(PID.TID 0000.0001) upwindVorticity= /* Upwind bias vorticity flag */
(PID.TID 0000.0001)                   F
(PID.TID 0000.0001)     ;
(PID.TID 0000.0001) highOrderVorticity= /* High order interp. of vort. flag */
(PID.TID 0000.0001)                   F
(PID.TID 0000.0001)     ;
(PID.TID 0000.0001) upwindShear= /* Upwind vertical Shear advection flag */
(PID.TID 0000.0001)                   F
(PID.TID 0000.0001)     ;
(PID.TID 0000.0001) selectKEscheme= /* Kinetic Energy scheme selector */
(PID.TID 0000.0001)                       3
(PID.TID 0000.0001)     ;
(PID.TID 0000.0001) momForcing =  /* Momentum forcing on/off flag */
(PID.TID 0000.0001)                   T
(PID.TID 0000.0001)     ;
(PID.TID 0000.0001) momPressureForcing =  /* Momentum pressure term on/off flag */
(PID.TID 0000.0001)                   T
(PID.TID 0000.0001)     ;
(PID.TID 0000.0001) implicitIntGravWave= /* Implicit Internal Gravity Wave flag */
(PID.TID 0000.0001)                   T
(PID.TID 0000.0001)     ;
(PID.TID 0000.0001) staggerTimeStep =   /* Stagger time stepping on/off flag */
(PID.TID 0000.0001)                   F
(PID.TID 0000.0001)     ;
(PID.TID 0000.0001) multiDimAdvection =   /* enable/disable Multi-Dim Advection */
(PID.TID 0000.0001)                   T
(PID.TID 0000.0001)     ;
(PID.TID 0000.0001) useMultiDimAdvec =   /* Multi-Dim Advection is/is-not used */
(PID.TID 0000.0001)                   F
(PID.TID 0000.0001)     ;
(PID.TID 0000.0001) implicitDiffusion =/* Implicit Diffusion on/off flag */
(PID.TID 0000.0001)                   F
(PID.TID 0000.0001)     ;
(PID.TID 0000.0001) tempStepping =  /* Temperature equation on/off flag */
(PID.TID 0000.0001)                   T
(PID.TID 0000.0001)     ;
(PID.TID 0000.0001) tempAdvection=  /* Temperature advection on/off flag */
(PID.TID 0000.0001)                   T
(PID.TID 0000.0001)     ;
(PID.TID 0000.0001) tempImplVertAdv =/* Temp. implicit vert. advection on/off */
(PID.TID 0000.0001)                   F
(PID.TID 0000.0001)     ;
(PID.TID 0000.0001) tempForcing  =  /* Temperature forcing on/off flag */
(PID.TID 0000.0001)                   T
(PID.TID 0000.0001)     ;
(PID.TID 0000.0001) tempIsActiveTr = /* Temp. is a dynamically Active Tracer */
(PID.TID 0000.0001)                   T
(PID.TID 0000.0001)     ;
(PID.TID 0000.0001) saltStepping =  /* Salinity equation on/off flag */
(PID.TID 0000.0001)                   F
(PID.TID 0000.0001)     ;
(PID.TID 0000.0001) saltAdvection=  /* Salinity advection on/off flag */
(PID.TID 0000.0001)                   F
(PID.TID 0000.0001)     ;
(PID.TID 0000.0001) saltImplVertAdv =/* Sali. implicit vert. advection on/off */
(PID.TID 0000.0001)                   F
(PID.TID 0000.0001)     ;
(PID.TID 0000.0001) saltForcing  =  /* Salinity forcing on/off flag */
(PID.TID 0000.0001)                   F
(PID.TID 0000.0001)     ;
(PID.TID 0000.0001) saltIsActiveTr = /* Salt  is a dynamically Active Tracer */
(PID.TID 0000.0001)                   F
(PID.TID 0000.0001)     ;
(PID.TID 0000.0001)  readBinaryPrec = /* Precision used for reading binary files */
(PID.TID 0000.0001)                      64
(PID.TID 0000.0001)     ;
(PID.TID 0000.0001) writeBinaryPrec = /* Precision used for writing binary files */
(PID.TID 0000.0001)                      64
(PID.TID 0000.0001)     ;
(PID.TID 0000.0001)  globalFiles = /* write "global" (=not per tile) files */
(PID.TID 0000.0001)                   F
(PID.TID 0000.0001)     ;
(PID.TID 0000.0001)  useSingleCpuIO = /* only master MPI process does I/O */
(PID.TID 0000.0001)                   T
(PID.TID 0000.0001)     ;
(PID.TID 0000.0001)  debugMode  =  /* Debug Mode on/off flag */
(PID.TID 0000.0001)                   F
(PID.TID 0000.0001)     ;
(PID.TID 0000.0001)    debLevA  =  /* 1rst level of debugging */
(PID.TID 0000.0001)                       1
(PID.TID 0000.0001)     ;
(PID.TID 0000.0001)    debLevB  =  /* 2nd  level of debugging */
(PID.TID 0000.0001)                       2
(PID.TID 0000.0001)     ;
(PID.TID 0000.0001)  debugLevel =  /* select debugging level */
(PID.TID 0000.0001)                       1
(PID.TID 0000.0001)     ;
(PID.TID 0000.0001) //
(PID.TID 0000.0001) // Elliptic solver(s) paramters ( PARM02 in namelist )
(PID.TID 0000.0001) //
(PID.TID 0000.0001) cg2dMaxIters =   /* Upper limit on 2d con. grad iterations  */
(PID.TID 0000.0001)                     200
(PID.TID 0000.0001)     ;
(PID.TID 0000.0001) cg2dChkResFreq =   /* 2d con. grad convergence test frequency */
(PID.TID 0000.0001)                       1
(PID.TID 0000.0001)     ;
(PID.TID 0000.0001) cg2dTargetResidual =   /* 2d con. grad target residual  */
(PID.TID 0000.0001)                 1.000000000000000E-07
(PID.TID 0000.0001)     ;
(PID.TID 0000.0001) cg2dTargetResWunit =   /* CG2d target residual [W units] */
(PID.TID 0000.0001)                 1.000000000000000E-17
(PID.TID 0000.0001)     ;
(PID.TID 0000.0001) cg2dPreCondFreq =   /* Freq. for updating cg2d preconditioner */
(PID.TID 0000.0001)                       1
(PID.TID 0000.0001)     ;
(PID.TID 0000.0001) //
(PID.TID 0000.0001) // Time stepping paramters ( PARM03 in namelist )
(PID.TID 0000.0001) //
(PID.TID 0000.0001) deltaTmom =   /* Momentum equation timestep ( s ) */
(PID.TID 0000.0001)                 1.200000000000000E+03
(PID.TID 0000.0001)     ;
(PID.TID 0000.0001) deltaTfreesurf = /* FreeSurface equation timestep ( s ) */
(PID.TID 0000.0001)                 1.200000000000000E+03
(PID.TID 0000.0001)     ;
(PID.TID 0000.0001) dTtracerLev =  /* Tracer equation timestep ( s ) */
(PID.TID 0000.0001)     5 @  1.200000000000000E+03              /* K =  1:  5 */
(PID.TID 0000.0001)     ;
(PID.TID 0000.0001) deltaTClock  =   /* Model clock timestep ( s ) */
(PID.TID 0000.0001)                 1.200000000000000E+03
(PID.TID 0000.0001)     ;
(PID.TID 0000.0001) cAdjFreq =   /* Convective adjustment interval ( s ) */
(PID.TID 0000.0001)                 0.000000000000000E+00
(PID.TID 0000.0001)     ;
(PID.TID 0000.0001) momForcingOutAB = /* =1: take Momentum Forcing out of Adams-Bash. stepping */
(PID.TID 0000.0001)                       0
(PID.TID 0000.0001)     ;
(PID.TID 0000.0001) tracForcingOutAB = /* =1: take T,S,pTr Forcing out of Adams-Bash. stepping */
(PID.TID 0000.0001)                       0
(PID.TID 0000.0001)     ;
(PID.TID 0000.0001) momDissip_In_AB = /* put Dissipation Tendency in Adams-Bash. stepping */
(PID.TID 0000.0001)                   T
(PID.TID 0000.0001)     ;
(PID.TID 0000.0001) doAB_onGtGs = /* apply AB on Tendencies (rather than on T,S)*/
(PID.TID 0000.0001)                   F
(PID.TID 0000.0001)     ;
(PID.TID 0000.0001) abEps =   /* Adams-Bashforth-2 stabilizing weight */
(PID.TID 0000.0001)                 1.000000000000000E-02
(PID.TID 0000.0001)     ;
(PID.TID 0000.0001) alph_AB =   /* Adams-Bashforth-3 primary factor */
(PID.TID 0000.0001)                 5.000000000000000E-01
(PID.TID 0000.0001)     ;
(PID.TID 0000.0001) beta_AB =   /* Adams-Bashforth-3 secondary factor */
(PID.TID 0000.0001)                 2.811050000000000E-01
(PID.TID 0000.0001)     ;
(PID.TID 0000.0001) startFromPickupAB2= /* start from AB-2 pickup */
(PID.TID 0000.0001)                   F
(PID.TID 0000.0001)     ;
(PID.TID 0000.0001) pickupStrictlyMatch= /* stop if pickup do not strictly match */
(PID.TID 0000.0001)                   F
(PID.TID 0000.0001)     ;
(PID.TID 0000.0001) nIter0 =   /* Run starting timestep number  */
(PID.TID 0000.0001)                   25920
(PID.TID 0000.0001)     ;
(PID.TID 0000.0001) nTimeSteps =   /* Number of timesteps */
(PID.TID 0000.0001)                      10
(PID.TID 0000.0001)     ;
(PID.TID 0000.0001) baseTime =   /* Model base time ( s ). */
(PID.TID 0000.0001)                 0.000000000000000E+00
(PID.TID 0000.0001)     ;
(PID.TID 0000.0001) startTime =   /* Run start time ( s ). */
(PID.TID 0000.0001)                 3.110400000000000E+07
(PID.TID 0000.0001)     ;
(PID.TID 0000.0001) endTime =   /* Integration ending time ( s ). */
(PID.TID 0000.0001)                 3.111600000000000E+07
(PID.TID 0000.0001)     ;
(PID.TID 0000.0001) pChkPtFreq =   /* Permanent restart/checkpoint file interval ( s ). */
(PID.TID 0000.0001)                 3.110400000000000E+07
(PID.TID 0000.0001)     ;
(PID.TID 0000.0001) chkPtFreq =   /* Rolling restart/checkpoint file interval ( s ). */
(PID.TID 0000.0001)                 0.000000000000000E+00
(PID.TID 0000.0001)     ;
(PID.TID 0000.0001) pickup_write_mdsio =   /* Model IO flag. */
(PID.TID 0000.0001)                   T
(PID.TID 0000.0001)     ;
(PID.TID 0000.0001) pickup_read_mdsio =   /* Model IO flag. */
(PID.TID 0000.0001)                   T
(PID.TID 0000.0001)     ;
(PID.TID 0000.0001) pickup_write_mnc =   /* Model IO flag. */
(PID.TID 0000.0001)                   F
(PID.TID 0000.0001)     ;
(PID.TID 0000.0001) pickup_read_mnc =   /* Model IO flag. */
(PID.TID 0000.0001)                   F
(PID.TID 0000.0001)     ;
(PID.TID 0000.0001) pickup_write_immed =   /* Model IO flag. */
(PID.TID 0000.0001)                   F
(PID.TID 0000.0001)     ;
(PID.TID 0000.0001) writePickupAtEnd =   /* Model IO flag. */
(PID.TID 0000.0001)                   T
(PID.TID 0000.0001)     ;
(PID.TID 0000.0001) dumpFreq =   /* Model state write out interval ( s ). */
(PID.TID 0000.0001)                 3.110400000000000E+07
(PID.TID 0000.0001)     ;
(PID.TID 0000.0001) dumpInitAndLast= /* write out Initial & Last iter. model state */
(PID.TID 0000.0001)                   T
(PID.TID 0000.0001)     ;
(PID.TID 0000.0001) snapshot_mdsio =   /* Model IO flag. */
(PID.TID 0000.0001)                   T
(PID.TID 0000.0001)     ;
(PID.TID 0000.0001) snapshot_mnc =   /* Model IO flag. */
(PID.TID 0000.0001)                   F
(PID.TID 0000.0001)     ;
(PID.TID 0000.0001) monitorFreq =   /* Monitor output interval ( s ). */
(PID.TID 0000.0001)                 1.000000000000000E+00
(PID.TID 0000.0001)     ;
(PID.TID 0000.0001) monitorSelect = /* select group of variables to monitor */
(PID.TID 0000.0001)                       2
(PID.TID 0000.0001)     ;
(PID.TID 0000.0001) monitor_stdio =   /* Model IO flag. */
(PID.TID 0000.0001)                   T
(PID.TID 0000.0001)     ;
(PID.TID 0000.0001) monitor_mnc =   /* Model IO flag. */
(PID.TID 0000.0001)                   F
(PID.TID 0000.0001)     ;
(PID.TID 0000.0001) externForcingPeriod =   /* forcing period (s) */
(PID.TID 0000.0001)                 0.000000000000000E+00
(PID.TID 0000.0001)     ;
(PID.TID 0000.0001) externForcingCycle =   /* period of the cyle (s). */
(PID.TID 0000.0001)                 0.000000000000000E+00
(PID.TID 0000.0001)     ;
(PID.TID 0000.0001) tauThetaClimRelax =   /* relaxation time scale (s) */
(PID.TID 0000.0001)                 0.000000000000000E+00
(PID.TID 0000.0001)     ;
(PID.TID 0000.0001) tauSaltClimRelax =   /* relaxation time scale (s) */
(PID.TID 0000.0001)                 0.000000000000000E+00
(PID.TID 0000.0001)     ;
(PID.TID 0000.0001) latBandClimRelax =   /* max. Lat. where relaxation */
(PID.TID 0000.0001)                 1.800000000000000E+02
(PID.TID 0000.0001)     ;
(PID.TID 0000.0001) //
(PID.TID 0000.0001) // Gridding paramters ( PARM04 in namelist )
(PID.TID 0000.0001) //
(PID.TID 0000.0001) usingCartesianGrid = /* Cartesian coordinates flag ( True/False ) */
(PID.TID 0000.0001)                   F
(PID.TID 0000.0001)     ;
(PID.TID 0000.0001) usingCylindricalGrid = /* Cylindrical coordinates flag ( True/False ) */
(PID.TID 0000.0001)                   F
(PID.TID 0000.0001)     ;
(PID.TID 0000.0001) usingSphericalPolarGrid = /* Spherical coordinates flag ( True/False ) */
(PID.TID 0000.0001)                   F
(PID.TID 0000.0001)     ;
(PID.TID 0000.0001) usingCurvilinearGrid = /* Curvilinear coordinates flag ( True/False ) */
(PID.TID 0000.0001)                   T
(PID.TID 0000.0001)     ;
(PID.TID 0000.0001) Ro_SeaLevel = /* r(1) ( units of r == Pa ) */
(PID.TID 0000.0001)                 1.000000000000000E+05
(PID.TID 0000.0001)     ;
(PID.TID 0000.0001) rkSign =   /* index orientation relative to vertical coordinate */
(PID.TID 0000.0001)                -1.000000000000000E+00
(PID.TID 0000.0001)     ;
(PID.TID 0000.0001) gravitySign = /* gravity orientation relative to vertical coordinate */
(PID.TID 0000.0001)                 1.000000000000000E+00
(PID.TID 0000.0001)     ;
(PID.TID 0000.0001) mass2rUnit = /* convert mass per unit area [kg/m2] to r-units [Pa] */
(PID.TID 0000.0001)                 9.810000000000000E+00
(PID.TID 0000.0001)     ;
(PID.TID 0000.0001) rUnit2mass = /* convert r-units [Pa] to mass per unit area [kg/m2] */
(PID.TID 0000.0001)                 1.019367991845056E-01
(PID.TID 0000.0001)     ;
(PID.TID 0000.0001) drC =   /* C spacing ( units of r ) */
(PID.TID 0000.0001)                 5.000000000000000E+03,      /* K =  1 */
(PID.TID 0000.0001)                 1.750000000000000E+04,      /* K =  2 */
(PID.TID 0000.0001)                 2.750000000000000E+04,      /* K =  3 */
(PID.TID 0000.0001)                 2.500000000000000E+04,      /* K =  4 */
(PID.TID 0000.0001)                 1.750000000000000E+04       /* K =  5 */
(PID.TID 0000.0001)     ;
(PID.TID 0000.0001) drF =   /* W spacing ( units of r ) */
(PID.TID 0000.0001)                 1.000000000000000E+04,      /* K =  1 */
(PID.TID 0000.0001)                 2.500000000000000E+04,      /* K =  2 */
(PID.TID 0000.0001)                 3.000000000000000E+04,      /* K =  3 */
(PID.TID 0000.0001)                 2.000000000000000E+04,      /* K =  4 */
(PID.TID 0000.0001)                 1.500000000000000E+04       /* K =  5 */
(PID.TID 0000.0001)     ;
(PID.TID 0000.0001) xgOrigin = /* X-axis origin of West  edge (cartesian: m, lat-lon: deg.) */
(PID.TID 0000.0001)                 0.000000000000000E+00
(PID.TID 0000.0001)     ;
(PID.TID 0000.0001) ygOrigin = /* Y-axis origin of South edge (cartesian: m, lat-lon: deg.) */
(PID.TID 0000.0001)                 0.000000000000000E+00
(PID.TID 0000.0001)     ;
(PID.TID 0000.0001) rSphere =  /* Radius ( ignored - cartesian, m - spherical ) */
(PID.TID 0000.0001)                 6.370000000000000E+06
(PID.TID 0000.0001)     ;
(PID.TID 0000.0001) deepAtmosphere = /* Deep/Shallow Atmosphere flag (True/False) */
(PID.TID 0000.0001)                   F
(PID.TID 0000.0001)     ;
(PID.TID 0000.0001) xC =  /* xC(:,1,:,1) : P-point X coord ( deg. or m if cartesian) */
(PID.TID 0000.0001)                -4.439521994760536E+01,      /* I =  1 */
(PID.TID 0000.0001)                -4.295641272275883E+01,      /* I =  2 */
(PID.TID 0000.0001)                -4.122055553388957E+01,      /* I =  3 */
(PID.TID 0000.0001)      . . .
(PID.TID 0000.0001)                 8.070819219728060E+01,      /* I = 46 */
(PID.TID 0000.0001)                 8.439652466417766E+01,      /* I = 47 */
(PID.TID 0000.0001)                 8.812739148696656E+01,      /* I = 48 */
(PID.TID 0000.0001)                 9.187260851303344E+01,      /* I = 49 */
(PID.TID 0000.0001)                 9.560347533582234E+01,      /* I = 50 */
(PID.TID 0000.0001)                 9.929180780271940E+01,      /* I = 51 */
(PID.TID 0000.0001)      . . .
(PID.TID 0000.0001)                 1.321863035748696E+02,      /* I = 94 */
(PID.TID 0000.0001)                 1.337919453120370E+02,      /* I = 95 */
(PID.TID 0000.0001)                 1.350000000000000E+02,      /* I = 96 */
(PID.TID 0000.0001)                 1.356047800523947E+02,      /* I = 97 */
(PID.TID 0000.0001)                 1.358367907661329E+02,      /* I = 98 */
(PID.TID 0000.0001)                 1.359720382181193E+02,      /* I = 99 */
(PID.TID 0000.0001)      . . .
(PID.TID 0000.0001)                -1.336511021209287E+02,      /* I =142 */
(PID.TID 0000.0001)                -1.336469399409420E+02,      /* I =143 */
(PID.TID 0000.0001)                -1.336449032499283E+02,      /* I =144 */
(PID.TID 0000.0001)                -1.336449032499283E+02,      /* I =145 */
(PID.TID 0000.0001)                -1.336469399409420E+02,      /* I =146 */
(PID.TID 0000.0001)                -1.336511021209287E+02,      /* I =147 */
(PID.TID 0000.0001)      . . .
(PID.TID 0000.0001)                 1.378136964251304E+02,      /* I =190 */
(PID.TID 0000.0001)                 1.362080546879630E+02,      /* I =191 */
(PID.TID 0000.0001)                 1.350000000000000E+02       /* I =192 */
(PID.TID 0000.0001)     ;
(PID.TID 0000.0001) yC =  /* yC(1,:,1,:) : P-point Y coord ( deg. or m if cartesian) */
(PID.TID 0000.0001)                -3.497677942598243E+01,      /* J =  1 */
(PID.TID 0000.0001)                -3.374005967394886E+01,      /* J =  2 */
(PID.TID 0000.0001)                -3.220655175667454E+01,      /* J =  3 */
(PID.TID 0000.0001)                -3.045756348838641E+01,      /* J =  4 */
(PID.TID 0000.0001)                -2.853728129852918E+01,      /* J =  5 */
(PID.TID 0000.0001)                -2.647426640173173E+01,      /* J =  6 */
(PID.TID 0000.0001)                -2.428936657094636E+01,      /* J =  7 */
(PID.TID 0000.0001)                -2.199915808312262E+01,      /* J =  8 */
(PID.TID 0000.0001)                -1.961768597440146E+01,      /* J =  9 */
(PID.TID 0000.0001)                -1.715743888281371E+01,      /* J = 10 */
(PID.TID 0000.0001)                -1.462993396899330E+01,      /* J = 11 */
(PID.TID 0000.0001)                -1.204608340464756E+01,      /* J = 12 */
(PID.TID 0000.0001)                -9.416429130284818E+00,      /* J = 13 */
(PID.TID 0000.0001)                -6.751293662992216E+00,      /* J = 14 */
(PID.TID 0000.0001)                -4.060875511835959E+00,      /* J = 15 */
(PID.TID 0000.0001)                -1.355307764409121E+00,      /* J = 16 */
(PID.TID 0000.0001)                 1.355307764409121E+00,      /* J = 17 */
(PID.TID 0000.0001)                 4.060875511835959E+00,      /* J = 18 */
(PID.TID 0000.0001)                 6.751293662992216E+00,      /* J = 19 */
(PID.TID 0000.0001)                 9.416429130284818E+00,      /* J = 20 */
(PID.TID 0000.0001)                 1.204608340464756E+01,      /* J = 21 */
(PID.TID 0000.0001)                 1.462993396899330E+01,      /* J = 22 */
(PID.TID 0000.0001)                 1.715743888281371E+01,      /* J = 23 */
(PID.TID 0000.0001)                 1.961768597440146E+01,      /* J = 24 */
(PID.TID 0000.0001)                 2.199915808312262E+01,      /* J = 25 */
(PID.TID 0000.0001)                 2.428936657094636E+01,      /* J = 26 */
(PID.TID 0000.0001)                 2.647426640173173E+01,      /* J = 27 */
(PID.TID 0000.0001)                 2.853728129852918E+01,      /* J = 28 */
(PID.TID 0000.0001)                 3.045756348838641E+01,      /* J = 29 */
(PID.TID 0000.0001)                 3.220655175667454E+01,      /* J = 30 */
(PID.TID 0000.0001)                 3.374005967394886E+01,      /* J = 31 */
(PID.TID 0000.0001)                 3.497677942598243E+01       /* J = 32 */
(PID.TID 0000.0001)     ;
(PID.TID 0000.0001) rcoord = /* P-point R coordinate (  units of r ) */
(PID.TID 0000.0001)                 9.500000000000000E+04,      /* K =  1 */
(PID.TID 0000.0001)                 7.750000000000000E+04,      /* K =  2 */
(PID.TID 0000.0001)                 5.000000000000000E+04,      /* K =  3 */
(PID.TID 0000.0001)                 2.500000000000000E+04,      /* K =  4 */
(PID.TID 0000.0001)                 7.500000000000000E+03       /* K =  5 */
(PID.TID 0000.0001)     ;
(PID.TID 0000.0001) rF =   /* W-Interf. R coordinate (  units of r ) */
(PID.TID 0000.0001)                 1.000000000000000E+05,      /* K =  1 */
(PID.TID 0000.0001)                 9.000000000000000E+04,      /* K =  2 */
(PID.TID 0000.0001)                 6.500000000000000E+04,      /* K =  3 */
(PID.TID 0000.0001)                 3.500000000000000E+04,      /* K =  4 */
(PID.TID 0000.0001)                 1.500000000000000E+04,      /* K =  5 */
(PID.TID 0000.0001)                 0.000000000000000E+00       /* K =  6 */
(PID.TID 0000.0001)     ;
(PID.TID 0000.0001) deepFacC = /* deep-model grid factor @ cell-Center (-) */
(PID.TID 0000.0001)     5 @  1.000000000000000E+00              /* K =  1:  5 */
(PID.TID 0000.0001)     ;
(PID.TID 0000.0001) deepFacF = /* deep-model grid factor @ W-Interface (-) */
(PID.TID 0000.0001)     6 @  1.000000000000000E+00              /* K =  1:  6 */
(PID.TID 0000.0001)     ;
(PID.TID 0000.0001) rVel2wUnit = /* convert units: rVel -> wSpeed (=1 if z-coord)*/
(PID.TID 0000.0001)                 8.468280180573759E-02,      /* K =  1 */
(PID.TID 0000.0001)                 9.264164924838553E-02,      /* K =  2 */
(PID.TID 0000.0001)                 1.218363765768670E-01,      /* K =  3 */
(PID.TID 0000.0001)                 2.012547327065781E-01,      /* K =  4 */
(PID.TID 0000.0001)                 4.382932217562046E-01,      /* K =  5 */
(PID.TID 0000.0001)                 1.000000000000000E+00       /* K =  6 */
(PID.TID 0000.0001)     ;
(PID.TID 0000.0001) wUnit2rVel = /* convert units: wSpeed -> rVel (=1 if z-coord)*/
(PID.TID 0000.0001)                 1.180877319451476E+01,      /* K =  1 */
(PID.TID 0000.0001)                 1.079428106162982E+01,      /* K =  2 */
(PID.TID 0000.0001)                 8.207729317763288E+00,      /* K =  3 */
(PID.TID 0000.0001)                 4.968827249682435E+00,      /* K =  4 */
(PID.TID 0000.0001)                 2.281577606865748E+00,      /* K =  5 */
(PID.TID 0000.0001)                 1.000000000000000E+00       /* K =  6 */
(PID.TID 0000.0001)     ;
(PID.TID 0000.0001) dBdrRef = /* Vertical gradient of reference boyancy [(m/s/r)^2)] */
(PID.TID 0000.0001)                 0.000000000000000E+00,      /* K =  1 */
(PID.TID 0000.0001)                 1.551846956946958E-06,      /* K =  2 */
(PID.TID 0000.0001)                 2.382518577942705E-06,      /* K =  3 */
(PID.TID 0000.0001)                 5.042981208886097E-06,      /* K =  4 */
(PID.TID 0000.0001)                 6.524166098263503E-05       /* K =  5 */
(PID.TID 0000.0001)     ;
(PID.TID 0000.0001) rotateGrid = /* use rotated grid ( True/False ) */
(PID.TID 0000.0001)                   F
(PID.TID 0000.0001)     ;
(PID.TID 0000.0001) phiEuler = /* Euler angle, rotation about original z-coordinate [rad] */
(PID.TID 0000.0001)                 0.000000000000000E+00
(PID.TID 0000.0001)     ;
(PID.TID 0000.0001) thetaEuler = /* Euler angle, rotation about new x-coordinate [rad] */
(PID.TID 0000.0001)                 0.000000000000000E+00
(PID.TID 0000.0001)     ;
(PID.TID 0000.0001) psiEuler = /* Euler angle, rotation about new z-coordinate [rad] */
(PID.TID 0000.0001)                 0.000000000000000E+00
(PID.TID 0000.0001)     ;
(PID.TID 0000.0001) dxF =  /* dxF(:,1,:,1) ( units: m ) */
(PID.TID 0000.0001)                 1.202082051331828E+05,      /* I =  1 */
(PID.TID 0000.0001)                 1.563594089971120E+05,      /* I =  2 */
(PID.TID 0000.0001)                 1.835530058121492E+05,      /* I =  3 */
(PID.TID 0000.0001)      . . .
(PID.TID 0000.0001)                 2.978501920522794E+05,      /* I = 46 */
(PID.TID 0000.0001)                 3.000967749619962E+05,      /* I = 47 */
(PID.TID 0000.0001)                 3.012190981969055E+05,      /* I = 48 */
(PID.TID 0000.0001)                 3.012190981969055E+05,      /* I = 49 */
(PID.TID 0000.0001)                 3.000967749619962E+05,      /* I = 50 */
(PID.TID 0000.0001)                 2.978501920522794E+05,      /* I = 51 */
(PID.TID 0000.0001)      . . .
(PID.TID 0000.0001)                 1.835530058121492E+05,      /* I = 94 */
(PID.TID 0000.0001)                 1.563594089971120E+05,      /* I = 95 */
(PID.TID 0000.0001)                 1.202082051331828E+05,      /* I = 96 */
(PID.TID 0000.0001)                 1.202082051331828E+05,      /* I = 97 */
(PID.TID 0000.0001)                 1.563594089971120E+05,      /* I = 98 */
(PID.TID 0000.0001)                 1.835530058121492E+05,      /* I = 99 */
(PID.TID 0000.0001)      . . .
(PID.TID 0000.0001)                 2.978501920522794E+05,      /* I =142 */
(PID.TID 0000.0001)                 3.000967749619962E+05,      /* I =143 */
(PID.TID 0000.0001)                 3.012190981969055E+05,      /* I =144 */
(PID.TID 0000.0001)                 3.012190981969055E+05,      /* I =145 */
(PID.TID 0000.0001)                 3.000967749619962E+05,      /* I =146 */
(PID.TID 0000.0001)                 2.978501920522794E+05,      /* I =147 */
(PID.TID 0000.0001)      . . .
(PID.TID 0000.0001)                 1.835530058121492E+05,      /* I =190 */
(PID.TID 0000.0001)                 1.563594089971120E+05,      /* I =191 */
(PID.TID 0000.0001)                 1.202082051331828E+05       /* I =192 */
(PID.TID 0000.0001)     ;
(PID.TID 0000.0001) dxF =  /* dxF(1,:,1,:) ( units: m ) */
(PID.TID 0000.0001)                 1.202082051331828E+05,      /* J =  1 */
(PID.TID 0000.0001)                 1.572908084538706E+05,      /* J =  2 */
(PID.TID 0000.0001)                 1.840412227747703E+05,      /* J =  3 */
(PID.TID 0000.0001)                 2.048868197919576E+05,      /* J =  4 */
(PID.TID 0000.0001)                 2.220405216043041E+05,      /* J =  5 */
(PID.TID 0000.0001)                 2.365892017348392E+05,      /* J =  6 */
(PID.TID 0000.0001)                 2.491250781852558E+05,      /* J =  7 */
(PID.TID 0000.0001)                 2.599949918261881E+05,      /* J =  8 */
(PID.TID 0000.0001)                 2.694110134598581E+05,      /* J =  9 */
(PID.TID 0000.0001)                 2.775055554645015E+05,      /* J = 10 */
(PID.TID 0000.0001)                 2.843615645344775E+05,      /* J = 11 */
(PID.TID 0000.0001)                 2.900303768613599E+05,      /* J = 12 */
(PID.TID 0000.0001)                 2.945429307892709E+05,      /* J = 13 */
(PID.TID 0000.0001)                 2.979171143158405E+05,      /* J = 14 */
(PID.TID 0000.0001)                 3.001626787528886E+05,      /* J = 15 */
(PID.TID 0000.0001)     2 @  3.012844832048790E+05,             /* J = 16: 17 */
(PID.TID 0000.0001)                 3.001626787528886E+05,      /* J = 18 */
(PID.TID 0000.0001)                 2.979171143158405E+05,      /* J = 19 */
(PID.TID 0000.0001)                 2.945429307892709E+05,      /* J = 20 */
(PID.TID 0000.0001)                 2.900303768613599E+05,      /* J = 21 */
(PID.TID 0000.0001)                 2.843615645344775E+05,      /* J = 22 */
(PID.TID 0000.0001)                 2.775055554645015E+05,      /* J = 23 */
(PID.TID 0000.0001)                 2.694110134598581E+05,      /* J = 24 */
(PID.TID 0000.0001)                 2.599949918261881E+05,      /* J = 25 */
(PID.TID 0000.0001)                 2.491250781852558E+05,      /* J = 26 */
(PID.TID 0000.0001)                 2.365892017348392E+05,      /* J = 27 */
(PID.TID 0000.0001)                 2.220405216043041E+05,      /* J = 28 */
(PID.TID 0000.0001)                 2.048868197919576E+05,      /* J = 29 */
(PID.TID 0000.0001)                 1.840412227747703E+05,      /* J = 30 */
(PID.TID 0000.0001)                 1.572908084538706E+05,      /* J = 31 */
(PID.TID 0000.0001)                 1.202082051331828E+05       /* J = 32 */
(PID.TID 0000.0001)     ;
(PID.TID 0000.0001) dyF =  /* dyF(:,1,:,1) ( units: m ) */
(PID.TID 0000.0001)                 1.202082051331828E+05,      /* I =  1 */
(PID.TID 0000.0001)                 1.572908084538706E+05,      /* I =  2 */
(PID.TID 0000.0001)                 1.840412227747703E+05,      /* I =  3 */
(PID.TID 0000.0001)      . . .
(PID.TID 0000.0001)                 2.979171143158405E+05,      /* I = 46 */
(PID.TID 0000.0001)                 3.001626787528886E+05,      /* I = 47 */
(PID.TID 0000.0001)                 3.012844832048790E+05,      /* I = 48 */
(PID.TID 0000.0001)                 3.012844832048790E+05,      /* I = 49 */
(PID.TID 0000.0001)                 3.001626787528886E+05,      /* I = 50 */
(PID.TID 0000.0001)                 2.979171143158405E+05,      /* I = 51 */
(PID.TID 0000.0001)      . . .
(PID.TID 0000.0001)                 1.840412227747703E+05,      /* I = 94 */
(PID.TID 0000.0001)                 1.572908084538706E+05,      /* I = 95 */
(PID.TID 0000.0001)                 1.202082051331828E+05,      /* I = 96 */
(PID.TID 0000.0001)                 1.202082051331828E+05,      /* I = 97 */
(PID.TID 0000.0001)                 1.572908084538706E+05,      /* I = 98 */
(PID.TID 0000.0001)                 1.840412227747703E+05,      /* I = 99 */
(PID.TID 0000.0001)      . . .
(PID.TID 0000.0001)                 2.979171143158405E+05,      /* I =142 */
(PID.TID 0000.0001)                 3.001626787528886E+05,      /* I =143 */
(PID.TID 0000.0001)                 3.012844832048790E+05,      /* I =144 */
(PID.TID 0000.0001)                 3.012844832048790E+05,      /* I =145 */
(PID.TID 0000.0001)                 3.001626787528886E+05,      /* I =146 */
(PID.TID 0000.0001)                 2.979171143158405E+05,      /* I =147 */
(PID.TID 0000.0001)      . . .
(PID.TID 0000.0001)                 1.840412227747703E+05,      /* I =190 */
(PID.TID 0000.0001)                 1.572908084538706E+05,      /* I =191 */
(PID.TID 0000.0001)                 1.202082051331828E+05       /* I =192 */
(PID.TID 0000.0001)     ;
(PID.TID 0000.0001) dyF =  /* dyF(1,:,1,:) ( units: m ) */
(PID.TID 0000.0001)                 1.202082051331828E+05,      /* J =  1 */
(PID.TID 0000.0001)                 1.563594089971120E+05,      /* J =  2 */
(PID.TID 0000.0001)                 1.835530058121492E+05,      /* J =  3 */
(PID.TID 0000.0001)                 2.045883481718707E+05,      /* J =  4 */
(PID.TID 0000.0001)                 2.218350349844185E+05,      /* J =  5 */
(PID.TID 0000.0001)                 2.364352994647058E+05,      /* J =  6 */
(PID.TID 0000.0001)                 2.490022710862746E+05,      /* J =  7 */
(PID.TID 0000.0001)                 2.598919724358304E+05,      /* J =  8 */
(PID.TID 0000.0001)                 2.693210245495156E+05,      /* J =  9 */
(PID.TID 0000.0001)                 2.774243179696503E+05,      /* J = 10 */
(PID.TID 0000.0001)                 2.842862532064524E+05,      /* J = 11 */
(PID.TID 0000.0001)                 2.899590699694043E+05,      /* J = 12 */
(PID.TID 0000.0001)                 2.944742915095688E+05,      /* J = 13 */
(PID.TID 0000.0001)                 2.978501920522794E+05,      /* J = 14 */
(PID.TID 0000.0001)                 3.000967749619962E+05,      /* J = 15 */
(PID.TID 0000.0001)     2 @  3.012190981969055E+05,             /* J = 16: 17 */
(PID.TID 0000.0001)                 3.000967749619962E+05,      /* J = 18 */
(PID.TID 0000.0001)                 2.978501920522794E+05,      /* J = 19 */
(PID.TID 0000.0001)                 2.944742915095688E+05,      /* J = 20 */
(PID.TID 0000.0001)                 2.899590699694043E+05,      /* J = 21 */
(PID.TID 0000.0001)                 2.842862532064524E+05,      /* J = 22 */
(PID.TID 0000.0001)                 2.774243179696503E+05,      /* J = 23 */
(PID.TID 0000.0001)                 2.693210245495156E+05,      /* J = 24 */
(PID.TID 0000.0001)                 2.598919724358304E+05,      /* J = 25 */
(PID.TID 0000.0001)                 2.490022710862746E+05,      /* J = 26 */
(PID.TID 0000.0001)                 2.364352994647058E+05,      /* J = 27 */
(PID.TID 0000.0001)                 2.218350349844185E+05,      /* J = 28 */
(PID.TID 0000.0001)                 2.045883481718707E+05,      /* J = 29 */
(PID.TID 0000.0001)                 1.835530058121492E+05,      /* J = 30 */
(PID.TID 0000.0001)                 1.563594089971120E+05,      /* J = 31 */
(PID.TID 0000.0001)                 1.202082051331828E+05       /* J = 32 */
(PID.TID 0000.0001)     ;
(PID.TID 0000.0001) dxG =  /* dxG(:,1,:,1) ( units: m ) */
(PID.TID 0000.0001)                 1.009837800879055E+05,      /* I =  1 */
(PID.TID 0000.0001)                 1.534505834330338E+05,      /* I =  2 */
(PID.TID 0000.0001)                 1.823321598773926E+05,      /* I =  3 */
(PID.TID 0000.0001)      . . .
(PID.TID 0000.0001)                 2.977867909042096E+05,      /* I = 46 */
(PID.TID 0000.0001)                 3.000380090330854E+05,      /* I = 47 */
(PID.TID 0000.0001)                 3.011625828699101E+05,      /* I = 48 */
(PID.TID 0000.0001)                 3.011625828699101E+05,      /* I = 49 */
(PID.TID 0000.0001)                 3.000380090330854E+05,      /* I = 50 */
(PID.TID 0000.0001)                 2.977867909042096E+05,      /* I = 51 */
(PID.TID 0000.0001)      . . .
(PID.TID 0000.0001)                 1.823321598773926E+05,      /* I = 94 */
(PID.TID 0000.0001)                 1.534505834330338E+05,      /* I = 95 */
(PID.TID 0000.0001)                 1.009837800879055E+05,      /* I = 96 */
(PID.TID 0000.0001)                 1.009837800879055E+05,      /* I = 97 */
(PID.TID 0000.0001)                 1.534505834330338E+05,      /* I = 98 */
(PID.TID 0000.0001)                 1.823321598773926E+05,      /* I = 99 */
(PID.TID 0000.0001)      . . .
(PID.TID 0000.0001)                 2.977867909042096E+05,      /* I =142 */
(PID.TID 0000.0001)                 3.000380090330854E+05,      /* I =143 */
(PID.TID 0000.0001)                 3.011625828699101E+05,      /* I =144 */
(PID.TID 0000.0001)                 3.011625828699101E+05,      /* I =145 */
(PID.TID 0000.0001)                 3.000380090330854E+05,      /* I =146 */
(PID.TID 0000.0001)                 2.977867909042096E+05,      /* I =147 */
(PID.TID 0000.0001)      . . .
(PID.TID 0000.0001)                 1.823321598773926E+05,      /* I =190 */
(PID.TID 0000.0001)                 1.534505834330338E+05,      /* I =191 */
(PID.TID 0000.0001)                 1.009837800879055E+05       /* I =192 */
(PID.TID 0000.0001)     ;
(PID.TID 0000.0001) dxG =  /* dxG(1,:,1,:) ( units: m ) */
(PID.TID 0000.0001)                 1.009837800879055E+05,      /* J =  1 */
(PID.TID 0000.0001)                 1.403701524205398E+05,      /* J =  2 */
(PID.TID 0000.0001)                 1.716197227386011E+05,      /* J =  3 */
(PID.TID 0000.0001)                 1.950254041626018E+05,      /* J =  4 */
(PID.TID 0000.0001)                 2.138410773065497E+05,      /* J =  5 */
(PID.TID 0000.0001)                 2.295958105911512E+05,      /* J =  6 */
(PID.TID 0000.0001)                 2.430829951739083E+05,      /* J =  7 */
(PID.TID 0000.0001)                 2.547526806712889E+05,      /* J =  8 */
(PID.TID 0000.0001)                 2.648750305193301E+05,      /* J =  9 */
(PID.TID 0000.0001)                 2.736173771018112E+05,      /* J = 10 */
(PID.TID 0000.0001)                 2.810845823202647E+05,      /* J = 11 */
(PID.TID 0000.0001)                 2.873420591008078E+05,      /* J = 12 */
(PID.TID 0000.0001)                 2.924298293668651E+05,      /* J = 13 */
(PID.TID 0000.0001)                 2.963715635865306E+05,      /* J = 14 */
(PID.TID 0000.0001)                 2.991805843171258E+05,      /* J = 15 */
(PID.TID 0000.0001)                 3.008638765647886E+05,      /* J = 16 */
(PID.TID 0000.0001)                 3.014246674484008E+05,      /* J = 17 */
(PID.TID 0000.0001)                 3.008638765647886E+05,      /* J = 18 */
(PID.TID 0000.0001)                 2.991805843171258E+05,      /* J = 19 */
(PID.TID 0000.0001)                 2.963715635865306E+05,      /* J = 20 */
(PID.TID 0000.0001)                 2.924298293668651E+05,      /* J = 21 */
(PID.TID 0000.0001)                 2.873420591008078E+05,      /* J = 22 */
(PID.TID 0000.0001)                 2.810845823202647E+05,      /* J = 23 */
(PID.TID 0000.0001)                 2.736173771018112E+05,      /* J = 24 */
(PID.TID 0000.0001)                 2.648750305193301E+05,      /* J = 25 */
(PID.TID 0000.0001)                 2.547526806712889E+05,      /* J = 26 */
(PID.TID 0000.0001)                 2.430829951739083E+05,      /* J = 27 */
(PID.TID 0000.0001)                 2.295958105911512E+05,      /* J = 28 */
(PID.TID 0000.0001)                 2.138410773065497E+05,      /* J = 29 */
(PID.TID 0000.0001)                 1.950254041626018E+05,      /* J = 30 */
(PID.TID 0000.0001)                 1.716197227386011E+05,      /* J = 31 */
(PID.TID 0000.0001)                 1.403701524205398E+05       /* J = 32 */
(PID.TID 0000.0001)     ;
(PID.TID 0000.0001) dyG =  /* dyG(:,1,:,1) ( units: m ) */
(PID.TID 0000.0001)                 1.009837800879055E+05,      /* I =  1 */
(PID.TID 0000.0001)                 1.403701524205398E+05,      /* I =  2 */
(PID.TID 0000.0001)                 1.716197227386011E+05,      /* I =  3 */
(PID.TID 0000.0001)      . . .
(PID.TID 0000.0001)                 2.963715635865306E+05,      /* I = 46 */
(PID.TID 0000.0001)                 2.991805843171258E+05,      /* I = 47 */
(PID.TID 0000.0001)                 3.008638765647886E+05,      /* I = 48 */
(PID.TID 0000.0001)                 3.014246674484008E+05,      /* I = 49 */
(PID.TID 0000.0001)                 3.008638765647886E+05,      /* I = 50 */
(PID.TID 0000.0001)                 2.991805843171258E+05,      /* I = 51 */
(PID.TID 0000.0001)      . . .
(PID.TID 0000.0001)                 1.950254041626018E+05,      /* I = 94 */
(PID.TID 0000.0001)                 1.716197227386011E+05,      /* I = 95 */
(PID.TID 0000.0001)                 1.403701524205398E+05,      /* I = 96 */
(PID.TID 0000.0001)                 1.009837800879055E+05,      /* I = 97 */
(PID.TID 0000.0001)                 1.403701524205398E+05,      /* I = 98 */
(PID.TID 0000.0001)                 1.716197227386011E+05,      /* I = 99 */
(PID.TID 0000.0001)      . . .
(PID.TID 0000.0001)                 2.963715635865306E+05,      /* I =142 */
(PID.TID 0000.0001)                 2.991805843171258E+05,      /* I =143 */
(PID.TID 0000.0001)                 3.008638765647886E+05,      /* I =144 */
(PID.TID 0000.0001)                 3.014246674484008E+05,      /* I =145 */
(PID.TID 0000.0001)                 3.008638765647886E+05,      /* I =146 */
(PID.TID 0000.0001)                 2.991805843171258E+05,      /* I =147 */
(PID.TID 0000.0001)      . . .
(PID.TID 0000.0001)                 1.950254041626018E+05,      /* I =190 */
(PID.TID 0000.0001)                 1.716197227386011E+05,      /* I =191 */
(PID.TID 0000.0001)                 1.403701524205398E+05       /* I =192 */
(PID.TID 0000.0001)     ;
(PID.TID 0000.0001) dyG =  /* dyG(1,:,1,:) ( units: m ) */
(PID.TID 0000.0001)                 1.009837800879055E+05,      /* J =  1 */
(PID.TID 0000.0001)                 1.534505834330338E+05,      /* J =  2 */
(PID.TID 0000.0001)                 1.823321598773926E+05,      /* J =  3 */
(PID.TID 0000.0001)                 2.038999045536999E+05,      /* J =  4 */
(PID.TID 0000.0001)                 2.213884732245467E+05,      /* J =  5 */
(PID.TID 0000.0001)                 2.361211699596122E+05,      /* J =  6 */
(PID.TID 0000.0001)                 2.487693460283865E+05,      /* J =  7 */
(PID.TID 0000.0001)                 2.597126963772147E+05,      /* J =  8 */
(PID.TID 0000.0001)                 2.691790288994575E+05,      /* J =  9 */
(PID.TID 0000.0001)                 2.773091043277394E+05,      /* J = 10 */
(PID.TID 0000.0001)                 2.841906470085516E+05,      /* J = 11 */
(PID.TID 0000.0001)                 2.898778860929753E+05,      /* J = 12 */
(PID.TID 0000.0001)                 2.944035815526416E+05,      /* J = 13 */
(PID.TID 0000.0001)                 2.977867909042096E+05,      /* J = 14 */
(PID.TID 0000.0001)                 3.000380090330854E+05,      /* J = 15 */
(PID.TID 0000.0001)     2 @  3.011625828699101E+05,             /* J = 16: 17 */
(PID.TID 0000.0001)                 3.000380090330854E+05,      /* J = 18 */
(PID.TID 0000.0001)                 2.977867909042096E+05,      /* J = 19 */
(PID.TID 0000.0001)                 2.944035815526416E+05,      /* J = 20 */
(PID.TID 0000.0001)                 2.898778860929753E+05,      /* J = 21 */
(PID.TID 0000.0001)                 2.841906470085516E+05,      /* J = 22 */
(PID.TID 0000.0001)                 2.773091043277394E+05,      /* J = 23 */
(PID.TID 0000.0001)                 2.691790288994575E+05,      /* J = 24 */
(PID.TID 0000.0001)                 2.597126963772147E+05,      /* J = 25 */
(PID.TID 0000.0001)                 2.487693460283865E+05,      /* J = 26 */
(PID.TID 0000.0001)                 2.361211699596122E+05,      /* J = 27 */
(PID.TID 0000.0001)                 2.213884732245467E+05,      /* J = 28 */
(PID.TID 0000.0001)                 2.038999045536999E+05,      /* J = 29 */
(PID.TID 0000.0001)                 1.823321598773926E+05,      /* J = 30 */
(PID.TID 0000.0001)                 1.534505834330338E+05,      /* J = 31 */
(PID.TID 0000.0001)                 1.009837800879055E+05       /* J = 32 */
(PID.TID 0000.0001)     ;
(PID.TID 0000.0001) dxC =  /* dxC(:,1,:,1) ( units: m ) */
(PID.TID 0000.0001)                 1.135373000692312E+05,      /* I =  1 */
(PID.TID 0000.0001)                 1.391343389937106E+05,      /* I =  2 */
(PID.TID 0000.0001)                 1.709574999026266E+05,      /* I =  3 */
(PID.TID 0000.0001)      . . .
(PID.TID 0000.0001)                 2.963038832565530E+05,      /* I = 46 */
(PID.TID 0000.0001)                 2.991142470004740E+05,      /* I = 47 */
(PID.TID 0000.0001)                 3.007982711627968E+05,      /* I = 48 */
(PID.TID 0000.0001)                 3.013593857228136E+05,      /* I = 49 */
(PID.TID 0000.0001)                 3.007982711627968E+05,      /* I = 50 */
(PID.TID 0000.0001)                 2.991142470004740E+05,      /* I = 51 */
(PID.TID 0000.0001)      . . .
(PID.TID 0000.0001)                 1.946503699269892E+05,      /* I = 94 */
(PID.TID 0000.0001)                 1.709574999026266E+05,      /* I = 95 */
(PID.TID 0000.0001)                 1.391343389937106E+05,      /* I = 96 */
(PID.TID 0000.0001)                 1.135373000692312E+05,      /* I = 97 */
(PID.TID 0000.0001)                 1.391343389937106E+05,      /* I = 98 */
(PID.TID 0000.0001)                 1.709574999026266E+05,      /* I = 99 */
(PID.TID 0000.0001)      . . .
(PID.TID 0000.0001)                 2.963038832565530E+05,      /* I =142 */
(PID.TID 0000.0001)                 2.991142470004740E+05,      /* I =143 */
(PID.TID 0000.0001)                 3.007982711627968E+05,      /* I =144 */
(PID.TID 0000.0001)                 3.013593857228136E+05,      /* I =145 */
(PID.TID 0000.0001)                 3.007982711627968E+05,      /* I =146 */
(PID.TID 0000.0001)                 2.991142470004740E+05,      /* I =147 */
(PID.TID 0000.0001)      . . .
(PID.TID 0000.0001)                 1.946503699269892E+05,      /* I =190 */
(PID.TID 0000.0001)                 1.709574999026266E+05,      /* I =191 */
(PID.TID 0000.0001)                 1.391343389937106E+05       /* I =192 */
(PID.TID 0000.0001)     ;
(PID.TID 0000.0001) dxC =  /* dxC(1,:,1,:) ( units: m ) */
(PID.TID 0000.0001)                 1.135373000692312E+05,      /* J =  1 */
(PID.TID 0000.0001)                 1.549545757850771E+05,      /* J =  2 */
(PID.TID 0000.0001)                 1.829777599966776E+05,      /* J =  3 */
(PID.TID 0000.0001)                 2.042717761866506E+05,      /* J =  4 */
(PID.TID 0000.0001)                 2.216367828252819E+05,      /* J =  5 */
(PID.TID 0000.0001)                 2.363029564123586E+05,      /* J =  6 */
(PID.TID 0000.0001)                 2.489113743322025E+05,      /* J =  7 */
(PID.TID 0000.0001)                 2.598293319150326E+05,      /* J =  8 */
(PID.TID 0000.0001)                 2.692787333338535E+05,      /* J =  9 */
(PID.TID 0000.0001)                 2.773972106720365E+05,      /* J = 10 */
(PID.TID 0000.0001)                 2.842706922224557E+05,      /* J = 11 */
(PID.TID 0000.0001)                 2.899523122489403E+05,      /* J = 12 */
(PID.TID 0000.0001)                 2.944741346384699E+05,      /* J = 13 */
(PID.TID 0000.0001)                 2.978547649292580E+05,      /* J = 14 */
(PID.TID 0000.0001)                 3.001044073506459E+05,      /* J = 15 */
(PID.TID 0000.0001)     2 @  3.012281885409289E+05,             /* J = 16: 17 */
(PID.TID 0000.0001)                 3.001044073506459E+05,      /* J = 18 */
(PID.TID 0000.0001)                 2.978547649292580E+05,      /* J = 19 */
(PID.TID 0000.0001)                 2.944741346384699E+05,      /* J = 20 */
(PID.TID 0000.0001)                 2.899523122489403E+05,      /* J = 21 */
(PID.TID 0000.0001)                 2.842706922224557E+05,      /* J = 22 */
(PID.TID 0000.0001)                 2.773972106720365E+05,      /* J = 23 */
(PID.TID 0000.0001)                 2.692787333338535E+05,      /* J = 24 */
(PID.TID 0000.0001)                 2.598293319150326E+05,      /* J = 25 */
(PID.TID 0000.0001)                 2.489113743322025E+05,      /* J = 26 */
(PID.TID 0000.0001)                 2.363029564123586E+05,      /* J = 27 */
(PID.TID 0000.0001)                 2.216367828252819E+05,      /* J = 28 */
(PID.TID 0000.0001)                 2.042717761866506E+05,      /* J = 29 */
(PID.TID 0000.0001)                 1.829777599966776E+05,      /* J = 30 */
(PID.TID 0000.0001)                 1.549545757850771E+05,      /* J = 31 */
(PID.TID 0000.0001)                 1.135373000692312E+05       /* J = 32 */
(PID.TID 0000.0001)     ;
(PID.TID 0000.0001) dyC =  /* dyC(:,1,:,1) ( units: m ) */
(PID.TID 0000.0001)                 1.135373000692312E+05,      /* I =  1 */
(PID.TID 0000.0001)                 1.549545757850771E+05,      /* I =  2 */
(PID.TID 0000.0001)                 1.829777599966776E+05,      /* I =  3 */
(PID.TID 0000.0001)      . . .
(PID.TID 0000.0001)                 2.978547649292580E+05,      /* I = 46 */
(PID.TID 0000.0001)                 3.001044073506459E+05,      /* I = 47 */
(PID.TID 0000.0001)                 3.012281885409289E+05,      /* I = 48 */
(PID.TID 0000.0001)                 3.012281885409289E+05,      /* I = 49 */
(PID.TID 0000.0001)                 3.001044073506459E+05,      /* I = 50 */
(PID.TID 0000.0001)                 2.978547649292580E+05,      /* I = 51 */
(PID.TID 0000.0001)      . . .
(PID.TID 0000.0001)                 1.829777599966776E+05,      /* I = 94 */
(PID.TID 0000.0001)                 1.549545757850771E+05,      /* I = 95 */
(PID.TID 0000.0001)                 1.135373000692312E+05,      /* I = 96 */
(PID.TID 0000.0001)                 1.135373000692312E+05,      /* I = 97 */
(PID.TID 0000.0001)                 1.549545757850771E+05,      /* I = 98 */
(PID.TID 0000.0001)                 1.829777599966776E+05,      /* I = 99 */
(PID.TID 0000.0001)      . . .
(PID.TID 0000.0001)                 2.978547649292580E+05,      /* I =142 */
(PID.TID 0000.0001)                 3.001044073506459E+05,      /* I =143 */
(PID.TID 0000.0001)                 3.012281885409289E+05,      /* I =144 */
(PID.TID 0000.0001)                 3.012281885409289E+05,      /* I =145 */
(PID.TID 0000.0001)                 3.001044073506459E+05,      /* I =146 */
(PID.TID 0000.0001)                 2.978547649292580E+05,      /* I =147 */
(PID.TID 0000.0001)      . . .
(PID.TID 0000.0001)                 1.829777599966776E+05,      /* I =190 */
(PID.TID 0000.0001)                 1.549545757850771E+05,      /* I =191 */
(PID.TID 0000.0001)                 1.135373000692312E+05       /* I =192 */
(PID.TID 0000.0001)     ;
(PID.TID 0000.0001) dyC =  /* dyC(1,:,1,:) ( units: m ) */
(PID.TID 0000.0001)                 1.135373000692312E+05,      /* J =  1 */
(PID.TID 0000.0001)                 1.391343389937106E+05,      /* J =  2 */
(PID.TID 0000.0001)                 1.709574999026266E+05,      /* J =  3 */
(PID.TID 0000.0001)                 1.946503699269892E+05,      /* J =  4 */
(PID.TID 0000.0001)                 2.135964483342134E+05,      /* J =  5 */
(PID.TID 0000.0001)                 2.294195678257306E+05,      /* J =  6 */
(PID.TID 0000.0001)                 2.429464709770498E+05,      /* J =  7 */
(PID.TID 0000.0001)                 2.546408290696998E+05,      /* J =  8 */
(PID.TID 0000.0001)                 2.647791839299727E+05,      /* J =  9 */
(PID.TID 0000.0001)                 2.735321911346108E+05,      /* J = 10 */
(PID.TID 0000.0001)                 2.810065951609633E+05,      /* J = 11 */
(PID.TID 0000.0001)                 2.872689479506990E+05,      /* J = 12 */
(PID.TID 0000.0001)                 2.923599955312932E+05,      /* J = 13 */
(PID.TID 0000.0001)                 2.963038832565530E+05,      /* J = 14 */
(PID.TID 0000.0001)                 2.991142470004740E+05,      /* J = 15 */
(PID.TID 0000.0001)                 3.007982711627968E+05,      /* J = 16 */
(PID.TID 0000.0001)                 3.013593857228136E+05,      /* J = 17 */
(PID.TID 0000.0001)                 3.007982711627968E+05,      /* J = 18 */
(PID.TID 0000.0001)                 2.991142470004740E+05,      /* J = 19 */
(PID.TID 0000.0001)                 2.963038832565530E+05,      /* J = 20 */
(PID.TID 0000.0001)                 2.923599955312932E+05,      /* J = 21 */
(PID.TID 0000.0001)                 2.872689479506990E+05,      /* J = 22 */
(PID.TID 0000.0001)                 2.810065951609633E+05,      /* J = 23 */
(PID.TID 0000.0001)                 2.735321911346108E+05,      /* J = 24 */
(PID.TID 0000.0001)                 2.647791839299727E+05,      /* J = 25 */
(PID.TID 0000.0001)                 2.546408290696998E+05,      /* J = 26 */
(PID.TID 0000.0001)                 2.429464709770498E+05,      /* J = 27 */
(PID.TID 0000.0001)                 2.294195678257306E+05,      /* J = 28 */
(PID.TID 0000.0001)                 2.135964483342134E+05,      /* J = 29 */
(PID.TID 0000.0001)                 1.946503699269892E+05,      /* J = 30 */
(PID.TID 0000.0001)                 1.709574999026266E+05,      /* J = 31 */
(PID.TID 0000.0001)                 1.391343389937106E+05       /* J = 32 */
(PID.TID 0000.0001)     ;
(PID.TID 0000.0001) dxV =  /* dxV(:,1,:,1) ( units: m ) */
(PID.TID 0000.0001)                 8.015229982413632E+04,      /* I =  1 */
(PID.TID 0000.0001)                 1.333130744933864E+05,      /* I =  2 */
(PID.TID 0000.0001)                 1.691744868129062E+05,      /* I =  3 */
(PID.TID 0000.0001)      . . .
(PID.TID 0000.0001)                 2.962371870847826E+05,      /* I = 46 */
(PID.TID 0000.0001)                 2.990534755671296E+05,      /* I = 47 */
(PID.TID 0000.0001)                 3.007409169495504E+05,      /* I = 48 */
(PID.TID 0000.0001)                 3.013031486919771E+05,      /* I = 49 */
(PID.TID 0000.0001)                 3.007409169495504E+05,      /* I = 50 */
(PID.TID 0000.0001)                 2.990534755671296E+05,      /* I = 51 */
(PID.TID 0000.0001)      . . .
(PID.TID 0000.0001)                 1.937548202849060E+05,      /* I = 94 */
(PID.TID 0000.0001)                 1.691744868129062E+05,      /* I = 95 */
(PID.TID 0000.0001)                 1.333130744933864E+05,      /* I = 96 */
(PID.TID 0000.0001)                 8.015229982413632E+04,      /* I = 97 */
(PID.TID 0000.0001)                 1.333130744933864E+05,      /* I = 98 */
(PID.TID 0000.0001)                 1.691744868129062E+05,      /* I = 99 */
(PID.TID 0000.0001)      . . .
(PID.TID 0000.0001)                 2.962371870847826E+05,      /* I =142 */
(PID.TID 0000.0001)                 2.990534755671296E+05,      /* I =143 */
(PID.TID 0000.0001)                 3.007409169495504E+05,      /* I =144 */
(PID.TID 0000.0001)                 3.013031486919771E+05,      /* I =145 */
(PID.TID 0000.0001)                 3.007409169495504E+05,      /* I =146 */
(PID.TID 0000.0001)                 2.990534755671296E+05,      /* I =147 */
(PID.TID 0000.0001)      . . .
(PID.TID 0000.0001)                 1.937548202849060E+05,      /* I =190 */
(PID.TID 0000.0001)                 1.691744868129062E+05,      /* I =191 */
(PID.TID 0000.0001)                 1.333130744933864E+05       /* I =192 */
(PID.TID 0000.0001)     ;
(PID.TID 0000.0001) dxV =  /* dxV(1,:,1,:) ( units: m ) */
(PID.TID 0000.0001)                 8.015229982413632E+04,      /* J =  1 */
(PID.TID 0000.0001)                 1.362652340208229E+05,      /* J =  2 */
(PID.TID 0000.0001)                 1.701080315742101E+05,      /* J =  3 */
(PID.TID 0000.0001)                 1.942331448101592E+05,      /* J =  4 */
(PID.TID 0000.0001)                 2.133486626971531E+05,      /* J =  5 */
(PID.TID 0000.0001)                 2.292584591272880E+05,      /* J =  6 */
(PID.TID 0000.0001)                 2.428369969078989E+05,      /* J =  7 */
(PID.TID 0000.0001)                 2.545652950875683E+05,      /* J =  8 */
(PID.TID 0000.0001)                 2.647274964828301E+05,      /* J =  9 */
(PID.TID 0000.0001)                 2.734980225206389E+05,      /* J = 10 */
(PID.TID 0000.0001)                 2.809856491525217E+05,      /* J = 11 */
(PID.TID 0000.0001)                 2.872580915202295E+05,      /* J = 12 */
(PID.TID 0000.0001)                 2.923567890694162E+05,      /* J = 13 */
(PID.TID 0000.0001)                 2.963063101754721E+05,      /* J = 14 */
(PID.TID 0000.0001)                 2.991205495886625E+05,      /* J = 15 */
(PID.TID 0000.0001)                 3.008068453676764E+05,      /* J = 16 */
(PID.TID 0000.0001)                 3.013686170436881E+05,      /* J = 17 */
(PID.TID 0000.0001)                 3.008068453676764E+05,      /* J = 18 */
(PID.TID 0000.0001)                 2.991205495886625E+05,      /* J = 19 */
(PID.TID 0000.0001)                 2.963063101754721E+05,      /* J = 20 */
(PID.TID 0000.0001)                 2.923567890694162E+05,      /* J = 21 */
(PID.TID 0000.0001)                 2.872580915202295E+05,      /* J = 22 */
(PID.TID 0000.0001)                 2.809856491525217E+05,      /* J = 23 */
(PID.TID 0000.0001)                 2.734980225206389E+05,      /* J = 24 */
(PID.TID 0000.0001)                 2.647274964828301E+05,      /* J = 25 */
(PID.TID 0000.0001)                 2.545652950875683E+05,      /* J = 26 */
(PID.TID 0000.0001)                 2.428369969078989E+05,      /* J = 27 */
(PID.TID 0000.0001)                 2.292584591272880E+05,      /* J = 28 */
(PID.TID 0000.0001)                 2.133486626971531E+05,      /* J = 29 */
(PID.TID 0000.0001)                 1.942331448101592E+05,      /* J = 30 */
(PID.TID 0000.0001)                 1.701080315742101E+05,      /* J = 31 */
(PID.TID 0000.0001)                 1.362652340208229E+05       /* J = 32 */
(PID.TID 0000.0001)     ;
(PID.TID 0000.0001) dyU =  /* dyU(:,1,:,1) ( units: m ) */
(PID.TID 0000.0001)                 8.015229982413632E+04,      /* I =  1 */
(PID.TID 0000.0001)                 1.362652340208229E+05,      /* I =  2 */
(PID.TID 0000.0001)                 1.701080315742101E+05,      /* I =  3 */
(PID.TID 0000.0001)      . . .
(PID.TID 0000.0001)                 2.963063101754721E+05,      /* I = 46 */
(PID.TID 0000.0001)                 2.991205495886625E+05,      /* I = 47 */
(PID.TID 0000.0001)                 3.008068453676764E+05,      /* I = 48 */
(PID.TID 0000.0001)                 3.013686170436881E+05,      /* I = 49 */
(PID.TID 0000.0001)                 3.008068453676764E+05,      /* I = 50 */
(PID.TID 0000.0001)                 2.991205495886625E+05,      /* I = 51 */
(PID.TID 0000.0001)      . . .
(PID.TID 0000.0001)                 1.942331448101592E+05,      /* I = 94 */
(PID.TID 0000.0001)                 1.701080315742101E+05,      /* I = 95 */
(PID.TID 0000.0001)                 1.362652340208229E+05,      /* I = 96 */
(PID.TID 0000.0001)                 8.015229982413632E+04,      /* I = 97 */
(PID.TID 0000.0001)                 1.362652340208229E+05,      /* I = 98 */
(PID.TID 0000.0001)                 1.701080315742101E+05,      /* I = 99 */
(PID.TID 0000.0001)      . . .
(PID.TID 0000.0001)                 2.963063101754721E+05,      /* I =142 */
(PID.TID 0000.0001)                 2.991205495886625E+05,      /* I =143 */
(PID.TID 0000.0001)                 3.008068453676764E+05,      /* I =144 */
(PID.TID 0000.0001)                 3.013686170436881E+05,      /* I =145 */
(PID.TID 0000.0001)                 3.008068453676764E+05,      /* I =146 */
(PID.TID 0000.0001)                 2.991205495886625E+05,      /* I =147 */
(PID.TID 0000.0001)      . . .
(PID.TID 0000.0001)                 1.942331448101592E+05,      /* I =190 */
(PID.TID 0000.0001)                 1.701080315742101E+05,      /* I =191 */
(PID.TID 0000.0001)                 1.362652340208229E+05       /* I =192 */
(PID.TID 0000.0001)     ;
(PID.TID 0000.0001) dyU =  /* dyU(1,:,1,:) ( units: m ) */
(PID.TID 0000.0001)                 8.015229982413632E+04,      /* J =  1 */
(PID.TID 0000.0001)                 1.333130744933864E+05,      /* J =  2 */
(PID.TID 0000.0001)                 1.691744868129062E+05,      /* J =  3 */
(PID.TID 0000.0001)                 1.937548202849060E+05,      /* J =  4 */
(PID.TID 0000.0001)                 2.130490056267208E+05,      /* J =  5 */
(PID.TID 0000.0001)                 2.290479919481738E+05,      /* J =  6 */
(PID.TID 0000.0001)                 2.426774358027003E+05,      /* J =  7 */
(PID.TID 0000.0001)                 2.544372984215561E+05,      /* J =  8 */
(PID.TID 0000.0001)                 2.646201463834826E+05,      /* J =  9 */
(PID.TID 0000.0001)                 2.734046499619031E+05,      /* J = 10 */
(PID.TID 0000.0001)                 2.809019351693761E+05,      /* J = 11 */
(PID.TID 0000.0001)                 2.871811105274442E+05,      /* J = 12 */
(PID.TID 0000.0001)                 2.922844849381675E+05,      /* J = 13 */
(PID.TID 0000.0001)                 2.962371870847826E+05,      /* J = 14 */
(PID.TID 0000.0001)                 2.990534755671296E+05,      /* J = 15 */
(PID.TID 0000.0001)                 3.007409169495504E+05,      /* J = 16 */
(PID.TID 0000.0001)                 3.013031486919771E+05,      /* J = 17 */
(PID.TID 0000.0001)                 3.007409169495504E+05,      /* J = 18 */
(PID.TID 0000.0001)                 2.990534755671296E+05,      /* J = 19 */
(PID.TID 0000.0001)                 2.962371870847826E+05,      /* J = 20 */
(PID.TID 0000.0001)                 2.922844849381675E+05,      /* J = 21 */
(PID.TID 0000.0001)                 2.871811105274442E+05,      /* J = 22 */
(PID.TID 0000.0001)                 2.809019351693761E+05,      /* J = 23 */
(PID.TID 0000.0001)                 2.734046499619031E+05,      /* J = 24 */
(PID.TID 0000.0001)                 2.646201463834826E+05,      /* J = 25 */
(PID.TID 0000.0001)                 2.544372984215561E+05,      /* J = 26 */
(PID.TID 0000.0001)                 2.426774358027003E+05,      /* J = 27 */
(PID.TID 0000.0001)                 2.290479919481738E+05,      /* J = 28 */
(PID.TID 0000.0001)                 2.130490056267208E+05,      /* J = 29 */
(PID.TID 0000.0001)                 1.937548202849060E+05,      /* J = 30 */
(PID.TID 0000.0001)                 1.691744868129062E+05,      /* J = 31 */
(PID.TID 0000.0001)                 1.333130744933864E+05       /* J = 32 */
(PID.TID 0000.0001)     ;
(PID.TID 0000.0001) rA  =  /* rA (:,1,:,1) ( units: m^2 ) */
(PID.TID 0000.0001)                 1.549786705672200E+10,      /* I =  1 */
(PID.TID 0000.0001)                 2.487202533723944E+10,      /* I =  2 */
(PID.TID 0000.0001)                 3.392265412140352E+10,      /* I =  3 */
(PID.TID 0000.0001)      . . .
(PID.TID 0000.0001)                 8.871245486529788E+10,      /* I = 46 */
(PID.TID 0000.0001)                 9.005359372079962E+10,      /* I = 47 */
(PID.TID 0000.0001)                 9.072735712796770E+10,      /* I = 48 */
(PID.TID 0000.0001)                 9.072735712796770E+10,      /* I = 49 */
(PID.TID 0000.0001)                 9.005359372079962E+10,      /* I = 50 */
(PID.TID 0000.0001)                 8.871245486529788E+10,      /* I = 51 */
(PID.TID 0000.0001)      . . .
(PID.TID 0000.0001)                 3.392265412140352E+10,      /* I = 94 */
(PID.TID 0000.0001)                 2.487202533723944E+10,      /* I = 95 */
(PID.TID 0000.0001)                 1.549786705672200E+10,      /* I = 96 */
(PID.TID 0000.0001)                 1.549786705672200E+10,      /* I = 97 */
(PID.TID 0000.0001)                 2.487202533723944E+10,      /* I = 98 */
(PID.TID 0000.0001)                 3.392265412140352E+10,      /* I = 99 */
(PID.TID 0000.0001)      . . .
(PID.TID 0000.0001)                 8.871245486529788E+10,      /* I =142 */
(PID.TID 0000.0001)                 9.005359372079962E+10,      /* I =143 */
(PID.TID 0000.0001)                 9.072735712796770E+10,      /* I =144 */
(PID.TID 0000.0001)                 9.072735712796770E+10,      /* I =145 */
(PID.TID 0000.0001)                 9.005359372079962E+10,      /* I =146 */
(PID.TID 0000.0001)                 8.871245486529788E+10,      /* I =147 */
(PID.TID 0000.0001)      . . .
(PID.TID 0000.0001)                 3.392265412140352E+10,      /* I =190 */
(PID.TID 0000.0001)                 2.487202533723944E+10,      /* I =191 */
(PID.TID 0000.0001)                 1.549786705672200E+10       /* I =192 */
(PID.TID 0000.0001)     ;
(PID.TID 0000.0001) rA  =  /* rA (1,:,1,:) ( units: m^2 ) */
(PID.TID 0000.0001)                 1.549786705672200E+10,      /* J =  1 */
(PID.TID 0000.0001)                 2.487202533723944E+10,      /* J =  2 */
(PID.TID 0000.0001)                 3.392265412140352E+10,      /* J =  3 */
(PID.TID 0000.0001)                 4.200427377313133E+10,      /* J =  4 */
(PID.TID 0000.0001)                 4.931323764668228E+10,      /* J =  5 */
(PID.TID 0000.0001)                 5.597545074899419E+10,      /* J =  6 */
(PID.TID 0000.0001)                 6.205603937791459E+10,      /* J =  7 */
(PID.TID 0000.0001)                 6.758299971934573E+10,      /* J =  8 */
(PID.TID 0000.0001)                 7.256155653843707E+10,      /* J =  9 */
(PID.TID 0000.0001)                 7.698291833687604E+10,      /* J = 10 */
(PID.TID 0000.0001)                 8.083005486272011E+10,      /* J = 11 */
(PID.TID 0000.0001)                 8.408183191745641E+10,      /* J = 12 */
(PID.TID 0000.0001)                 8.671615787312848E+10,      /* J = 13 */
(PID.TID 0000.0001)                 8.871245486529788E+10,      /* J = 14 */
(PID.TID 0000.0001)                 9.005359372079964E+10,      /* J = 15 */
(PID.TID 0000.0001)     2 @  9.072735712796770E+10,             /* J = 16: 17 */
(PID.TID 0000.0001)                 9.005359372079964E+10,      /* J = 18 */
(PID.TID 0000.0001)                 8.871245486529788E+10,      /* J = 19 */
(PID.TID 0000.0001)                 8.671615787312848E+10,      /* J = 20 */
(PID.TID 0000.0001)                 8.408183191745641E+10,      /* J = 21 */
(PID.TID 0000.0001)                 8.083005486272011E+10,      /* J = 22 */
(PID.TID 0000.0001)                 7.698291833687604E+10,      /* J = 23 */
(PID.TID 0000.0001)                 7.256155653843707E+10,      /* J = 24 */
(PID.TID 0000.0001)                 6.758299971934573E+10,      /* J = 25 */
(PID.TID 0000.0001)                 6.205603937791459E+10,      /* J = 26 */
(PID.TID 0000.0001)                 5.597545074899419E+10,      /* J = 27 */
(PID.TID 0000.0001)                 4.931323764668228E+10,      /* J = 28 */
(PID.TID 0000.0001)                 4.200427377313133E+10,      /* J = 29 */
(PID.TID 0000.0001)                 3.392265412140352E+10,      /* J = 30 */
(PID.TID 0000.0001)                 2.487202533723944E+10,      /* J = 31 */
(PID.TID 0000.0001)                 1.549786705672200E+10       /* J = 32 */
(PID.TID 0000.0001)     ;
(PID.TID 0000.0001) rAw =  /* rAw(:,1,:,1) ( units: m^2 ) */
(PID.TID 0000.0001)                 1.146542574196578E+10,      /* I =  1 */
(PID.TID 0000.0001)                 1.953030837147821E+10,      /* I =  2 */
(PID.TID 0000.0001)                 2.933967873337320E+10,      /* I =  3 */
(PID.TID 0000.0001)      . . .
(PID.TID 0000.0001)                 8.781604517750543E+10,      /* I = 46 */
(PID.TID 0000.0001)                 8.948917519517891E+10,      /* I = 47 */
(PID.TID 0000.0001)                 9.049933392602551E+10,      /* I = 48 */
(PID.TID 0000.0001)                 9.083715262395341E+10,      /* I = 49 */
(PID.TID 0000.0001)                 9.049933392602551E+10,      /* I = 50 */
(PID.TID 0000.0001)                 8.948917519517891E+10,      /* I = 51 */
(PID.TID 0000.0001)      . . .
(PID.TID 0000.0001)                 3.796176706541101E+10,      /* I = 94 */
(PID.TID 0000.0001)                 2.933967873337320E+10,      /* I = 95 */
(PID.TID 0000.0001)                 1.953030837147821E+10,      /* I = 96 */
(PID.TID 0000.0001)                 1.146542574196578E+10,      /* I = 97 */
(PID.TID 0000.0001)                 1.953030837147821E+10,      /* I = 98 */
(PID.TID 0000.0001)                 2.933967873337320E+10,      /* I = 99 */
(PID.TID 0000.0001)      . . .
(PID.TID 0000.0001)                 8.781604517750543E+10,      /* I =142 */
(PID.TID 0000.0001)                 8.948917519517891E+10,      /* I =143 */
(PID.TID 0000.0001)                 9.049933392602551E+10,      /* I =144 */
(PID.TID 0000.0001)                 9.083715262395341E+10,      /* I =145 */
(PID.TID 0000.0001)                 9.049933392602551E+10,      /* I =146 */
(PID.TID 0000.0001)                 8.948917519517891E+10,      /* I =147 */
(PID.TID 0000.0001)      . . .
(PID.TID 0000.0001)                 3.796176706541101E+10,      /* I =190 */
(PID.TID 0000.0001)                 2.933967873337320E+10,      /* I =191 */
(PID.TID 0000.0001)                 1.953030837147821E+10       /* I =192 */
(PID.TID 0000.0001)     ;
(PID.TID 0000.0001) rAw =  /* rAw(1,:,1,:) ( units: m^2 ) */
(PID.TID 0000.0001)                 1.146542574196578E+10,      /* J =  1 */
(PID.TID 0000.0001)                 2.377787005983833E+10,      /* J =  2 */
(PID.TID 0000.0001)                 3.336273018972140E+10,      /* J =  3 */
(PID.TID 0000.0001)                 4.165099566747280E+10,      /* J =  4 */
(PID.TID 0000.0001)                 4.906782896008959E+10,      /* J =  5 */
(PID.TID 0000.0001)                 5.579613053300137E+10,      /* J =  6 */
(PID.TID 0000.0001)                 6.192151981164894E+10,      /* J =  7 */
(PID.TID 0000.0001)                 6.748097638954340E+10,      /* J =  8 */
(PID.TID 0000.0001)                 7.248418794208269E+10,      /* J =  9 */
(PID.TID 0000.0001)                 7.692477203447566E+10,      /* J = 10 */
(PID.TID 0000.0001)                 8.078707194826852E+10,      /* J = 11 */
(PID.TID 0000.0001)                 8.405076334249313E+10,      /* J = 12 */
(PID.TID 0000.0001)                 8.669423991218034E+10,      /* J = 13 */
(PID.TID 0000.0001)                 8.869721460381146E+10,      /* J = 14 */
(PID.TID 0000.0001)                 9.004272888354184E+10,      /* J = 15 */
(PID.TID 0000.0001)     2 @  9.071865929421040E+10,             /* J = 16: 17 */
(PID.TID 0000.0001)                 9.004272888354184E+10,      /* J = 18 */
(PID.TID 0000.0001)                 8.869721460381146E+10,      /* J = 19 */
(PID.TID 0000.0001)                 8.669423991218034E+10,      /* J = 20 */
(PID.TID 0000.0001)                 8.405076334249313E+10,      /* J = 21 */
(PID.TID 0000.0001)                 8.078707194826852E+10,      /* J = 22 */
(PID.TID 0000.0001)                 7.692477203447566E+10,      /* J = 23 */
(PID.TID 0000.0001)                 7.248418794208269E+10,      /* J = 24 */
(PID.TID 0000.0001)                 6.748097638954340E+10,      /* J = 25 */
(PID.TID 0000.0001)                 6.192151981164894E+10,      /* J = 26 */
(PID.TID 0000.0001)                 5.579613053300137E+10,      /* J = 27 */
(PID.TID 0000.0001)                 4.906782896008959E+10,      /* J = 28 */
(PID.TID 0000.0001)                 4.165099566747280E+10,      /* J = 29 */
(PID.TID 0000.0001)                 3.336273018972140E+10,      /* J = 30 */
(PID.TID 0000.0001)                 2.377787005983833E+10,      /* J = 31 */
(PID.TID 0000.0001)                 1.146542574196578E+10       /* J = 32 */
(PID.TID 0000.0001)     ;
(PID.TID 0000.0001) rAs =  /* rAs(:,1,:,1) ( units: m^2 ) */
(PID.TID 0000.0001)                 1.146542574196578E+10,      /* I =  1 */
(PID.TID 0000.0001)                 2.377787005983833E+10,      /* I =  2 */
(PID.TID 0000.0001)                 3.336273018972140E+10,      /* I =  3 */
(PID.TID 0000.0001)      . . .
(PID.TID 0000.0001)                 8.869721460381146E+10,      /* I = 46 */
(PID.TID 0000.0001)                 9.004272888354184E+10,      /* I = 47 */
(PID.TID 0000.0001)                 9.071865929421040E+10,      /* I = 48 */
(PID.TID 0000.0001)                 9.071865929421040E+10,      /* I = 49 */
(PID.TID 0000.0001)                 9.004272888354184E+10,      /* I = 50 */
(PID.TID 0000.0001)                 8.869721460381146E+10,      /* I = 51 */
(PID.TID 0000.0001)      . . .
(PID.TID 0000.0001)                 3.336273018972140E+10,      /* I = 94 */
(PID.TID 0000.0001)                 2.377787005983833E+10,      /* I = 95 */
(PID.TID 0000.0001)                 1.146542574196578E+10,      /* I = 96 */
(PID.TID 0000.0001)                 1.146542574196578E+10,      /* I = 97 */
(PID.TID 0000.0001)                 2.377787005983833E+10,      /* I = 98 */
(PID.TID 0000.0001)                 3.336273018972140E+10,      /* I = 99 */
(PID.TID 0000.0001)      . . .
(PID.TID 0000.0001)                 8.869721460381146E+10,      /* I =142 */
(PID.TID 0000.0001)                 9.004272888354184E+10,      /* I =143 */
(PID.TID 0000.0001)                 9.071865929421040E+10,      /* I =144 */
(PID.TID 0000.0001)                 9.071865929421040E+10,      /* I =145 */
(PID.TID 0000.0001)                 9.004272888354184E+10,      /* I =146 */
(PID.TID 0000.0001)                 8.869721460381146E+10,      /* I =147 */
(PID.TID 0000.0001)      . . .
(PID.TID 0000.0001)                 3.336273018972140E+10,      /* I =190 */
(PID.TID 0000.0001)                 2.377787005983833E+10,      /* I =191 */
(PID.TID 0000.0001)                 1.146542574196578E+10       /* I =192 */
(PID.TID 0000.0001)     ;
(PID.TID 0000.0001) rAs =  /* rAs(1,:,1,:) ( units: m^2 ) */
(PID.TID 0000.0001)                 1.146542574196578E+10,      /* J =  1 */
(PID.TID 0000.0001)                 1.953030837147821E+10,      /* J =  2 */
(PID.TID 0000.0001)                 2.933967873337320E+10,      /* J =  3 */
(PID.TID 0000.0001)                 3.796176706541101E+10,      /* J =  4 */
(PID.TID 0000.0001)                 4.567569462064098E+10,      /* J =  5 */
(PID.TID 0000.0001)                 5.267377164042021E+10,      /* J =  6 */
(PID.TID 0000.0001)                 5.905615583203223E+10,      /* J =  7 */
(PID.TID 0000.0001)                 6.487043381386549E+10,      /* J =  8 */
(PID.TID 0000.0001)                 7.013339442433482E+10,      /* J =  9 */
(PID.TID 0000.0001)                 7.484316069116351E+10,      /* J = 10 */
(PID.TID 0000.0001)                 7.898662143005907E+10,      /* J = 11 */
(PID.TID 0000.0001)                 8.254445101987663E+10,      /* J = 12 */
(PID.TID 0000.0001)                 8.549478360691351E+10,      /* J = 13 */
(PID.TID 0000.0001)                 8.781604517750543E+10,      /* J = 14 */
(PID.TID 0000.0001)                 8.948917519517891E+10,      /* J = 15 */
(PID.TID 0000.0001)                 9.049933392602551E+10,      /* J = 16 */
(PID.TID 0000.0001)                 9.083715262395341E+10,      /* J = 17 */
(PID.TID 0000.0001)                 9.049933392602551E+10,      /* J = 18 */
(PID.TID 0000.0001)                 8.948917519517891E+10,      /* J = 19 */
(PID.TID 0000.0001)                 8.781604517750543E+10,      /* J = 20 */
(PID.TID 0000.0001)                 8.549478360691351E+10,      /* J = 21 */
(PID.TID 0000.0001)                 8.254445101987663E+10,      /* J = 22 */
(PID.TID 0000.0001)                 7.898662143005907E+10,      /* J = 23 */
(PID.TID 0000.0001)                 7.484316069116351E+10,      /* J = 24 */
(PID.TID 0000.0001)                 7.013339442433482E+10,      /* J = 25 */
(PID.TID 0000.0001)                 6.487043381386549E+10,      /* J = 26 */
(PID.TID 0000.0001)                 5.905615583203223E+10,      /* J = 27 */
(PID.TID 0000.0001)                 5.267377164042021E+10,      /* J = 28 */
(PID.TID 0000.0001)                 4.567569462064098E+10,      /* J = 29 */
(PID.TID 0000.0001)                 3.796176706541101E+10,      /* J = 30 */
(PID.TID 0000.0001)                 2.933967873337320E+10,      /* J = 31 */
(PID.TID 0000.0001)                 1.953030837147821E+10       /* J = 32 */
(PID.TID 0000.0001)     ;
(PID.TID 0000.0001) globalArea = /* Integrated horizontal Area (m^2) */
(PID.TID 0000.0001)                 5.098642104278460E+14
(PID.TID 0000.0001)     ;
(PID.TID 0000.0001) // =======================================================
(PID.TID 0000.0001) // End of Model config. summary
(PID.TID 0000.0001) // =======================================================
(PID.TID 0000.0001) 
(PID.TID 0000.0001) == Packages configuration : Check & print summary ==
(PID.TID 0000.0001) 
(PID.TID 0000.0001) GAD_CHECK: #define ALLOW_GENERIC_ADVDIFF
(PID.TID 0000.0001) // =======================================================
(PID.TID 0000.0001) // CONFIG_CHECK : Normal End
(PID.TID 0000.0001) // =======================================================
(PID.TID 0000.0001) 
(PID.TID 0000.0001)  MDS_READ_META: opening file: pickup.0000025920.meta
(PID.TID 0000.0001)  nRecords =   0 ; filePrec =  64 ; fileIter =         0
(PID.TID 0000.0001)     nDims =   0 , dims:
(PID.TID 0000.0001)     nFlds =   0 , nFl3D =   0 , fields:
(PID.TID 0000.0001)   nTimRec =   0 , timeList:
(PID.TID 0000.0001)  MDS_READ_FIELD: opening global file: pickup.0000025920
(PID.TID 0000.0001)  MDS_READ_FIELD: opening global file: pickup.0000025920
(PID.TID 0000.0001)  MDS_READ_FIELD: opening global file: pickup.0000025920
(PID.TID 0000.0001)  MDS_READ_FIELD: opening global file: pickup.0000025920
(PID.TID 0000.0001)  MDS_READ_FIELD: opening global file: pickup.0000025920
(PID.TID 0000.0001)  MDS_READ_FIELD: opening global file: pickup.0000025920
(PID.TID 0000.0001)  MDS_READ_FIELD: opening global file: pickup.0000025920
(PID.TID 0000.0001)  MDS_READ_FIELD: opening global file: pickup.0000025920
(PID.TID 0000.0001)  MDS_READ_FIELD: opening global file: pickup.0000025920
(PID.TID 0000.0001)  MDS_READ_FIELD: opening global file: pickup.0000025920
(PID.TID 0000.0001)  MDS_READ_FIELD: opening global file: pickup.0000025920
(PID.TID 0000.0001)  MDS_READ_FIELD: opening global file: pickup.0000025920
(PID.TID 0000.0001)  MDS_READ_FIELD: opening global file: pickup.0000025920
(PID.TID 0000.0001)  MDS_READ_FIELD: opening global file: pickup.0000025920
(PID.TID 0000.0001)  MDS_READ_FIELD: opening global file: pickup_nh.0000025920
(PID.TID 0000.0001)  MDS_READ_FIELD: opening global file: pickup_nh.0000025920
(PID.TID 0000.0001) READ_MFLDS_CHECK: - normal end ; reset MFLDS file-name: pickup.0000025920
(PID.TID 0000.0001)  write diagnostics summary to file ioUnit:      6
Iter.Nb:     25920 ; Time(s):  3.1104000000000E+07
------------------------------------------------------------------------
2D/3D diagnostics: Number of lists:     2
------------------------------------------------------------------------
listId=    1 ; file name: surfDiag
 nFlds, nActive,       freq     &     phase        , nLev               
    3  |    3  |  31104000.000000         0.000000 |   1
 levels:   1
 diag# | name   |   ipt  |  iMate | kLev|   count |   mate.C|           
    23 |ETAN    |      1 |      0 |   1 |       0 |
    24 |ETANSQ  |      2 |      0 |   1 |       0 |
    25 |DETADT2 |      3 |      0 |   1 |       0 |
------------------------------------------------------------------------
listId=    2 ; file name: dynDiag
 nFlds, nActive,       freq     &     phase        , nLev               
   12  |   12  |  31104000.000000         0.000000 |   5
 levels:   1   2   3   4   5
 diag# | name   |   ipt  |  iMate | kLev|   count |   mate.C|           
    29 |UVEL    |      4 |      9 |   5 |       0 |       0 |
    30 |VVEL    |      9 |      4 |   5 |       0 |       0 |
    31 |WVEL    |     14 |      0 |   5 |       0 |
    26 |THETA   |     19 |      0 |   5 |       0 |
    34 |UVELSQ  |     24 |     29 |   5 |       0 |       0 |
    35 |VVELSQ  |     29 |     24 |   5 |       0 |       0 |
    36 |WVELSQ  |     34 |      0 |   5 |       0 |
    32 |THETASQ |     39 |      0 |   5 |       0 |
    46 |UTHMASS |     44 |     49 |   5 |       0 |       0 |
    47 |VTHMASS |     49 |     44 |   5 |       0 |       0 |
    54 |WVELTH  |     54 |      0 |   5 |       0 |
    65 |PHIHYD  |     59 |      0 |   5 |       0 |
------------------------------------------------------------------------
Global & Regional Statistics diagnostics: Number of lists:     1
------------------------------------------------------------------------
listId=   1 ; file name: dynStDiag
 nFlds, nActive,       freq     &     phase        |                    
    7  |    7  |     -3600.000000         0.000000 |
 Regions:   0
 diag# | name   |   ipt  |  iMate |    Volume   |   mate-Vol. |         
    23 |ETAN    |      1 |      0 | 0.00000E+00 |
    29 |UVEL    |      2 |      0 | 0.00000E+00 |
    30 |VVEL    |      7 |      0 | 0.00000E+00 |
    31 |WVEL    |     12 |      0 | 0.00000E+00 |
    26 |THETA   |     17 |      0 | 0.00000E+00 |
    65 |PHIHYD  |     22 |      0 | 0.00000E+00 |
    25 |DETADT2 |     27 |      0 | 0.00000E+00 |
------------------------------------------------------------------------
(PID.TID 0000.0001) // =======================================================
(PID.TID 0000.0001) // Model current state
(PID.TID 0000.0001) // =======================================================
(PID.TID 0000.0001) 
(PID.TID 0000.0001) // =======================================================
(PID.TID 0000.0001) // Begin MONITOR dynamic field statistics
(PID.TID 0000.0001) // =======================================================
(PID.TID 0000.0001) %MON time_tsnumber                =                 25920
(PID.TID 0000.0001) %MON time_secondsf                =   3.1104000000000E+07
(PID.TID 0000.0001) %MON dynstat_eta_max              =   1.9649438870311E+03
(PID.TID 0000.0001) %MON dynstat_eta_min              =  -3.2749096616792E+03
(PID.TID 0000.0001) %MON dynstat_eta_mean             =  -9.6402138049177E-15
(PID.TID 0000.0001) %MON dynstat_eta_sd               =   7.2905436750447E+02
(PID.TID 0000.0001) %MON dynstat_eta_del2             =   3.2288994079939E+01
(PID.TID 0000.0001) %MON dynstat_uvel_max             =   5.4457375190081E+01
(PID.TID 0000.0001) %MON dynstat_uvel_min             =  -6.0047178156085E+01
(PID.TID 0000.0001) %MON dynstat_uvel_mean            =   1.3783331411552E+00
(PID.TID 0000.0001) %MON dynstat_uvel_sd              =   1.0684234780709E+01
(PID.TID 0000.0001) %MON dynstat_uvel_del2            =   9.4506777115540E-01
(PID.TID 0000.0001) %MON dynstat_vvel_max             =   6.2013811735100E+01
(PID.TID 0000.0001) %MON dynstat_vvel_min             =  -5.5588737483400E+01
(PID.TID 0000.0001) %MON dynstat_vvel_mean            =   1.3509651607949E+00
(PID.TID 0000.0001) %MON dynstat_vvel_sd              =   1.1082718005118E+01
(PID.TID 0000.0001) %MON dynstat_vvel_del2            =   9.7977365803836E-01
(PID.TID 0000.0001) %MON dynstat_wvel_max             =   2.3312551145314E+00
(PID.TID 0000.0001) %MON dynstat_wvel_min             =  -3.1065134505472E+00
(PID.TID 0000.0001) %MON dynstat_wvel_mean            =  -1.3093046225139E-18
(PID.TID 0000.0001) %MON dynstat_wvel_sd              =   1.3608162221118E-01
(PID.TID 0000.0001) %MON dynstat_wvel_del2            =   3.8218856638797E-02
(PID.TID 0000.0001) %MON dynstat_theta_max            =   4.4915968370314E+02
(PID.TID 0000.0001) %MON dynstat_theta_min            =   2.6469060758120E+02
(PID.TID 0000.0001) %MON dynstat_theta_mean           =   3.2251051389590E+02
(PID.TID 0000.0001) %MON dynstat_theta_sd             =   4.2272734126748E+01
(PID.TID 0000.0001) %MON dynstat_theta_del2           =   6.0019425800093E-01
(PID.TID 0000.0001) %MON dynstat_salt_max             =   0.0000000000000E+00
(PID.TID 0000.0001) %MON dynstat_salt_min             =   0.0000000000000E+00
(PID.TID 0000.0001) %MON dynstat_salt_mean            =   0.0000000000000E+00
(PID.TID 0000.0001) %MON dynstat_salt_sd              =   0.0000000000000E+00
(PID.TID 0000.0001) %MON dynstat_salt_del2            =   0.0000000000000E+00
(PID.TID 0000.0001) %MON advcfl_uvel_max              =   4.5178832848752E-01
(PID.TID 0000.0001) %MON advcfl_vvel_max              =   5.3071758666503E-01
(PID.TID 0000.0001) %MON advcfl_wvel_max              =   1.4911264562626E-01
(PID.TID 0000.0001) %MON advcfl_W_hf_max              =   1.8639080703283E-01
(PID.TID 0000.0001) %MON pe_b_mean                    =   2.2077711928398E+00
(PID.TID 0000.0001) %MON ke_max                       =   2.2919737541757E+03
(PID.TID 0000.0001) %MON ke_mean                      =   1.2035221017198E+02
(PID.TID 0000.0001) %MON ke_vol                       =   5.0986421042785E+19
(PID.TID 0000.0001) %MON vort_r_min                   =  -2.6824154719147E-04
(PID.TID 0000.0001) %MON vort_r_max                   =   2.0459761002069E-04
(PID.TID 0000.0001) %MON vort_a_mean                  =  -1.2256775868926E-21
(PID.TID 0000.0001) %MON vort_a_sd                    =   8.9450455554922E-05
(PID.TID 0000.0001) %MON vort_p_mean                  =  -1.2256775868926E-21
(PID.TID 0000.0001) %MON vort_p_sd                    =   8.9450455554922E-05
(PID.TID 0000.0001) %MON surfExpan_theta_mean         =  -9.8153724176814E-03
(PID.TID 0000.0001) %MON surfExpan_salt_mean          =   0.0000000000000E+00
(PID.TID 0000.0001) %MON surfExpan_Heat_mean          =  -9.8993528315580E-01
(PID.TID 0000.0001) %MON En_Budget_T2PE_mean          =   2.1000744131156E+00
(PID.TID 0000.0001) // =======================================================
(PID.TID 0000.0001) // End MONITOR dynamic field statistics
(PID.TID 0000.0001) // =======================================================
 cg2d: Sum(rhs),rhsMax =   5.09317032992840E-10  3.17326810738349E+03
(PID.TID 0000.0001)                    cg2d_init_res =    1.13864109738115E+03
(PID.TID 0000.0001)                       cg2d_iters =    31
(PID.TID 0000.0001)                         cg2d_res =    1.90643062525524E-11
 cg3d: Sum(rhs),rhsMax =  -4.13228587632652E-13  6.58887043308130E+00
(PID.TID 0000.0001)                    cg3d_init_res =    2.26149645198643E+00
(PID.TID 0000.0001)                       cg3d_iters =    18
(PID.TID 0000.0001)                         cg3d_res =    6.48522783304122E-05
(PID.TID 0000.0001) // =======================================================
(PID.TID 0000.0001) // Begin MONITOR dynamic field statistics
(PID.TID 0000.0001) // =======================================================
(PID.TID 0000.0001) %MON time_tsnumber                =                 25921
(PID.TID 0000.0001) %MON time_secondsf                =   3.1105200000000E+07
(PID.TID 0000.0001) %MON dynstat_eta_max              =   1.9694859870552E+03
(PID.TID 0000.0001) %MON dynstat_eta_min              =  -3.2779764179537E+03
(PID.TID 0000.0001) %MON dynstat_eta_mean             =  -7.0694901236063E-14
(PID.TID 0000.0001) %MON dynstat_eta_sd               =   7.2915977073348E+02
(PID.TID 0000.0001) %MON dynstat_eta_del2             =   3.2305160715117E+01
(PID.TID 0000.0001) %MON dynstat_uvel_max             =   5.4665926351688E+01
(PID.TID 0000.0001) %MON dynstat_uvel_min             =  -6.0530267279235E+01
(PID.TID 0000.0001) %MON dynstat_uvel_mean            =   1.3794819268176E+00
(PID.TID 0000.0001) %MON dynstat_uvel_sd              =   1.0680300517292E+01
(PID.TID 0000.0001) %MON dynstat_uvel_del2            =   9.4489170360262E-01
(PID.TID 0000.0001) %MON dynstat_vvel_max             =   6.1961699882022E+01
(PID.TID 0000.0001) %MON dynstat_vvel_min             =  -5.5559676641750E+01
(PID.TID 0000.0001) %MON dynstat_vvel_mean            =   1.3517653983421E+00
(PID.TID 0000.0001) %MON dynstat_vvel_sd              =   1.1085231350850E+01
(PID.TID 0000.0001) %MON dynstat_vvel_del2            =   9.7971541926274E-01
(PID.TID 0000.0001) %MON dynstat_wvel_max             =   2.3846428162412E+00
(PID.TID 0000.0001) %MON dynstat_wvel_min             =  -3.1294731359725E+00
(PID.TID 0000.0001) %MON dynstat_wvel_mean            =  -1.1078731421271E-18
(PID.TID 0000.0001) %MON dynstat_wvel_sd              =   1.3604971085236E-01
(PID.TID 0000.0001) %MON dynstat_wvel_del2            =   3.8172953445195E-02
(PID.TID 0000.0001) %MON dynstat_theta_max            =   4.4915903249863E+02
(PID.TID 0000.0001) %MON dynstat_theta_min            =   2.6471079816071E+02
(PID.TID 0000.0001) %MON dynstat_theta_mean           =   3.2251052585712E+02
(PID.TID 0000.0001) %MON dynstat_theta_sd             =   4.2272776561204E+01
(PID.TID 0000.0001) %MON dynstat_theta_del2           =   5.9988959592663E-01
(PID.TID 0000.0001) %MON dynstat_salt_max             =   0.0000000000000E+00
(PID.TID 0000.0001) %MON dynstat_salt_min             =   0.0000000000000E+00
(PID.TID 0000.0001) %MON dynstat_salt_mean            =   0.0000000000000E+00
(PID.TID 0000.0001) %MON dynstat_salt_sd              =   0.0000000000000E+00
(PID.TID 0000.0001) %MON dynstat_salt_del2            =   0.0000000000000E+00
(PID.TID 0000.0001) %MON advcfl_uvel_max              =   4.5013877064711E-01
(PID.TID 0000.0001) %MON advcfl_vvel_max              =   5.3098191860822E-01
(PID.TID 0000.0001) %MON advcfl_wvel_max              =   1.5021471052668E-01
(PID.TID 0000.0001) %MON advcfl_W_hf_max              =   1.8776838815835E-01
(PID.TID 0000.0001) %MON pe_b_mean                    =   2.2084096172010E+00
(PID.TID 0000.0001) %MON ke_max                       =   2.2958591540426E+03
(PID.TID 0000.0001) %MON ke_mean                      =   1.2034070666005E+02
(PID.TID 0000.0001) %MON ke_vol                       =   5.0986421042785E+19
(PID.TID 0000.0001) %MON vort_r_min                   =  -2.5673360761559E-04
(PID.TID 0000.0001) %MON vort_r_max                   =   2.0588389280874E-04
(PID.TID 0000.0001) %MON vort_a_mean                  =   3.1867617259206E-20
(PID.TID 0000.0001) %MON vort_a_sd                    =   8.9449696842722E-05
(PID.TID 0000.0001) %MON vort_p_mean                  =   3.1867617259206E-20
(PID.TID 0000.0001) %MON vort_p_sd                    =   8.9449696842722E-05
(PID.TID 0000.0001) %MON surfExpan_theta_mean         =  -7.0921490323653E-03
(PID.TID 0000.0001) %MON surfExpan_salt_mean          =   0.0000000000000E+00
(PID.TID 0000.0001) %MON surfExpan_Heat_mean          =  -7.1528295226888E-01
(PID.TID 0000.0001) %MON En_Budget_T2PE_mean          =   2.0253294107900E+00
(PID.TID 0000.0001) // =======================================================
(PID.TID 0000.0001) // End MONITOR dynamic field statistics
(PID.TID 0000.0001) // =======================================================
 Compute Stats, Diag. #     23  ETAN      vol(   0 ): 5.099E+14  Parms: SM      M1      
 Compute Stats, Diag. #     29  UVEL      vol(   0 ): 5.099E+19  Parms: UU      MR      
 Compute Stats, Diag. #     30  VVEL      vol(   0 ): 5.099E+19  Parms: VV      MR      
 Compute Stats, Diag. #     31  WVEL      vol(   0 ): 4.716E+19  Parms: WM      LR      
 Compute Stats, Diag. #     26  THETA     vol(   0 ): 5.099E+19  Parms: SM      MR      
 Compute Stats, Diag. #     65  PHIHYD    vol(   0 ): 5.099E+19  Parms: SM      MR      
 Compute Stats, Diag. #     25  DETADT2   vol(   0 ): 5.099E+14  Parms: SM      M1      
 cg2d: Sum(rhs),rhsMax =  -1.16415321826935E-10  3.16986496132377E+03
(PID.TID 0000.0001)                    cg2d_init_res =    1.14398068953209E+03
(PID.TID 0000.0001)                       cg2d_iters =    31
(PID.TID 0000.0001)                         cg2d_res =    1.91646311027012E-11
 cg3d: Sum(rhs),rhsMax =  -1.11747850556343E-13  6.82780859374233E+00
(PID.TID 0000.0001)                    cg3d_init_res =    2.19244307793878E+00
(PID.TID 0000.0001)                       cg3d_iters =    18
(PID.TID 0000.0001)                         cg3d_res =    6.80014120102576E-05
(PID.TID 0000.0001) // =======================================================
(PID.TID 0000.0001) // Begin MONITOR dynamic field statistics
(PID.TID 0000.0001) // =======================================================
(PID.TID 0000.0001) %MON time_tsnumber                =                 25922
(PID.TID 0000.0001) %MON time_secondsf                =   3.1106400000000E+07
(PID.TID 0000.0001) %MON dynstat_eta_max              =   1.9728359773458E+03
(PID.TID 0000.0001) %MON dynstat_eta_min              =  -3.2798840971721E+03
(PID.TID 0000.0001) %MON dynstat_eta_mean             =  -9.6402138049177E-14
(PID.TID 0000.0001) %MON dynstat_eta_sd               =   7.2929970747895E+02
(PID.TID 0000.0001) %MON dynstat_eta_del2             =   3.2305440630896E+01
(PID.TID 0000.0001) %MON dynstat_uvel_max             =   5.4842558208433E+01
(PID.TID 0000.0001) %MON dynstat_uvel_min             =  -6.0653342818473E+01
(PID.TID 0000.0001) %MON dynstat_uvel_mean            =   1.3805008693240E+00
(PID.TID 0000.0001) %MON dynstat_uvel_sd              =   1.0675513229354E+01
(PID.TID 0000.0001) %MON dynstat_uvel_del2            =   9.4466575144343E-01
(PID.TID 0000.0001) %MON dynstat_vvel_max             =   6.1846341263274E+01
(PID.TID 0000.0001) %MON dynstat_vvel_min             =  -5.5616441178181E+01
(PID.TID 0000.0001) %MON dynstat_vvel_mean            =   1.3525869599330E+00
(PID.TID 0000.0001) %MON dynstat_vvel_sd              =   1.1086588547534E+01
(PID.TID 0000.0001) %MON dynstat_vvel_del2            =   9.7943191962292E-01
(PID.TID 0000.0001) %MON dynstat_wvel_max             =   2.4324608078103E+00
(PID.TID 0000.0001) %MON dynstat_wvel_min             =  -3.1350613556287E+00
(PID.TID 0000.0001) %MON dynstat_wvel_mean            =   2.9552118504109E-19
(PID.TID 0000.0001) %MON dynstat_wvel_sd              =   1.3603236752669E-01
(PID.TID 0000.0001) %MON dynstat_wvel_del2            =   3.8126072157578E-02
(PID.TID 0000.0001) %MON dynstat_theta_max            =   4.4915841828097E+02
(PID.TID 0000.0001) %MON dynstat_theta_min            =   2.6473276456637E+02
(PID.TID 0000.0001) %MON dynstat_theta_mean           =   3.2251050490148E+02
(PID.TID 0000.0001) %MON dynstat_theta_sd             =   4.2272824992055E+01
(PID.TID 0000.0001) %MON dynstat_theta_del2           =   5.9953324398343E-01
(PID.TID 0000.0001) %MON dynstat_salt_max             =   0.0000000000000E+00
(PID.TID 0000.0001) %MON dynstat_salt_min             =   0.0000000000000E+00
(PID.TID 0000.0001) %MON dynstat_salt_mean            =   0.0000000000000E+00
(PID.TID 0000.0001) %MON dynstat_salt_sd              =   0.0000000000000E+00
(PID.TID 0000.0001) %MON dynstat_salt_del2            =   0.0000000000000E+00
(PID.TID 0000.0001) %MON advcfl_uvel_max              =   4.4872251149166E-01
(PID.TID 0000.0001) %MON advcfl_vvel_max              =   5.3058346042731E-01
(PID.TID 0000.0001) %MON advcfl_wvel_max              =   1.5048294507018E-01
(PID.TID 0000.0001) %MON advcfl_W_hf_max              =   1.8810368133772E-01
(PID.TID 0000.0001) %MON pe_b_mean                    =   2.2092573526943E+00
(PID.TID 0000.0001) %MON ke_max                       =   2.2967167595538E+03
(PID.TID 0000.0001) %MON ke_mean                      =   1.2030715123341E+02
(PID.TID 0000.0001) %MON ke_vol                       =   5.0986421042785E+19
(PID.TID 0000.0001) %MON vort_r_min                   =  -2.4516244428446E-04
(PID.TID 0000.0001) %MON vort_r_max                   =   2.0674247222058E-04
(PID.TID 0000.0001) %MON vort_a_mean                  =   2.0836518977173E-20
(PID.TID 0000.0001) %MON vort_a_sd                    =   8.9448336476088E-05
(PID.TID 0000.0001) %MON vort_p_mean                  =   2.0836518977173E-20
(PID.TID 0000.0001) %MON vort_p_sd                    =   8.9448336476088E-05
(PID.TID 0000.0001) %MON surfExpan_theta_mean         =  -6.5615699342507E-03
(PID.TID 0000.0001) %MON surfExpan_salt_mean          =   0.0000000000000E+00
(PID.TID 0000.0001) %MON surfExpan_Heat_mean          =  -6.6177107850825E-01
(PID.TID 0000.0001) %MON En_Budget_T2PE_mean          =   2.0017808265464E+00
(PID.TID 0000.0001) // =======================================================
(PID.TID 0000.0001) // End MONITOR dynamic field statistics
(PID.TID 0000.0001) // =======================================================
 cg2d: Sum(rhs),rhsMax =  -2.76486389338970E-10  3.16579879477428E+03
(PID.TID 0000.0001)                    cg2d_init_res =    1.14546360726732E+03
(PID.TID 0000.0001)                       cg2d_iters =    31
(PID.TID 0000.0001)                         cg2d_res =    1.92177277615791E-11
 cg3d: Sum(rhs),rhsMax =  -1.64974479389957E-13  7.06413912925321E+00
(PID.TID 0000.0001)                    cg3d_init_res =    2.11346233025662E+00
(PID.TID 0000.0001)                       cg3d_iters =    17
(PID.TID 0000.0001)                         cg3d_res =    9.86041774778833E-05
(PID.TID 0000.0001) // =======================================================
(PID.TID 0000.0001) // Begin MONITOR dynamic field statistics
(PID.TID 0000.0001) // =======================================================
(PID.TID 0000.0001) %MON time_tsnumber                =                 25923
(PID.TID 0000.0001) %MON time_secondsf                =   3.1107600000000E+07
(PID.TID 0000.0001) %MON dynstat_eta_max              =   1.9746182463159E+03
(PID.TID 0000.0001) %MON dynstat_eta_min              =  -3.2811417376575E+03
(PID.TID 0000.0001) %MON dynstat_eta_mean             =   3.2134046016392E-14
(PID.TID 0000.0001) %MON dynstat_eta_sd               =   7.2945404953961E+02
(PID.TID 0000.0001) %MON dynstat_eta_del2             =   3.2297792237186E+01
(PID.TID 0000.0001) %MON dynstat_uvel_max             =   5.4995244245586E+01
(PID.TID 0000.0001) %MON dynstat_uvel_min             =  -6.0389135076279E+01
(PID.TID 0000.0001) %MON dynstat_uvel_mean            =   1.3815977805853E+00
(PID.TID 0000.0001) %MON dynstat_uvel_sd              =   1.0671029944050E+01
(PID.TID 0000.0001) %MON dynstat_uvel_del2            =   9.4477212300947E-01
(PID.TID 0000.0001) %MON dynstat_vvel_max             =   6.1678919023830E+01
(PID.TID 0000.0001) %MON dynstat_vvel_min             =  -5.5773364401182E+01
(PID.TID 0000.0001) %MON dynstat_vvel_mean            =   1.3534702637191E+00
(PID.TID 0000.0001) %MON dynstat_vvel_sd              =   1.1088333098331E+01
(PID.TID 0000.0001) %MON dynstat_vvel_del2            =   9.7910705797261E-01
(PID.TID 0000.0001) %MON dynstat_wvel_max             =   2.4744472843775E+00
(PID.TID 0000.0001) %MON dynstat_wvel_min             =  -3.1244994619265E+00
(PID.TID 0000.0001) %MON dynstat_wvel_mean            =  -1.3351461611161E-18
(PID.TID 0000.0001) %MON dynstat_wvel_sd              =   1.3598903253856E-01
(PID.TID 0000.0001) %MON dynstat_wvel_del2            =   3.8109939440753E-02
(PID.TID 0000.0001) %MON dynstat_theta_max            =   4.4915805960330E+02
(PID.TID 0000.0001) %MON dynstat_theta_min            =   2.6475708960064E+02
(PID.TID 0000.0001) %MON dynstat_theta_mean           =   3.2251047736438E+02
(PID.TID 0000.0001) %MON dynstat_theta_sd             =   4.2272880594888E+01
(PID.TID 0000.0001) %MON dynstat_theta_del2           =   5.9910400369920E-01
(PID.TID 0000.0001) %MON dynstat_salt_max             =   0.0000000000000E+00
(PID.TID 0000.0001) %MON dynstat_salt_min             =   0.0000000000000E+00
(PID.TID 0000.0001) %MON dynstat_salt_mean            =   0.0000000000000E+00
(PID.TID 0000.0001) %MON dynstat_salt_sd              =   0.0000000000000E+00
(PID.TID 0000.0001) %MON dynstat_salt_del2            =   0.0000000000000E+00
(PID.TID 0000.0001) %MON advcfl_uvel_max              =   4.4727356417378E-01
(PID.TID 0000.0001) %MON advcfl_vvel_max              =   5.2959419484574E-01
(PID.TID 0000.0001) %MON advcfl_wvel_max              =   1.4997597417247E-01
(PID.TID 0000.0001) %MON advcfl_W_hf_max              =   1.8746996771559E-01
(PID.TID 0000.0001) %MON pe_b_mean                    =   2.2101925441112E+00
(PID.TID 0000.0001) %MON ke_max                       =   2.3598606262699E+03
(PID.TID 0000.0001) %MON ke_mean                      =   1.2028135257422E+02
(PID.TID 0000.0001) %MON ke_vol                       =   5.0986421042785E+19
(PID.TID 0000.0001) %MON vort_r_min                   =  -2.3518715728704E-04
(PID.TID 0000.0001) %MON vort_r_max                   =   2.0716402217052E-04
(PID.TID 0000.0001) %MON vort_a_mean                  =  -4.4124393128132E-20
(PID.TID 0000.0001) %MON vort_a_sd                    =   8.9447321192887E-05
(PID.TID 0000.0001) %MON vort_p_mean                  =  -4.4124393128132E-20
(PID.TID 0000.0001) %MON vort_p_sd                    =   8.9447321192887E-05
(PID.TID 0000.0001) %MON surfExpan_theta_mean         =  -5.8659874338861E-03
(PID.TID 0000.0001) %MON surfExpan_salt_mean          =   0.0000000000000E+00
(PID.TID 0000.0001) %MON surfExpan_Heat_mean          =  -5.9161768746461E-01
(PID.TID 0000.0001) %MON En_Budget_T2PE_mean          =   1.9743144088453E+00
(PID.TID 0000.0001) // =======================================================
(PID.TID 0000.0001) // End MONITOR dynamic field statistics
(PID.TID 0000.0001) // =======================================================
 cg2d: Sum(rhs),rhsMax =   3.49245965480804E-10  3.16120832441539E+03
(PID.TID 0000.0001)                    cg2d_init_res =    1.14660435609350E+03
(PID.TID 0000.0001)                       cg2d_iters =    31
(PID.TID 0000.0001)                         cg2d_res =    1.92716277460273E-11
 cg3d: Sum(rhs),rhsMax =  -1.00008868374191E-13  7.29344395278621E+00
(PID.TID 0000.0001)                    cg3d_init_res =    2.05387216679219E+00
(PID.TID 0000.0001)                       cg3d_iters =    17
(PID.TID 0000.0001)                         cg3d_res =    9.44341945968780E-05
(PID.TID 0000.0001) // =======================================================
(PID.TID 0000.0001) // Begin MONITOR dynamic field statistics
(PID.TID 0000.0001) // =======================================================
(PID.TID 0000.0001) %MON time_tsnumber                =                 25924
(PID.TID 0000.0001) %MON time_secondsf                =   3.1108800000000E+07
(PID.TID 0000.0001) %MON dynstat_eta_max              =   1.9746075212698E+03
(PID.TID 0000.0001) %MON dynstat_eta_min              =  -3.2819421850517E+03
(PID.TID 0000.0001) %MON dynstat_eta_mean             =  -1.9280427609835E-14
(PID.TID 0000.0001) %MON dynstat_eta_sd               =   7.2956979847930E+02
(PID.TID 0000.0001) %MON dynstat_eta_del2             =   3.2271266685258E+01
(PID.TID 0000.0001) %MON dynstat_uvel_max             =   5.5117238324511E+01
(PID.TID 0000.0001) %MON dynstat_uvel_min             =  -6.1087402875683E+01
(PID.TID 0000.0001) %MON dynstat_uvel_mean            =   1.3826898752468E+00
(PID.TID 0000.0001) %MON dynstat_uvel_sd              =   1.0666275421295E+01
(PID.TID 0000.0001) %MON dynstat_uvel_del2            =   9.4479860886727E-01
(PID.TID 0000.0001) %MON dynstat_vvel_max             =   6.1578362403308E+01
(PID.TID 0000.0001) %MON dynstat_vvel_min             =  -5.5995165711365E+01
(PID.TID 0000.0001) %MON dynstat_vvel_mean            =   1.3543645911498E+00
(PID.TID 0000.0001) %MON dynstat_vvel_sd              =   1.1089760388804E+01
(PID.TID 0000.0001) %MON dynstat_vvel_del2            =   9.7863758381973E-01
(PID.TID 0000.0001) %MON dynstat_wvel_max             =   2.5104725826184E+00
(PID.TID 0000.0001) %MON dynstat_wvel_min             =  -3.0991732961222E+00
(PID.TID 0000.0001) %MON dynstat_wvel_mean            =   1.8526395367150E-18
(PID.TID 0000.0001) %MON dynstat_wvel_sd              =   1.3593623330051E-01
(PID.TID 0000.0001) %MON dynstat_wvel_del2            =   3.8101861986882E-02
(PID.TID 0000.0001) %MON dynstat_theta_max            =   4.4915811822465E+02
(PID.TID 0000.0001) %MON dynstat_theta_min            =   2.6478378881390E+02
(PID.TID 0000.0001) %MON dynstat_theta_mean           =   3.2251044125012E+02
(PID.TID 0000.0001) %MON dynstat_theta_sd             =   4.2272940852406E+01
(PID.TID 0000.0001) %MON dynstat_theta_del2           =   5.9881776614025E-01
(PID.TID 0000.0001) %MON dynstat_salt_max             =   0.0000000000000E+00
(PID.TID 0000.0001) %MON dynstat_salt_min             =   0.0000000000000E+00
(PID.TID 0000.0001) %MON dynstat_salt_mean            =   0.0000000000000E+00
(PID.TID 0000.0001) %MON dynstat_salt_sd              =   0.0000000000000E+00
(PID.TID 0000.0001) %MON dynstat_salt_del2            =   0.0000000000000E+00
(PID.TID 0000.0001) %MON advcfl_uvel_max              =   4.4566173911788E-01
(PID.TID 0000.0001) %MON advcfl_vvel_max              =   5.2793278560734E-01
(PID.TID 0000.0001) %MON advcfl_wvel_max              =   1.4876031821387E-01
(PID.TID 0000.0001) %MON advcfl_W_hf_max              =   1.8595039776733E-01
(PID.TID 0000.0001) %MON pe_b_mean                    =   2.2108940214444E+00
(PID.TID 0000.0001) %MON ke_max                       =   2.4390203329933E+03
(PID.TID 0000.0001) %MON ke_mean                      =   1.2024917579044E+02
(PID.TID 0000.0001) %MON ke_vol                       =   5.0986421042785E+19
(PID.TID 0000.0001) %MON vort_r_min                   =  -2.2940983653229E-04
(PID.TID 0000.0001) %MON vort_r_max                   =   2.0711405461743E-04
(PID.TID 0000.0001) %MON vort_a_mean                  =   8.5797431082479E-21
(PID.TID 0000.0001) %MON vort_a_sd                    =   8.9446228103713E-05
(PID.TID 0000.0001) %MON vort_p_mean                  =   8.5797431082479E-21
(PID.TID 0000.0001) %MON vort_p_sd                    =   8.9446228103713E-05
(PID.TID 0000.0001) %MON surfExpan_theta_mean         =  -5.3404780945995E-03
(PID.TID 0000.0001) %MON surfExpan_salt_mean          =   0.0000000000000E+00
(PID.TID 0000.0001) %MON surfExpan_Heat_mean          =  -5.3861712727694E-01
(PID.TID 0000.0001) %MON En_Budget_T2PE_mean          =   1.9509542923504E+00
(PID.TID 0000.0001) // =======================================================
(PID.TID 0000.0001) // End MONITOR dynamic field statistics
(PID.TID 0000.0001) // =======================================================
 Compute Stats, Diag. #     23  ETAN      vol(   0 ): 5.099E+14  Parms: SM      M1      
 Compute Stats, Diag. #     29  UVEL      vol(   0 ): 5.099E+19  Parms: UU      MR      
 Compute Stats, Diag. #     30  VVEL      vol(   0 ): 5.099E+19  Parms: VV      MR      
 Compute Stats, Diag. #     31  WVEL      vol(   0 ): 4.716E+19  Parms: WM      LR      
 Compute Stats, Diag. #     26  THETA     vol(   0 ): 5.099E+19  Parms: SM      MR      
 Compute Stats, Diag. #     65  PHIHYD    vol(   0 ): 5.099E+19  Parms: SM      MR      
 Compute Stats, Diag. #     25  DETADT2   vol(   0 ): 5.099E+14  Parms: SM      M1      
 cg2d: Sum(rhs),rhsMax =   1.16415321826935E-10  3.15598211214555E+03
(PID.TID 0000.0001)                    cg2d_init_res =    1.14673538307886E+03
(PID.TID 0000.0001)                       cg2d_iters =    31
(PID.TID 0000.0001)                         cg2d_res =    1.93096802860696E-11
 cg3d: Sum(rhs),rhsMax =  -1.71762574324198E-13  7.51188193015562E+00
(PID.TID 0000.0001)                    cg3d_init_res =    2.00044546397459E+00
(PID.TID 0000.0001)                       cg3d_iters =    17
(PID.TID 0000.0001)                         cg3d_res =    8.92690881513722E-05
(PID.TID 0000.0001) // =======================================================
(PID.TID 0000.0001) // Begin MONITOR dynamic field statistics
(PID.TID 0000.0001) // =======================================================
(PID.TID 0000.0001) %MON time_tsnumber                =                 25925
(PID.TID 0000.0001) %MON time_secondsf                =   3.1110000000000E+07
(PID.TID 0000.0001) %MON dynstat_eta_max              =   1.9726717031597E+03
(PID.TID 0000.0001) %MON dynstat_eta_min              =  -3.2821805686775E+03
(PID.TID 0000.0001) %MON dynstat_eta_mean             =  -2.8920641414753E-14
(PID.TID 0000.0001) %MON dynstat_eta_sd               =   7.2959757756319E+02
(PID.TID 0000.0001) %MON dynstat_eta_del2             =   3.2242797325135E+01
(PID.TID 0000.0001) %MON dynstat_uvel_max             =   5.5206623281888E+01
(PID.TID 0000.0001) %MON dynstat_uvel_min             =  -6.1501760971709E+01
(PID.TID 0000.0001) %MON dynstat_uvel_mean            =   1.3838040981817E+00
(PID.TID 0000.0001) %MON dynstat_uvel_sd              =   1.0661461946648E+01
(PID.TID 0000.0001) %MON dynstat_uvel_del2            =   9.4492289281284E-01
(PID.TID 0000.0001) %MON dynstat_vvel_max             =   6.1964980523315E+01
(PID.TID 0000.0001) %MON dynstat_vvel_min             =  -5.6225961760800E+01
(PID.TID 0000.0001) %MON dynstat_vvel_mean            =   1.3552921334245E+00
(PID.TID 0000.0001) %MON dynstat_vvel_sd              =   1.1091067260706E+01
(PID.TID 0000.0001) %MON dynstat_vvel_del2            =   9.7787617563110E-01
(PID.TID 0000.0001) %MON dynstat_wvel_max             =   2.5404165338813E+00
(PID.TID 0000.0001) %MON dynstat_wvel_min             =  -3.0610815230010E+00
(PID.TID 0000.0001) %MON dynstat_wvel_mean            =  -7.6066887988155E-19
(PID.TID 0000.0001) %MON dynstat_wvel_sd              =   1.3587540227952E-01
(PID.TID 0000.0001) %MON dynstat_wvel_del2            =   3.8105233613466E-02
(PID.TID 0000.0001) %MON dynstat_theta_max            =   4.4915855289011E+02
(PID.TID 0000.0001) %MON dynstat_theta_min            =   2.6481288452299E+02
(PID.TID 0000.0001) %MON dynstat_theta_mean           =   3.2251039860020E+02
(PID.TID 0000.0001) %MON dynstat_theta_sd             =   4.2273002655941E+01
(PID.TID 0000.0001) %MON dynstat_theta_del2           =   5.9864108183437E-01
(PID.TID 0000.0001) %MON dynstat_salt_max             =   0.0000000000000E+00
(PID.TID 0000.0001) %MON dynstat_salt_min             =   0.0000000000000E+00
(PID.TID 0000.0001) %MON dynstat_salt_mean            =   0.0000000000000E+00
(PID.TID 0000.0001) %MON dynstat_salt_sd              =   0.0000000000000E+00
(PID.TID 0000.0001) %MON dynstat_salt_del2            =   0.0000000000000E+00
(PID.TID 0000.0001) %MON advcfl_uvel_max              =   4.4381721389334E-01
(PID.TID 0000.0001) %MON advcfl_vvel_max              =   5.2558248921077E-01
(PID.TID 0000.0001) %MON advcfl_wvel_max              =   1.4693191310405E-01
(PID.TID 0000.0001) %MON advcfl_W_hf_max              =   1.8366489138006E-01
(PID.TID 0000.0001) %MON pe_b_mean                    =   2.2110623885557E+00
(PID.TID 0000.0001) %MON ke_max                       =   2.5126432983264E+03
(PID.TID 0000.0001) %MON ke_mean                      =   1.2021513718520E+02
(PID.TID 0000.0001) %MON ke_vol                       =   5.0986421042785E+19
(PID.TID 0000.0001) %MON vort_r_min                   =  -2.2754600977112E-04
(PID.TID 0000.0001) %MON vort_r_max                   =   2.0657704529772E-04
(PID.TID 0000.0001) %MON vort_a_mean                  =   1.2256775868926E-20
(PID.TID 0000.0001) %MON vort_a_sd                    =   8.9445186889214E-05
(PID.TID 0000.0001) %MON vort_p_mean                  =   1.2256775868926E-20
(PID.TID 0000.0001) %MON vort_p_sd                    =   8.9445186889214E-05
(PID.TID 0000.0001) %MON surfExpan_theta_mean         =  -5.0116151905528E-03
(PID.TID 0000.0001) %MON surfExpan_salt_mean          =   0.0000000000000E+00
(PID.TID 0000.0001) %MON surfExpan_Heat_mean          =  -5.0544946147850E-01
(PID.TID 0000.0001) %MON En_Budget_T2PE_mean          =   1.9333079535828E+00
(PID.TID 0000.0001) // =======================================================
(PID.TID 0000.0001) // End MONITOR dynamic field statistics
(PID.TID 0000.0001) // =======================================================
 cg2d: Sum(rhs),rhsMax =  -1.30967237055302E-10  3.15009575394961E+03
(PID.TID 0000.0001)                    cg2d_init_res =    1.14517460544114E+03
(PID.TID 0000.0001)                       cg2d_iters =    31
(PID.TID 0000.0001)                         cg2d_res =    1.93248460491483E-11
 cg3d: Sum(rhs),rhsMax =   7.25519904570815E-14  7.71552024614853E+00
(PID.TID 0000.0001)                    cg3d_init_res =    1.95184572824149E+00
(PID.TID 0000.0001)                       cg3d_iters =    17
(PID.TID 0000.0001)                         cg3d_res =    8.37631248408569E-05
(PID.TID 0000.0001) // =======================================================
(PID.TID 0000.0001) // Begin MONITOR dynamic field statistics
(PID.TID 0000.0001) // =======================================================
(PID.TID 0000.0001) %MON time_tsnumber                =                 25926
(PID.TID 0000.0001) %MON time_secondsf                =   3.1111200000000E+07
(PID.TID 0000.0001) %MON dynstat_eta_max              =   1.9688309581186E+03
(PID.TID 0000.0001) %MON dynstat_eta_min              =  -3.2818051064581E+03
(PID.TID 0000.0001) %MON dynstat_eta_mean             =  -7.3908305837703E-14
(PID.TID 0000.0001) %MON dynstat_eta_sd               =   7.2951896107477E+02
(PID.TID 0000.0001) %MON dynstat_eta_del2             =   3.2224292261606E+01
(PID.TID 0000.0001) %MON dynstat_uvel_max             =   5.5260269368092E+01
(PID.TID 0000.0001) %MON dynstat_uvel_min             =  -6.1524023525463E+01
(PID.TID 0000.0001) %MON dynstat_uvel_mean            =   1.3849508379710E+00
(PID.TID 0000.0001) %MON dynstat_uvel_sd              =   1.0656633597915E+01
(PID.TID 0000.0001) %MON dynstat_uvel_del2            =   9.4492985728451E-01
(PID.TID 0000.0001) %MON dynstat_vvel_max             =   6.2287026990677E+01
(PID.TID 0000.0001) %MON dynstat_vvel_min             =  -5.6393735587029E+01
(PID.TID 0000.0001) %MON dynstat_vvel_mean            =   1.3562495383799E+00
(PID.TID 0000.0001) %MON dynstat_vvel_sd              =   1.1092285473965E+01
(PID.TID 0000.0001) %MON dynstat_vvel_del2            =   9.7717828361699E-01
(PID.TID 0000.0001) %MON dynstat_wvel_max             =   2.5642434147380E+00
(PID.TID 0000.0001) %MON dynstat_wvel_min             =  -3.0121867580026E+00
(PID.TID 0000.0001) %MON dynstat_wvel_mean            =  -1.5902485293691E-18
(PID.TID 0000.0001) %MON dynstat_wvel_sd              =   1.3580830283367E-01
(PID.TID 0000.0001) %MON dynstat_wvel_del2            =   3.8138855670137E-02
(PID.TID 0000.0001) %MON dynstat_theta_max            =   4.4915918463916E+02
(PID.TID 0000.0001) %MON dynstat_theta_min            =   2.6484436587198E+02
(PID.TID 0000.0001) %MON dynstat_theta_mean           =   3.2251035177125E+02
(PID.TID 0000.0001) %MON dynstat_theta_sd             =   4.2273064213498E+01
(PID.TID 0000.0001) %MON dynstat_theta_del2           =   5.9860275712377E-01
(PID.TID 0000.0001) %MON dynstat_salt_max             =   0.0000000000000E+00
(PID.TID 0000.0001) %MON dynstat_salt_min             =   0.0000000000000E+00
(PID.TID 0000.0001) %MON dynstat_salt_mean            =   0.0000000000000E+00
(PID.TID 0000.0001) %MON dynstat_salt_sd              =   0.0000000000000E+00
(PID.TID 0000.0001) %MON dynstat_salt_del2            =   0.0000000000000E+00
(PID.TID 0000.0001) %MON advcfl_uvel_max              =   4.4180508443788E-01
(PID.TID 0000.0001) %MON advcfl_vvel_max              =   5.2252834336443E-01
(PID.TID 0000.0001) %MON advcfl_wvel_max              =   1.4458496438412E-01
(PID.TID 0000.0001) %MON advcfl_W_hf_max              =   1.8073120548016E-01
(PID.TID 0000.0001) %MON pe_b_mean                    =   2.2105859160431E+00
(PID.TID 0000.0001) %MON ke_max                       =   2.5751574280297E+03
(PID.TID 0000.0001) %MON ke_mean                      =   1.2018006915505E+02
(PID.TID 0000.0001) %MON ke_vol                       =   5.0986421042785E+19
(PID.TID 0000.0001) %MON vort_r_min                   =  -2.2619966277554E-04
(PID.TID 0000.0001) %MON vort_r_max                   =   2.0554289143980E-04
(PID.TID 0000.0001) %MON vort_a_mean                  =   5.0252781062595E-20
(PID.TID 0000.0001) %MON vort_a_sd                    =   8.9444219613631E-05
(PID.TID 0000.0001) %MON vort_p_mean                  =   5.0252781062595E-20
(PID.TID 0000.0001) %MON vort_p_sd                    =   8.9444219613631E-05
(PID.TID 0000.0001) %MON surfExpan_theta_mean         =  -4.8229518387351E-03
(PID.TID 0000.0001) %MON surfExpan_salt_mean          =   0.0000000000000E+00
(PID.TID 0000.0001) %MON surfExpan_Heat_mean          =  -4.8642170576476E-01
(PID.TID 0000.0001) %MON En_Budget_T2PE_mean          =   1.9200904374921E+00
(PID.TID 0000.0001) // =======================================================
(PID.TID 0000.0001) // End MONITOR dynamic field statistics
(PID.TID 0000.0001) // =======================================================
 cg2d: Sum(rhs),rhsMax =   2.91038304567337E-11  3.14348180649027E+03
(PID.TID 0000.0001)                    cg2d_init_res =    1.14168892257961E+03
(PID.TID 0000.0001)                       cg2d_iters =    31
(PID.TID 0000.0001)                         cg2d_res =    1.93151066779294E-11
 cg3d: Sum(rhs),rhsMax =  -1.62648323628889E-13  7.90071242476807E+00
(PID.TID 0000.0001)                    cg3d_init_res =    1.90692576877763E+00
(PID.TID 0000.0001)                       cg3d_iters =    17
(PID.TID 0000.0001)                         cg3d_res =    7.92340322931505E-05
(PID.TID 0000.0001) // =======================================================
(PID.TID 0000.0001) // Begin MONITOR dynamic field statistics
(PID.TID 0000.0001) // =======================================================
(PID.TID 0000.0001) %MON time_tsnumber                =                 25927
(PID.TID 0000.0001) %MON time_secondsf                =   3.1112400000000E+07
(PID.TID 0000.0001) %MON dynstat_eta_max              =   1.9631962377398E+03
(PID.TID 0000.0001) %MON dynstat_eta_min              =  -3.2807503802550E+03
(PID.TID 0000.0001) %MON dynstat_eta_mean             =   9.6402138049177E-14
(PID.TID 0000.0001) %MON dynstat_eta_sd               =   7.2933328116584E+02
(PID.TID 0000.0001) %MON dynstat_eta_del2             =   3.2217876277170E+01
(PID.TID 0000.0001) %MON dynstat_uvel_max             =   5.5275083668496E+01
(PID.TID 0000.0001) %MON dynstat_uvel_min             =  -6.1126580093673E+01
(PID.TID 0000.0001) %MON dynstat_uvel_mean            =   1.3861399348484E+00
(PID.TID 0000.0001) %MON dynstat_uvel_sd              =   1.0651816292365E+01
(PID.TID 0000.0001) %MON dynstat_uvel_del2            =   9.4506281304008E-01
(PID.TID 0000.0001) %MON dynstat_vvel_max             =   6.2544481640614E+01
(PID.TID 0000.0001) %MON dynstat_vvel_min             =  -5.6424607267195E+01
(PID.TID 0000.0001) %MON dynstat_vvel_mean            =   1.3572351730980E+00
(PID.TID 0000.0001) %MON dynstat_vvel_sd              =   1.1093418908319E+01
(PID.TID 0000.0001) %MON dynstat_vvel_del2            =   9.7647387926973E-01
(PID.TID 0000.0001) %MON dynstat_wvel_max             =   2.5819392472210E+00
(PID.TID 0000.0001) %MON dynstat_wvel_min             =  -2.9545368716375E+00
(PID.TID 0000.0001) %MON dynstat_wvel_mean            =   1.8075824950495E-18
(PID.TID 0000.0001) %MON dynstat_wvel_sd              =   1.3573628658480E-01
(PID.TID 0000.0001) %MON dynstat_wvel_del2            =   3.8170011742019E-02
(PID.TID 0000.0001) %MON dynstat_theta_max            =   4.4915974018492E+02
(PID.TID 0000.0001) %MON dynstat_theta_min            =   2.6487819308080E+02
(PID.TID 0000.0001) %MON dynstat_theta_mean           =   3.2251030244255E+02
(PID.TID 0000.0001) %MON dynstat_theta_sd             =   4.2273124143176E+01
(PID.TID 0000.0001) %MON dynstat_theta_del2           =   5.9866175092457E-01
(PID.TID 0000.0001) %MON dynstat_salt_max             =   0.0000000000000E+00
(PID.TID 0000.0001) %MON dynstat_salt_min             =   0.0000000000000E+00
(PID.TID 0000.0001) %MON dynstat_salt_mean            =   0.0000000000000E+00
(PID.TID 0000.0001) %MON dynstat_salt_sd              =   0.0000000000000E+00
(PID.TID 0000.0001) %MON dynstat_salt_del2            =   0.0000000000000E+00
(PID.TID 0000.0001) %MON advcfl_uvel_max              =   4.3980261082641E-01
(PID.TID 0000.0001) %MON advcfl_vvel_max              =   5.1876487670162E-01
(PID.TID 0000.0001) %MON advcfl_wvel_max              =   1.4181776983860E-01
(PID.TID 0000.0001) %MON advcfl_W_hf_max              =   1.7727221229825E-01
(PID.TID 0000.0001) %MON pe_b_mean                    =   2.2094607659719E+00
(PID.TID 0000.0001) %MON ke_max                       =   2.6217343496565E+03
(PID.TID 0000.0001) %MON ke_mean                      =   1.2014430231791E+02
(PID.TID 0000.0001) %MON ke_vol                       =   5.0986421042785E+19
(PID.TID 0000.0001) %MON vort_r_min                   =  -2.2539286744930E-04
(PID.TID 0000.0001) %MON vort_r_max                   =   2.0401032897156E-04
(PID.TID 0000.0001) %MON vort_a_mean                  =   2.6964906911636E-20
(PID.TID 0000.0001) %MON vort_a_sd                    =   8.9443331577888E-05
(PID.TID 0000.0001) %MON vort_p_mean                  =   2.6964906911636E-20
(PID.TID 0000.0001) %MON vort_p_sd                    =   8.9443331577888E-05
(PID.TID 0000.0001) %MON surfExpan_theta_mean         =  -4.7594203303285E-03
(PID.TID 0000.0001) %MON surfExpan_salt_mean          =   0.0000000000000E+00
(PID.TID 0000.0001) %MON surfExpan_Heat_mean          =  -4.8001419730889E-01
(PID.TID 0000.0001) %MON En_Budget_T2PE_mean          =   1.9108658353040E+00
(PID.TID 0000.0001) // =======================================================
(PID.TID 0000.0001) // End MONITOR dynamic field statistics
(PID.TID 0000.0001) // =======================================================
 Compute Stats, Diag. #     23  ETAN      vol(   0 ): 5.099E+14  Parms: SM      M1      
 Compute Stats, Diag. #     29  UVEL      vol(   0 ): 5.099E+19  Parms: UU      MR      
 Compute Stats, Diag. #     30  VVEL      vol(   0 ): 5.099E+19  Parms: VV      MR      
 Compute Stats, Diag. #     31  WVEL      vol(   0 ): 4.716E+19  Parms: WM      LR      
 Compute Stats, Diag. #     26  THETA     vol(   0 ): 5.099E+19  Parms: SM      MR      
 Compute Stats, Diag. #     65  PHIHYD    vol(   0 ): 5.099E+19  Parms: SM      MR      
 Compute Stats, Diag. #     25  DETADT2   vol(   0 ): 5.099E+14  Parms: SM      M1      
 cg2d: Sum(rhs),rhsMax =   1.30967237055302E-10  3.13609110433739E+03
(PID.TID 0000.0001)                    cg2d_init_res =    1.13633829945329E+03
(PID.TID 0000.0001)                       cg2d_iters =    31
(PID.TID 0000.0001)                         cg2d_res =    1.92792779155292E-11
 cg3d: Sum(rhs),rhsMax =   4.46869917371945E-14  8.06399537469393E+00
(PID.TID 0000.0001)                    cg3d_init_res =    1.86449994195910E+00
(PID.TID 0000.0001)                       cg3d_iters =    17
(PID.TID 0000.0001)                         cg3d_res =    7.60474853108180E-05
(PID.TID 0000.0001) // =======================================================
(PID.TID 0000.0001) // Begin MONITOR dynamic field statistics
(PID.TID 0000.0001) // =======================================================
(PID.TID 0000.0001) %MON time_tsnumber                =                 25928
(PID.TID 0000.0001) %MON time_secondsf                =   3.1113600000000E+07
(PID.TID 0000.0001) %MON dynstat_eta_max              =   1.9559295228436E+03
(PID.TID 0000.0001) %MON dynstat_eta_min              =  -3.2789614779857E+03
(PID.TID 0000.0001) %MON dynstat_eta_mean             =   1.9280427609835E-14
(PID.TID 0000.0001) %MON dynstat_eta_sd               =   7.2905139720874E+02
(PID.TID 0000.0001) %MON dynstat_eta_del2             =   3.2214167017153E+01
(PID.TID 0000.0001) %MON dynstat_uvel_max             =   5.5248485192028E+01
(PID.TID 0000.0001) %MON dynstat_uvel_min             =  -6.0330195018112E+01
(PID.TID 0000.0001) %MON dynstat_uvel_mean            =   1.3873813950838E+00
(PID.TID 0000.0001) %MON dynstat_uvel_sd              =   1.0647041847982E+01
(PID.TID 0000.0001) %MON dynstat_uvel_del2            =   9.4493748840309E-01
(PID.TID 0000.0001) %MON dynstat_vvel_max             =   6.2738203781036E+01
(PID.TID 0000.0001) %MON dynstat_vvel_min             =  -5.6258535392578E+01
(PID.TID 0000.0001) %MON dynstat_vvel_mean            =   1.3582487263723E+00
(PID.TID 0000.0001) %MON dynstat_vvel_sd              =   1.1094477784727E+01
(PID.TID 0000.0001) %MON dynstat_vvel_del2            =   9.7585320488335E-01
(PID.TID 0000.0001) %MON dynstat_wvel_max             =   2.5935184739692E+00
(PID.TID 0000.0001) %MON dynstat_wvel_min             =  -2.8901501358053E+00
(PID.TID 0000.0001) %MON dynstat_wvel_mean            =   1.8446882940681E-18
(PID.TID 0000.0001) %MON dynstat_wvel_sd              =   1.3565945323741E-01
(PID.TID 0000.0001) %MON dynstat_wvel_del2            =   3.8189076825795E-02
(PID.TID 0000.0001) %MON dynstat_theta_max            =   4.4915989384591E+02
(PID.TID 0000.0001) %MON dynstat_theta_min            =   2.6491432879997E+02
(PID.TID 0000.0001) %MON dynstat_theta_mean           =   3.2251025211288E+02
(PID.TID 0000.0001) %MON dynstat_theta_sd             =   4.2273181349639E+01
(PID.TID 0000.0001) %MON dynstat_theta_del2           =   5.9874636802324E-01
(PID.TID 0000.0001) %MON dynstat_salt_max             =   0.0000000000000E+00
(PID.TID 0000.0001) %MON dynstat_salt_min             =   0.0000000000000E+00
(PID.TID 0000.0001) %MON dynstat_salt_mean            =   0.0000000000000E+00
(PID.TID 0000.0001) %MON dynstat_salt_sd              =   0.0000000000000E+00
(PID.TID 0000.0001) %MON dynstat_salt_del2            =   0.0000000000000E+00
(PID.TID 0000.0001) %MON advcfl_uvel_max              =   4.3804394942578E-01
(PID.TID 0000.0001) %MON advcfl_vvel_max              =   5.1429747331807E-01
(PID.TID 0000.0001) %MON advcfl_wvel_max              =   1.3872720651866E-01
(PID.TID 0000.0001) %MON advcfl_W_hf_max              =   1.7340900814832E-01
(PID.TID 0000.0001) %MON pe_b_mean                    =   2.2077532031801E+00
(PID.TID 0000.0001) %MON ke_max                       =   2.6489481533243E+03
(PID.TID 0000.0001) %MON ke_mean                      =   1.2010830208330E+02
(PID.TID 0000.0001) %MON ke_vol                       =   5.0986421042785E+19
(PID.TID 0000.0001) %MON vort_r_min                   =  -2.2512055933779E-04
(PID.TID 0000.0001) %MON vort_r_max                   =   2.0198790011497E-04
(PID.TID 0000.0001) %MON vort_a_mean                  =   1.2256775868926E-21
(PID.TID 0000.0001) %MON vort_a_sd                    =   8.9442531064590E-05
(PID.TID 0000.0001) %MON vort_p_mean                  =   1.2256775868926E-21
(PID.TID 0000.0001) %MON vort_p_sd                    =   8.9442531064590E-05
(PID.TID 0000.0001) %MON surfExpan_theta_mean         =  -4.8153038702647E-03
(PID.TID 0000.0001) %MON surfExpan_salt_mean          =   0.0000000000000E+00
(PID.TID 0000.0001) %MON surfExpan_Heat_mean          =  -4.8565036530908E-01
(PID.TID 0000.0001) %MON En_Budget_T2PE_mean          =   1.9052823540057E+00
(PID.TID 0000.0001) // =======================================================
(PID.TID 0000.0001) // End MONITOR dynamic field statistics
(PID.TID 0000.0001) // =======================================================
 cg2d: Sum(rhs),rhsMax =  -1.30967237055302E-10  3.12791838615984E+03
(PID.TID 0000.0001)                    cg2d_init_res =    1.12941070509354E+03
(PID.TID 0000.0001)                       cg2d_iters =    31
(PID.TID 0000.0001)                         cg2d_res =    1.92172211785829E-11
 cg3d: Sum(rhs),rhsMax =  -8.96747818146179E-14  8.20222105447261E+00
(PID.TID 0000.0001)                    cg3d_init_res =    1.82416305041502E+00
(PID.TID 0000.0001)                       cg3d_iters =    17
(PID.TID 0000.0001)                         cg3d_res =    7.43131541828510E-05
(PID.TID 0000.0001) // =======================================================
(PID.TID 0000.0001) // Begin MONITOR dynamic field statistics
(PID.TID 0000.0001) // =======================================================
(PID.TID 0000.0001) %MON time_tsnumber                =                 25929
(PID.TID 0000.0001) %MON time_secondsf                =   3.1114800000000E+07
(PID.TID 0000.0001) %MON dynstat_eta_max              =   1.9522297361836E+03
(PID.TID 0000.0001) %MON dynstat_eta_min              =  -3.2764164294185E+03
(PID.TID 0000.0001) %MON dynstat_eta_mean             =  -1.2210937486229E-13
(PID.TID 0000.0001) %MON dynstat_eta_sd               =   7.2869089524868E+02
(PID.TID 0000.0001) %MON dynstat_eta_del2             =   3.2205861117137E+01
(PID.TID 0000.0001) %MON dynstat_uvel_max             =   5.5178626494904E+01
(PID.TID 0000.0001) %MON dynstat_uvel_min             =  -5.9195882395720E+01
(PID.TID 0000.0001) %MON dynstat_uvel_mean            =   1.3886829744369E+00
(PID.TID 0000.0001) %MON dynstat_uvel_sd              =   1.0642336627013E+01
(PID.TID 0000.0001) %MON dynstat_uvel_del2            =   9.4466673143103E-01
(PID.TID 0000.0001) %MON dynstat_vvel_max             =   6.2869756352922E+01
(PID.TID 0000.0001) %MON dynstat_vvel_min             =  -5.5861115231320E+01
(PID.TID 0000.0001) %MON dynstat_vvel_mean            =   1.3592913542802E+00
(PID.TID 0000.0001) %MON dynstat_vvel_sd              =   1.1095466032363E+01
(PID.TID 0000.0001) %MON dynstat_vvel_del2            =   9.7534906993480E-01
(PID.TID 0000.0001) %MON dynstat_wvel_max             =   2.5990160143427E+00
(PID.TID 0000.0001) %MON dynstat_wvel_min             =  -2.8209400362275E+00
(PID.TID 0000.0001) %MON dynstat_wvel_mean            =   9.7535243134637E-19
(PID.TID 0000.0001) %MON dynstat_wvel_sd              =   1.3557712107634E-01
(PID.TID 0000.0001) %MON dynstat_wvel_del2            =   3.8197449673653E-02
(PID.TID 0000.0001) %MON dynstat_theta_max            =   4.4915930502819E+02
(PID.TID 0000.0001) %MON dynstat_theta_min            =   2.6495274015114E+02
(PID.TID 0000.0001) %MON dynstat_theta_mean           =   3.2251020221256E+02
(PID.TID 0000.0001) %MON dynstat_theta_sd             =   4.2273234921360E+01
(PID.TID 0000.0001) %MON dynstat_theta_del2           =   5.9876779216871E-01
(PID.TID 0000.0001) %MON dynstat_salt_max             =   0.0000000000000E+00
(PID.TID 0000.0001) %MON dynstat_salt_min             =   0.0000000000000E+00
(PID.TID 0000.0001) %MON dynstat_salt_mean            =   0.0000000000000E+00
(PID.TID 0000.0001) %MON dynstat_salt_sd              =   0.0000000000000E+00
(PID.TID 0000.0001) %MON dynstat_salt_del2            =   0.0000000000000E+00
(PID.TID 0000.0001) %MON advcfl_uvel_max              =   4.3675149235581E-01
(PID.TID 0000.0001) %MON advcfl_vvel_max              =   5.0914131747515E-01
(PID.TID 0000.0001) %MON advcfl_wvel_max              =   1.3540512173892E-01
(PID.TID 0000.0001) %MON advcfl_W_hf_max              =   1.6925640217365E-01
(PID.TID 0000.0001) %MON pe_b_mean                    =   2.2055703596066E+00
(PID.TID 0000.0001) %MON ke_max                       =   2.6551311976784E+03
(PID.TID 0000.0001) %MON ke_mean                      =   1.2007240437365E+02
(PID.TID 0000.0001) %MON ke_vol                       =   5.0986421042785E+19
(PID.TID 0000.0001) %MON vort_r_min                   =  -2.2535476782395E-04
(PID.TID 0000.0001) %MON vort_r_max                   =   1.9949408988950E-04
(PID.TID 0000.0001) %MON vort_a_mean                  =   1.4708131042711E-20
(PID.TID 0000.0001) %MON vort_a_sd                    =   8.9441822800159E-05
(PID.TID 0000.0001) %MON vort_p_mean                  =   1.4708131042711E-20
(PID.TID 0000.0001) %MON vort_p_sd                    =   8.9441822800159E-05
(PID.TID 0000.0001) %MON surfExpan_theta_mean         =  -4.9906990154529E-03
(PID.TID 0000.0001) %MON surfExpan_salt_mean          =   0.0000000000000E+00
(PID.TID 0000.0001) %MON surfExpan_Heat_mean          =  -5.0333994807043E-01
(PID.TID 0000.0001) %MON En_Budget_T2PE_mean          =   1.9030433388213E+00
(PID.TID 0000.0001) // =======================================================
(PID.TID 0000.0001) // End MONITOR dynamic field statistics
(PID.TID 0000.0001) // =======================================================
 cg2d: Sum(rhs),rhsMax =   1.45519152283669E-11  3.11899420819429E+03
(PID.TID 0000.0001)                    cg2d_init_res =    1.12134489582615E+03
(PID.TID 0000.0001)                       cg2d_iters =    31
(PID.TID 0000.0001)                         cg2d_res =    1.91307396403510E-11
 cg3d: Sum(rhs),rhsMax =  -5.69464180671941E-14  8.31264983137298E+00
(PID.TID 0000.0001)                    cg3d_init_res =    1.78642820346817E+00
(PID.TID 0000.0001)                       cg3d_iters =    17
(PID.TID 0000.0001)                         cg3d_res =    7.37905510386270E-05
(PID.TID 0000.0001) // =======================================================
(PID.TID 0000.0001) // Begin MONITOR dynamic field statistics
(PID.TID 0000.0001) // =======================================================
(PID.TID 0000.0001) %MON time_tsnumber                =                 25930
(PID.TID 0000.0001) %MON time_secondsf                =   3.1116000000000E+07
(PID.TID 0000.0001) %MON dynstat_eta_max              =   1.9593837315349E+03
(PID.TID 0000.0001) %MON dynstat_eta_min              =  -3.2731237869428E+03
(PID.TID 0000.0001) %MON dynstat_eta_mean             =  -1.2853618406557E-14
(PID.TID 0000.0001) %MON dynstat_eta_sd               =   7.2827181582493E+02
(PID.TID 0000.0001) %MON dynstat_eta_del2             =   3.2207271500052E+01
(PID.TID 0000.0001) %MON dynstat_uvel_max             =   5.5064592337013E+01
(PID.TID 0000.0001) %MON dynstat_uvel_min             =  -5.7809960377954E+01
(PID.TID 0000.0001) %MON dynstat_uvel_mean            =   1.3900496445291E+00
(PID.TID 0000.0001) %MON dynstat_uvel_sd              =   1.0637724658309E+01
(PID.TID 0000.0001) %MON dynstat_uvel_del2            =   9.4429668131565E-01
(PID.TID 0000.0001) %MON dynstat_vvel_max             =   6.2941232410952E+01
(PID.TID 0000.0001) %MON dynstat_vvel_min             =  -5.6454533772449E+01
(PID.TID 0000.0001) %MON dynstat_vvel_mean            =   1.3603662459413E+00
(PID.TID 0000.0001) %MON dynstat_vvel_sd              =   1.1096384232658E+01
(PID.TID 0000.0001) %MON dynstat_vvel_del2            =   9.7504718018718E-01
(PID.TID 0000.0001) %MON dynstat_wvel_max             =   2.5984787381698E+00
(PID.TID 0000.0001) %MON dynstat_wvel_min             =  -2.7486675515025E+00
(PID.TID 0000.0001) %MON dynstat_wvel_mean            =  -3.2865136273628E-19
(PID.TID 0000.0001) %MON dynstat_wvel_sd              =   1.3548813622446E-01
(PID.TID 0000.0001) %MON dynstat_wvel_del2            =   3.8208124392290E-02
(PID.TID 0000.0001) %MON dynstat_theta_max            =   4.4915764801843E+02
(PID.TID 0000.0001) %MON dynstat_theta_min            =   2.6499339378232E+02
(PID.TID 0000.0001) %MON dynstat_theta_mean           =   3.2251015417315E+02
(PID.TID 0000.0001) %MON dynstat_theta_sd             =   4.2273284033152E+01
(PID.TID 0000.0001) %MON dynstat_theta_del2           =   5.9885941211371E-01
(PID.TID 0000.0001) %MON dynstat_salt_max             =   0.0000000000000E+00
(PID.TID 0000.0001) %MON dynstat_salt_min             =   0.0000000000000E+00
(PID.TID 0000.0001) %MON dynstat_salt_mean            =   0.0000000000000E+00
(PID.TID 0000.0001) %MON dynstat_salt_sd              =   0.0000000000000E+00
(PID.TID 0000.0001) %MON dynstat_salt_del2            =   0.0000000000000E+00
(PID.TID 0000.0001) %MON advcfl_uvel_max              =   4.3606993109680E-01
(PID.TID 0000.0001) %MON advcfl_vvel_max              =   5.0332090380889E-01
(PID.TID 0000.0001) %MON advcfl_wvel_max              =   1.3193604247212E-01
(PID.TID 0000.0001) %MON advcfl_W_hf_max              =   1.6492005309015E-01
(PID.TID 0000.0001) %MON pe_b_mean                    =   2.2030341858452E+00
(PID.TID 0000.0001) %MON ke_max                       =   2.6404081094543E+03
(PID.TID 0000.0001) %MON ke_mean                      =   1.2003688164106E+02
(PID.TID 0000.0001) %MON ke_vol                       =   5.0986421042785E+19
(PID.TID 0000.0001) %MON vort_r_min                   =  -2.2604868590076E-04
(PID.TID 0000.0001) %MON vort_r_max                   =   1.9655719043250E-04
(PID.TID 0000.0001) %MON vort_a_mean                  =  -3.6770327606777E-21
(PID.TID 0000.0001) %MON vort_a_sd                    =   8.9441210125197E-05
(PID.TID 0000.0001) %MON vort_p_mean                  =  -3.6770327606777E-21
(PID.TID 0000.0001) %MON vort_p_sd                    =   8.9441210125197E-05
(PID.TID 0000.0001) %MON surfExpan_theta_mean         =  -5.2884586584486E-03
(PID.TID 0000.0001) %MON surfExpan_salt_mean          =   0.0000000000000E+00
(PID.TID 0000.0001) %MON surfExpan_Heat_mean          =  -5.3337067578592E-01
(PID.TID 0000.0001) %MON En_Budget_T2PE_mean          =   1.9039185137018E+00
(PID.TID 0000.0001) // =======================================================
(PID.TID 0000.0001) // End MONITOR dynamic field statistics
(PID.TID 0000.0001) // =======================================================
 Compute Stats, Diag. #     23  ETAN      vol(   0 ): 5.099E+14  Parms: SM      M1      
 Compute Stats, Diag. #     29  UVEL      vol(   0 ): 5.099E+19  Parms: UU      MR      
 Compute Stats, Diag. #     30  VVEL      vol(   0 ): 5.099E+19  Parms: VV      MR      
 Compute Stats, Diag. #     31  WVEL      vol(   0 ): 4.716E+19  Parms: WM      LR      
 Compute Stats, Diag. #     26  THETA     vol(   0 ): 5.099E+19  Parms: SM      MR      
 Compute Stats, Diag. #     65  PHIHYD    vol(   0 ): 5.099E+19  Parms: SM      MR      
 Compute Stats, Diag. #     25  DETADT2   vol(   0 ): 5.099E+14  Parms: SM      M1      
(PID.TID 0000.0001) %CHECKPOINT     25930 ckptA
(PID.TID 0000.0001) DIAGSTATS_CLOSE_IO: close file: dynStDiag.0000025920.txt , unit=     9
(PID.TID 0000.0001)   Seconds in section "ALL                    [THE_MODEL_MAIN]":
(PID.TID 0000.0001)           User time:  10.7213701
(PID.TID 0000.0001)         System time:  0.160976
(PID.TID 0000.0001)     Wall clock time:  12.0596299
(PID.TID 0000.0001)          No. starts: 1
(PID.TID 0000.0001)           No. stops: 1
(PID.TID 0000.0001)   Seconds in section "INITIALISE_FIXED       [THE_MODEL_MAIN]":
(PID.TID 0000.0001)           User time:  0.422935986
(PID.TID 0000.0001)         System time:  0.0739889967
(PID.TID 0000.0001)     Wall clock time:  1.37826085
(PID.TID 0000.0001)          No. starts: 1
(PID.TID 0000.0001)           No. stops: 1
(PID.TID 0000.0001)   Seconds in section "THE_MAIN_LOOP          [THE_MODEL_MAIN]":
(PID.TID 0000.0001)           User time:  10.2984341
(PID.TID 0000.0001)         System time:  0.0869870037
(PID.TID 0000.0001)     Wall clock time:  10.6811619
(PID.TID 0000.0001)          No. starts: 1
(PID.TID 0000.0001)           No. stops: 1
(PID.TID 0000.0001)   Seconds in section "INITIALISE_VARIA    [THE_MAIN_LOOP]":
(PID.TID 0000.0001)           User time:  0.485926032
(PID.TID 0000.0001)         System time:  0.0469930023
(PID.TID 0000.0001)     Wall clock time:  0.81646204
(PID.TID 0000.0001)          No. starts: 1
(PID.TID 0000.0001)           No. stops: 1
(PID.TID 0000.0001)   Seconds in section "MAIN LOOP           [THE_MAIN_LOOP]":
(PID.TID 0000.0001)           User time:  9.81250805
(PID.TID 0000.0001)         System time:  0.0399940014
(PID.TID 0000.0001)     Wall clock time:  9.86457491
(PID.TID 0000.0001)          No. starts: 1
(PID.TID 0000.0001)           No. stops: 1
(PID.TID 0000.0001)   Seconds in section "FORWARD_STEP        [THE_MAIN_LOOP]":
(PID.TID 0000.0001)           User time:  9.81150764
(PID.TID 0000.0001)         System time:  0.0399940014
(PID.TID 0000.0001)     Wall clock time:  9.8641324
(PID.TID 0000.0001)          No. starts: 10
(PID.TID 0000.0001)           No. stops: 10
(PID.TID 0000.0001)   Seconds in section "DO_STATEVARS_DIAGS  [FORWARD_STEP]":
(PID.TID 0000.0001)           User time:  0.236962616
(PID.TID 0000.0001)         System time:  0.
(PID.TID 0000.0001)     Wall clock time:  0.237396955
(PID.TID 0000.0001)          No. starts: 20
(PID.TID 0000.0001)           No. stops: 20
(PID.TID 0000.0001)   Seconds in section "LOAD_FIELDS_DRIVER  [FORWARD_STEP]":
(PID.TID 0000.0001)           User time:  0.00200039148
(PID.TID 0000.0001)         System time:  0.
(PID.TID 0000.0001)     Wall clock time:  0.0012512207
(PID.TID 0000.0001)          No. starts: 10
(PID.TID 0000.0001)           No. stops: 10
(PID.TID 0000.0001)   Seconds in section "EXTERNAL_FLDS_LOAD [LOAD_FLDS_DRIVER]":
(PID.TID 0000.0001)           User time:  0.00200039148
(PID.TID 0000.0001)         System time:  0.
(PID.TID 0000.0001)     Wall clock time:  0.000430822372
(PID.TID 0000.0001)          No. starts: 10
(PID.TID 0000.0001)           No. stops: 10
(PID.TID 0000.0001)   Seconds in section "DO_ATMOSPHERIC_PHYS [FORWARD_STEP]":
(PID.TID 0000.0001)           User time:  0.
(PID.TID 0000.0001)         System time:  0.
(PID.TID 0000.0001)     Wall clock time:  0.000410318375
(PID.TID 0000.0001)          No. starts: 10
(PID.TID 0000.0001)           No. stops: 10
(PID.TID 0000.0001)   Seconds in section "DO_OCEANIC_PHYS     [FORWARD_STEP]":
(PID.TID 0000.0001)           User time:  0.
(PID.TID 0000.0001)         System time:  0.
(PID.TID 0000.0001)     Wall clock time:  0.00044465065
(PID.TID 0000.0001)          No. starts: 10
(PID.TID 0000.0001)           No. stops: 10
(PID.TID 0000.0001)   Seconds in section "THERMODYNAMICS      [FORWARD_STEP]":
(PID.TID 0000.0001)           User time:  0.84687072
(PID.TID 0000.0001)         System time:  0.
(PID.TID 0000.0001)     Wall clock time:  0.847240448
(PID.TID 0000.0001)          No. starts: 10
(PID.TID 0000.0001)           No. stops: 10
(PID.TID 0000.0001)   Seconds in section "BLOCKING_EXCHANGES  [FORWARD_STEP]":
(PID.TID 0000.0001)           User time:  0.155977964
(PID.TID 0000.0001)         System time:  0.
(PID.TID 0000.0001)     Wall clock time:  0.155869722
(PID.TID 0000.0001)          No. starts: 20
(PID.TID 0000.0001)           No. stops: 20
(PID.TID 0000.0001)   Seconds in section "DYNAMICS            [FORWARD_STEP]":
(PID.TID 0000.0001)           User time:  1.16882205
(PID.TID 0000.0001)         System time:  0.00199900568
(PID.TID 0000.0001)     Wall clock time:  1.17137265
(PID.TID 0000.0001)          No. starts: 10
(PID.TID 0000.0001)           No. stops: 10
(PID.TID 0000.0001)   Seconds in section "SOLVE_FOR_PRESSURE  [FORWARD_STEP]":
(PID.TID 0000.0001)           User time:  4.64829338
(PID.TID 0000.0001)         System time:  0.0119989961
(PID.TID 0000.0001)     Wall clock time:  4.66644001
(PID.TID 0000.0001)          No. starts: 10
(PID.TID 0000.0001)           No. stops: 10
(PID.TID 0000.0001)   Seconds in section "CG3D   [SOLVE_FOR_PRESSURE]":
(PID.TID 0000.0001)           User time:  3.26650345
(PID.TID 0000.0001)         System time:  0.00799900293
(PID.TID 0000.0001)     Wall clock time:  3.28106952
(PID.TID 0000.0001)          No. starts: 10
(PID.TID 0000.0001)           No. stops: 10
(PID.TID 0000.0001)   Seconds in section "MOM_CORRECTION_STEP [FORWARD_STEP]":
(PID.TID 0000.0001)           User time:  1.50677073
(PID.TID 0000.0001)         System time:  0.0029989928
(PID.TID 0000.0001)     Wall clock time:  1.51358223
(PID.TID 0000.0001)          No. starts: 10
(PID.TID 0000.0001)           No. stops: 10
(PID.TID 0000.0001)   Seconds in section "SHAP_FILT_UV       [MOM_CORR_STEP]":
(PID.TID 0000.0001)           User time:  1.26580572
(PID.TID 0000.0001)         System time:  0.0029989928
(PID.TID 0000.0001)     Wall clock time:  1.27006507
(PID.TID 0000.0001)          No. starts: 10
(PID.TID 0000.0001)           No. stops: 10
(PID.TID 0000.0001)   Seconds in section "UPDATE_ETAH         [FORWARD_STEP]":
(PID.TID 0000.0001)           User time:  0.00799822807
(PID.TID 0000.0001)         System time:  0.
(PID.TID 0000.0001)     Wall clock time:  0.00461983681
(PID.TID 0000.0001)          No. starts: 10
(PID.TID 0000.0001)           No. stops: 10
(PID.TID 0000.0001)   Seconds in section "TRC_CORRECTION_STEP [FORWARD_STEP]":
(PID.TID 0000.0001)           User time:  0.0619904995
(PID.TID 0000.0001)         System time:  0.
(PID.TID 0000.0001)     Wall clock time:  0.0633478165
(PID.TID 0000.0001)          No. starts: 10
(PID.TID 0000.0001)           No. stops: 10
(PID.TID 0000.0001)   Seconds in section "SHAP_FILT_TS       [TRC_CORR_STEP]":
(PID.TID 0000.0001)           User time:  0.
(PID.TID 0000.0001)         System time:  0.
(PID.TID 0000.0001)     Wall clock time:  0.000418663025
(PID.TID 0000.0001)          No. starts: 10
(PID.TID 0000.0001)           No. stops: 10
(PID.TID 0000.0001)   Seconds in section "DO_STATEVARS_TAVE   [FORWARD_STEP]":
(PID.TID 0000.0001)           User time:  0.
(PID.TID 0000.0001)         System time:  0.
(PID.TID 0000.0001)     Wall clock time:  0.000411272049
(PID.TID 0000.0001)          No. starts: 10
(PID.TID 0000.0001)           No. stops: 10
(PID.TID 0000.0001)   Seconds in section "MONITOR             [FORWARD_STEP]":
(PID.TID 0000.0001)           User time:  0.953854561
(PID.TID 0000.0001)         System time:  0.00100000203
(PID.TID 0000.0001)     Wall clock time:  0.957905293
(PID.TID 0000.0001)          No. starts: 10
(PID.TID 0000.0001)           No. stops: 10
(PID.TID 0000.0001)   Seconds in section "DO_THE_MODEL_IO     [FORWARD_STEP]":
(PID.TID 0000.0001)           User time:  0.0779882669
(PID.TID 0000.0001)         System time:  0.00999800861
(PID.TID 0000.0001)     Wall clock time:  0.0892345905
(PID.TID 0000.0001)          No. starts: 10
(PID.TID 0000.0001)           No. stops: 10
(PID.TID 0000.0001)   Seconds in section "DO_WRITE_PICKUP     [FORWARD_STEP]":
(PID.TID 0000.0001)           User time:  0.134979248
(PID.TID 0000.0001)         System time:  0.0119989961
(PID.TID 0000.0001)     Wall clock time:  0.147029638
(PID.TID 0000.0001)          No. starts: 10
(PID.TID 0000.0001)           No. stops: 10
(PID.TID 0000.0001) // ======================================================
(PID.TID 0000.0001) // Tile <-> Tile communication statistics
(PID.TID 0000.0001) // ======================================================
(PID.TID 0000.0001) // o Tile number: 000001
(PID.TID 0000.0001) //         No. X exchanges =              0
(PID.TID 0000.0001) //            Max. X spins =              0
(PID.TID 0000.0001) //            Min. X spins =     1000000000
(PID.TID 0000.0001) //          Total. X spins =              0
(PID.TID 0000.0001) //            Avg. X spins =       0.00E+00
(PID.TID 0000.0001) //         No. Y exchanges =              0
(PID.TID 0000.0001) //            Max. Y spins =              0
(PID.TID 0000.0001) //            Min. Y spins =     1000000000
(PID.TID 0000.0001) //          Total. Y spins =              0
(PID.TID 0000.0001) //            Avg. Y spins =       0.00E+00
(PID.TID 0000.0001) // o Tile number: 000002
(PID.TID 0000.0001) //         No. X exchanges =              0
(PID.TID 0000.0001) //            Max. X spins =              0
(PID.TID 0000.0001) //            Min. X spins =     1000000000
(PID.TID 0000.0001) //          Total. X spins =              0
(PID.TID 0000.0001) //            Avg. X spins =       0.00E+00
(PID.TID 0000.0001) //         No. Y exchanges =              0
(PID.TID 0000.0001) //            Max. Y spins =              0
(PID.TID 0000.0001) //            Min. Y spins =     1000000000
(PID.TID 0000.0001) //          Total. Y spins =              0
(PID.TID 0000.0001) //            Avg. Y spins =       0.00E+00
(PID.TID 0000.0001) // o Tile number: 000003
(PID.TID 0000.0001) //         No. X exchanges =              0
(PID.TID 0000.0001) //            Max. X spins =              0
(PID.TID 0000.0001) //            Min. X spins =     1000000000
(PID.TID 0000.0001) //          Total. X spins =              0
(PID.TID 0000.0001) //            Avg. X spins =       0.00E+00
(PID.TID 0000.0001) //         No. Y exchanges =              0
(PID.TID 0000.0001) //            Max. Y spins =              0
(PID.TID 0000.0001) //            Min. Y spins =     1000000000
(PID.TID 0000.0001) //          Total. Y spins =              0
(PID.TID 0000.0001) //            Avg. Y spins =       0.00E+00
(PID.TID 0000.0001) // o Tile number: 000004
(PID.TID 0000.0001) //         No. X exchanges =              0
(PID.TID 0000.0001) //            Max. X spins =              0
(PID.TID 0000.0001) //            Min. X spins =     1000000000
(PID.TID 0000.0001) //          Total. X spins =              0
(PID.TID 0000.0001) //            Avg. X spins =       0.00E+00
(PID.TID 0000.0001) //         No. Y exchanges =              0
(PID.TID 0000.0001) //            Max. Y spins =              0
(PID.TID 0000.0001) //            Min. Y spins =     1000000000
(PID.TID 0000.0001) //          Total. Y spins =              0
(PID.TID 0000.0001) //            Avg. Y spins =       0.00E+00
(PID.TID 0000.0001) // o Tile number: 000005
(PID.TID 0000.0001) //         No. X exchanges =              0
(PID.TID 0000.0001) //            Max. X spins =              0
(PID.TID 0000.0001) //            Min. X spins =     1000000000
(PID.TID 0000.0001) //          Total. X spins =              0
(PID.TID 0000.0001) //            Avg. X spins =       0.00E+00
(PID.TID 0000.0001) //         No. Y exchanges =              0
(PID.TID 0000.0001) //            Max. Y spins =              0
(PID.TID 0000.0001) //            Min. Y spins =     1000000000
(PID.TID 0000.0001) //          Total. Y spins =              0
(PID.TID 0000.0001) //            Avg. Y spins =       0.00E+00
(PID.TID 0000.0001) // o Tile number: 000006
(PID.TID 0000.0001) //         No. X exchanges =              0
(PID.TID 0000.0001) //            Max. X spins =              0
(PID.TID 0000.0001) //            Min. X spins =     1000000000
(PID.TID 0000.0001) //          Total. X spins =              0
(PID.TID 0000.0001) //            Avg. X spins =       0.00E+00
(PID.TID 0000.0001) //         No. Y exchanges =              0
(PID.TID 0000.0001) //            Max. Y spins =              0
(PID.TID 0000.0001) //            Min. Y spins =     1000000000
(PID.TID 0000.0001) //          Total. Y spins =              0
(PID.TID 0000.0001) //            Avg. Y spins =       0.00E+00
(PID.TID 0000.0001) // o Tile number: 000007
(PID.TID 0000.0001) //         No. X exchanges =              0
(PID.TID 0000.0001) //            Max. X spins =              0
(PID.TID 0000.0001) //            Min. X spins =     1000000000
(PID.TID 0000.0001) //          Total. X spins =              0
(PID.TID 0000.0001) //            Avg. X spins =       0.00E+00
(PID.TID 0000.0001) //         No. Y exchanges =              0
(PID.TID 0000.0001) //            Max. Y spins =              0
(PID.TID 0000.0001) //            Min. Y spins =     1000000000
(PID.TID 0000.0001) //          Total. Y spins =              0
(PID.TID 0000.0001) //            Avg. Y spins =       0.00E+00
(PID.TID 0000.0001) // o Tile number: 000008
(PID.TID 0000.0001) //         No. X exchanges =              0
(PID.TID 0000.0001) //            Max. X spins =              0
(PID.TID 0000.0001) //            Min. X spins =     1000000000
(PID.TID 0000.0001) //          Total. X spins =              0
(PID.TID 0000.0001) //            Avg. X spins =       0.00E+00
(PID.TID 0000.0001) //         No. Y exchanges =              0
(PID.TID 0000.0001) //            Max. Y spins =              0
(PID.TID 0000.0001) //            Min. Y spins =     1000000000
(PID.TID 0000.0001) //          Total. Y spins =              0
(PID.TID 0000.0001) //            Avg. Y spins =       0.00E+00
(PID.TID 0000.0001) // o Tile number: 000009
(PID.TID 0000.0001) //         No. X exchanges =              0
(PID.TID 0000.0001) //            Max. X spins =              0
(PID.TID 0000.0001) //            Min. X spins =     1000000000
(PID.TID 0000.0001) //          Total. X spins =              0
(PID.TID 0000.0001) //            Avg. X spins =       0.00E+00
(PID.TID 0000.0001) //         No. Y exchanges =              0
(PID.TID 0000.0001) //            Max. Y spins =              0
(PID.TID 0000.0001) //            Min. Y spins =     1000000000
(PID.TID 0000.0001) //          Total. Y spins =              0
(PID.TID 0000.0001) //            Avg. Y spins =       0.00E+00
(PID.TID 0000.0001) // o Tile number: 000010
(PID.TID 0000.0001) //         No. X exchanges =              0
(PID.TID 0000.0001) //            Max. X spins =              0
(PID.TID 0000.0001) //            Min. X spins =     1000000000
(PID.TID 0000.0001) //          Total. X spins =              0
(PID.TID 0000.0001) //            Avg. X spins =       0.00E+00
(PID.TID 0000.0001) //         No. Y exchanges =              0
(PID.TID 0000.0001) //            Max. Y spins =              0
(PID.TID 0000.0001) //            Min. Y spins =     1000000000
(PID.TID 0000.0001) //          Total. Y spins =              0
(PID.TID 0000.0001) //            Avg. Y spins =       0.00E+00
(PID.TID 0000.0001) // o Tile number: 000011
(PID.TID 0000.0001) //         No. X exchanges =              0
(PID.TID 0000.0001) //            Max. X spins =              0
(PID.TID 0000.0001) //            Min. X spins =     1000000000
(PID.TID 0000.0001) //          Total. X spins =              0
(PID.TID 0000.0001) //            Avg. X spins =       0.00E+00
(PID.TID 0000.0001) //         No. Y exchanges =              0
(PID.TID 0000.0001) //            Max. Y spins =              0
(PID.TID 0000.0001) //            Min. Y spins =     1000000000
(PID.TID 0000.0001) //          Total. Y spins =              0
(PID.TID 0000.0001) //            Avg. Y spins =       0.00E+00
(PID.TID 0000.0001) // o Tile number: 000012
(PID.TID 0000.0001) //         No. X exchanges =              0
(PID.TID 0000.0001) //            Max. X spins =              0
(PID.TID 0000.0001) //            Min. X spins =     1000000000
(PID.TID 0000.0001) //          Total. X spins =              0
(PID.TID 0000.0001) //            Avg. X spins =       0.00E+00
(PID.TID 0000.0001) //         No. Y exchanges =              0
(PID.TID 0000.0001) //            Max. Y spins =              0
(PID.TID 0000.0001) //            Min. Y spins =     1000000000
(PID.TID 0000.0001) //          Total. Y spins =              0
(PID.TID 0000.0001) //            Avg. Y spins =       0.00E+00
(PID.TID 0000.0001) // o Thread number: 000001
(PID.TID 0000.0001) //            No. barriers =          17376
(PID.TID 0000.0001) //      Max. barrier spins =              1
(PID.TID 0000.0001) //      Min. barrier spins =              1
(PID.TID 0000.0001) //     Total barrier spins =          17376
(PID.TID 0000.0001) //      Avg. barrier spins =       1.00E+00
