(PID.TID 0000.0001) 
(PID.TID 0000.0001) // ======================================================
(PID.TID 0000.0001) //                      MITgcm UV
(PID.TID 0000.0001) //                      =========
(PID.TID 0000.0001) // ======================================================
(PID.TID 0000.0001) // execution environment starting up...
(PID.TID 0000.0001) 
(PID.TID 0000.0001) // MITgcmUV version:  checkpoint61e
(PID.TID 0000.0001) // Build user:        jmc
(PID.TID 0000.0001) // Build host:        faulks
(PID.TID 0000.0001) // Build date:        Mon Oct 27 16:01:29 EDT 2008
(PID.TID 0000.0001) 
(PID.TID 0000.0001) // =======================================================
(PID.TID 0000.0001) // Execution Environment parameter file "eedata"
(PID.TID 0000.0001) // =======================================================
(PID.TID 0000.0001) ># Example "eedata" file
(PID.TID 0000.0001) ># Lines beginning "#" are comments
(PID.TID 0000.0001) ># nTx - No. threads per process in X
(PID.TID 0000.0001) ># nTy - No. threads per process in Y
(PID.TID 0000.0001) > &EEPARMS
(PID.TID 0000.0001) > useCubedSphereExchange=.TRUE.,
(PID.TID 0000.0001) > &
(PID.TID 0000.0001) ># Note: Some systems use & as the
(PID.TID 0000.0001) ># namelist terminator. Other systems
(PID.TID 0000.0001) ># use a / character (as shown here).
(PID.TID 0000.0001) 
(PID.TID 0000.0001) // =======================================================
(PID.TID 0000.0001) // Computational Grid Specification ( see files "SIZE.h" )
(PID.TID 0000.0001) //                                  ( and "eedata"       )
(PID.TID 0000.0001) // =======================================================
(PID.TID 0000.0001)      nPx =    1 ; /* No. processes in X */
(PID.TID 0000.0001)      nPy =    1 ; /* No. processes in Y */
(PID.TID 0000.0001)      nSx =    6 ; /* No. tiles in X per process */
(PID.TID 0000.0001)      nSy =    1 ; /* No. tiles in Y per process */
(PID.TID 0000.0001)      sNx =   32 ; /* Tile size in X */
(PID.TID 0000.0001)      sNy =   32 ; /* Tile size in Y */
(PID.TID 0000.0001)      OLx =    2 ; /* Tile overlap distance in X */
(PID.TID 0000.0001)      OLy =    2 ; /* Tile overlap distance in Y */
(PID.TID 0000.0001)      nTx =    1 ; /* No. threads in X per process */
(PID.TID 0000.0001)      nTy =    1 ; /* No. threads in Y per process */
(PID.TID 0000.0001)       Nr =    1 ; /* No. levels in the vertical   */
(PID.TID 0000.0001)       nX =  192 ; /* Total domain size in X ( = nPx*nSx*sNx ) */
(PID.TID 0000.0001)       nY =   32 ; /* Total domain size in Y ( = nPy*nSy*sNy ) */
(PID.TID 0000.0001)   nTiles =    6 ; /* Total no. tiles per process ( = nSx*nSy ) */
(PID.TID 0000.0001)   nProcs =    1 ; /* Total no. processes ( = nPx*nPy ) */
(PID.TID 0000.0001) nThreads =    1 ; /* Total no. threads per process ( = nTx*nTy ) */
(PID.TID 0000.0001) usingMPI =    F ; /* Flag used to control whether MPI is in use */
(PID.TID 0000.0001)                   /*  note: To execute a program with MPI calls */
(PID.TID 0000.0001)                   /*  it must be launched appropriately e.g     */
(PID.TID 0000.0001)                   /*  "mpirun -np 64 ......"                    */
(PID.TID 0000.0001) useCoupler=   F ; /* Flag used to control communications with */
(PID.TID 0000.0001)                   /*  other model components, through a coupler */
(PID.TID 0000.0001) 
(PID.TID 0000.0001) // ======================================================
(PID.TID 0000.0001) // Mapping of tiles to threads
(PID.TID 0000.0001) // ======================================================
(PID.TID 0000.0001) // -o- Thread   1, tiles (   1:   6,   1:   1)
(PID.TID 0000.0001) 
(PID.TID 0000.0001) // ======================================================
(PID.TID 0000.0001) // Tile <-> Tile connectvity table
(PID.TID 0000.0001) // ======================================================
(PID.TID 0000.0001) // Tile number: 000001 (process no. = 000001)
(PID.TID 0000.0001) //        WEST: Tile = 000006, Process = 000001, Comm = put
(PID.TID 0000.0001) //                bi = 000006, bj = 000001
(PID.TID 0000.0001) //        EAST: Tile = 000002, Process = 000001, Comm = put
(PID.TID 0000.0001) //                bi = 000002, bj = 000001
(PID.TID 0000.0001) //       SOUTH: Tile = 000001, Process = 000001, Comm = put
(PID.TID 0000.0001) //                bi = 000001, bj = 000001
(PID.TID 0000.0001) //       NORTH: Tile = 000001, Process = 000001, Comm = put
(PID.TID 0000.0001) //                bi = 000001, bj = 000001
(PID.TID 0000.0001) // Tile number: 000002 (process no. = 000001)
(PID.TID 0000.0001) //        WEST: Tile = 000001, Process = 000001, Comm = put
(PID.TID 0000.0001) //                bi = 000001, bj = 000001
(PID.TID 0000.0001) //        EAST: Tile = 000003, Process = 000001, Comm = put
(PID.TID 0000.0001) //                bi = 000003, bj = 000001
(PID.TID 0000.0001) //       SOUTH: Tile = 000002, Process = 000001, Comm = put
(PID.TID 0000.0001) //                bi = 000002, bj = 000001
(PID.TID 0000.0001) //       NORTH: Tile = 000002, Process = 000001, Comm = put
(PID.TID 0000.0001) //                bi = 000002, bj = 000001
(PID.TID 0000.0001) // Tile number: 000003 (process no. = 000001)
(PID.TID 0000.0001) //        WEST: Tile = 000002, Process = 000001, Comm = put
(PID.TID 0000.0001) //                bi = 000002, bj = 000001
(PID.TID 0000.0001) //        EAST: Tile = 000004, Process = 000001, Comm = put
(PID.TID 0000.0001) //                bi = 000004, bj = 000001
(PID.TID 0000.0001) //       SOUTH: Tile = 000003, Process = 000001, Comm = put
(PID.TID 0000.0001) //                bi = 000003, bj = 000001
(PID.TID 0000.0001) //       NORTH: Tile = 000003, Process = 000001, Comm = put
(PID.TID 0000.0001) //                bi = 000003, bj = 000001
(PID.TID 0000.0001) // Tile number: 000004 (process no. = 000001)
(PID.TID 0000.0001) //        WEST: Tile = 000003, Process = 000001, Comm = put
(PID.TID 0000.0001) //                bi = 000003, bj = 000001
(PID.TID 0000.0001) //        EAST: Tile = 000005, Process = 000001, Comm = put
(PID.TID 0000.0001) //                bi = 000005, bj = 000001
(PID.TID 0000.0001) //       SOUTH: Tile = 000004, Process = 000001, Comm = put
(PID.TID 0000.0001) //                bi = 000004, bj = 000001
(PID.TID 0000.0001) //       NORTH: Tile = 000004, Process = 000001, Comm = put
(PID.TID 0000.0001) //                bi = 000004, bj = 000001
(PID.TID 0000.0001) // Tile number: 000005 (process no. = 000001)
(PID.TID 0000.0001) //        WEST: Tile = 000004, Process = 000001, Comm = put
(PID.TID 0000.0001) //                bi = 000004, bj = 000001
(PID.TID 0000.0001) //        EAST: Tile = 000006, Process = 000001, Comm = put
(PID.TID 0000.0001) //                bi = 000006, bj = 000001
(PID.TID 0000.0001) //       SOUTH: Tile = 000005, Process = 000001, Comm = put
(PID.TID 0000.0001) //                bi = 000005, bj = 000001
(PID.TID 0000.0001) //       NORTH: Tile = 000005, Process = 000001, Comm = put
(PID.TID 0000.0001) //                bi = 000005, bj = 000001
(PID.TID 0000.0001) // Tile number: 000006 (process no. = 000001)
(PID.TID 0000.0001) //        WEST: Tile = 000005, Process = 000001, Comm = put
(PID.TID 0000.0001) //                bi = 000005, bj = 000001
(PID.TID 0000.0001) //        EAST: Tile = 000001, Process = 000001, Comm = put
(PID.TID 0000.0001) //                bi = 000001, bj = 000001
(PID.TID 0000.0001) //       SOUTH: Tile = 000006, Process = 000001, Comm = put
(PID.TID 0000.0001) //                bi = 000006, bj = 000001
(PID.TID 0000.0001) //       NORTH: Tile = 000006, Process = 000001, Comm = put
(PID.TID 0000.0001) //                bi = 000006, bj = 000001
(PID.TID 0000.0001) 
(PID.TID 0000.0001) ===== W2 TILE TOPLOGY =====
(PID.TID 0000.0001)  TILE:    1
(PID.TID 0000.0001)       NEIGHBOUR    1 = TILE    3 Comm = PUT ( PROC =    1)
(PID.TID 0000.0001)       NEIGHBOUR    2 = TILE    6 Comm = PUT ( PROC =    1)
(PID.TID 0000.0001)       NEIGHBOUR    3 = TILE    2 Comm = PUT ( PROC =    1)
(PID.TID 0000.0001)       NEIGHBOUR    4 = TILE    5 Comm = PUT ( PROC =    1)
(PID.TID 0000.0001)  TILE:    2
(PID.TID 0000.0001)       NEIGHBOUR    1 = TILE    3 Comm = PUT ( PROC =    1)
(PID.TID 0000.0001)       NEIGHBOUR    2 = TILE    6 Comm = PUT ( PROC =    1)
(PID.TID 0000.0001)       NEIGHBOUR    3 = TILE    4 Comm = PUT ( PROC =    1)
(PID.TID 0000.0001)       NEIGHBOUR    4 = TILE    1 Comm = PUT ( PROC =    1)
(PID.TID 0000.0001)  TILE:    3
(PID.TID 0000.0001)       NEIGHBOUR    1 = TILE    5 Comm = PUT ( PROC =    1)
(PID.TID 0000.0001)       NEIGHBOUR    2 = TILE    2 Comm = PUT ( PROC =    1)
(PID.TID 0000.0001)       NEIGHBOUR    3 = TILE    4 Comm = PUT ( PROC =    1)
(PID.TID 0000.0001)       NEIGHBOUR    4 = TILE    1 Comm = PUT ( PROC =    1)
(PID.TID 0000.0001)  TILE:    4
(PID.TID 0000.0001)       NEIGHBOUR    1 = TILE    5 Comm = PUT ( PROC =    1)
(PID.TID 0000.0001)       NEIGHBOUR    2 = TILE    2 Comm = PUT ( PROC =    1)
(PID.TID 0000.0001)       NEIGHBOUR    3 = TILE    6 Comm = PUT ( PROC =    1)
(PID.TID 0000.0001)       NEIGHBOUR    4 = TILE    3 Comm = PUT ( PROC =    1)
(PID.TID 0000.0001)  TILE:    5
(PID.TID 0000.0001)       NEIGHBOUR    1 = TILE    1 Comm = PUT ( PROC =    1)
(PID.TID 0000.0001)       NEIGHBOUR    2 = TILE    4 Comm = PUT ( PROC =    1)
(PID.TID 0000.0001)       NEIGHBOUR    3 = TILE    6 Comm = PUT ( PROC =    1)
(PID.TID 0000.0001)       NEIGHBOUR    4 = TILE    3 Comm = PUT ( PROC =    1)
(PID.TID 0000.0001)  TILE:    6
(PID.TID 0000.0001)       NEIGHBOUR    1 = TILE    1 Comm = PUT ( PROC =    1)
(PID.TID 0000.0001)       NEIGHBOUR    2 = TILE    4 Comm = PUT ( PROC =    1)
(PID.TID 0000.0001)       NEIGHBOUR    3 = TILE    2 Comm = PUT ( PROC =    1)
(PID.TID 0000.0001)       NEIGHBOUR    4 = TILE    5 Comm = PUT ( PROC =    1)
(PID.TID 0000.0001) Tile     1 (pr=   1) sends pts i=  34:  -1, j=  31:  32
(PID.TID 0000.0001)                         to pts i=  -1:   0, j=  -1:  34 in tile      3 (pr=   1)
(PID.TID 0000.0001) Tile     1 (pr=   1) sends pts i=  -1:  34, j=   1:   2
(PID.TID 0000.0001)                         to pts i=  -1:  34, j=  33:  34 in tile      6 (pr=   1)
(PID.TID 0000.0001) Tile     1 (pr=   1) sends pts i=  31:  32, j=  -1:  34
(PID.TID 0000.0001)                         to pts i=  -1:   0, j=  -1:  34 in tile      2 (pr=   1)
(PID.TID 0000.0001) Tile     1 (pr=   1) sends pts i=   1:   2, j=  34:  -1
(PID.TID 0000.0001)                         to pts i=  -1:  34, j=  33:  34 in tile      5 (pr=   1)
(PID.TID 0000.0001) Tile     2 (pr=   1) sends pts i=  -1:  34, j=  31:  32
(PID.TID 0000.0001)                         to pts i=  -1:  34, j=  -1:   0 in tile      3 (pr=   1)
(PID.TID 0000.0001) Tile     2 (pr=   1) sends pts i=  34:  -1, j=   1:   2
(PID.TID 0000.0001)                         to pts i=  33:  34, j=  -1:  34 in tile      6 (pr=   1)
(PID.TID 0000.0001) Tile     2 (pr=   1) sends pts i=  31:  32, j=  34:  -1
(PID.TID 0000.0001)                         to pts i=  -1:  34, j=  -1:   0 in tile      4 (pr=   1)
(PID.TID 0000.0001) Tile     2 (pr=   1) sends pts i=   1:   2, j=  -1:  34
(PID.TID 0000.0001)                         to pts i=  33:  34, j=  -1:  34 in tile      1 (pr=   1)
(PID.TID 0000.0001) Tile     3 (pr=   1) sends pts i=  34:  -1, j=  31:  32
(PID.TID 0000.0001)                         to pts i=  -1:   0, j=  -1:  34 in tile      5 (pr=   1)
(PID.TID 0000.0001) Tile     3 (pr=   1) sends pts i=  -1:  34, j=   1:   2
(PID.TID 0000.0001)                         to pts i=  -1:  34, j=  33:  34 in tile      2 (pr=   1)
(PID.TID 0000.0001) Tile     3 (pr=   1) sends pts i=  31:  32, j=  -1:  34
(PID.TID 0000.0001)                         to pts i=  -1:   0, j=  -1:  34 in tile      4 (pr=   1)
(PID.TID 0000.0001) Tile     3 (pr=   1) sends pts i=   1:   2, j=  34:  -1
(PID.TID 0000.0001)                         to pts i=  -1:  34, j=  33:  34 in tile      1 (pr=   1)
(PID.TID 0000.0001) Tile     4 (pr=   1) sends pts i=  -1:  34, j=  31:  32
(PID.TID 0000.0001)                         to pts i=  -1:  34, j=  -1:   0 in tile      5 (pr=   1)
(PID.TID 0000.0001) Tile     4 (pr=   1) sends pts i=  34:  -1, j=   1:   2
(PID.TID 0000.0001)                         to pts i=  33:  34, j=  -1:  34 in tile      2 (pr=   1)
(PID.TID 0000.0001) Tile     4 (pr=   1) sends pts i=  31:  32, j=  34:  -1
(PID.TID 0000.0001)                         to pts i=  -1:  34, j=  -1:   0 in tile      6 (pr=   1)
(PID.TID 0000.0001) Tile     4 (pr=   1) sends pts i=   1:   2, j=  -1:  34
(PID.TID 0000.0001)                         to pts i=  33:  34, j=  -1:  34 in tile      3 (pr=   1)
(PID.TID 0000.0001) Tile     5 (pr=   1) sends pts i=  34:  -1, j=  31:  32
(PID.TID 0000.0001)                         to pts i=  -1:   0, j=  -1:  34 in tile      1 (pr=   1)
(PID.TID 0000.0001) Tile     5 (pr=   1) sends pts i=  -1:  34, j=   1:   2
(PID.TID 0000.0001)                         to pts i=  -1:  34, j=  33:  34 in tile      4 (pr=   1)
(PID.TID 0000.0001) Tile     5 (pr=   1) sends pts i=  31:  32, j=  -1:  34
(PID.TID 0000.0001)                         to pts i=  -1:   0, j=  -1:  34 in tile      6 (pr=   1)
(PID.TID 0000.0001) Tile     5 (pr=   1) sends pts i=   1:   2, j=  34:  -1
(PID.TID 0000.0001)                         to pts i=  -1:  34, j=  33:  34 in tile      3 (pr=   1)
(PID.TID 0000.0001) Tile     6 (pr=   1) sends pts i=  -1:  34, j=  31:  32
(PID.TID 0000.0001)                         to pts i=  -1:  34, j=  -1:   0 in tile      1 (pr=   1)
(PID.TID 0000.0001) Tile     6 (pr=   1) sends pts i=  34:  -1, j=   1:   2
(PID.TID 0000.0001)                         to pts i=  33:  34, j=  -1:  34 in tile      4 (pr=   1)
(PID.TID 0000.0001) Tile     6 (pr=   1) sends pts i=  31:  32, j=  34:  -1
(PID.TID 0000.0001)                         to pts i=  -1:  34, j=  -1:   0 in tile      2 (pr=   1)
(PID.TID 0000.0001) Tile     6 (pr=   1) sends pts i=   1:   2, j=  -1:  34
(PID.TID 0000.0001)                         to pts i=  33:  34, j=  -1:  34 in tile      5 (pr=   1)
(PID.TID 0000.0001) Tile     1 (pr=   1) recv pts i=  -1:  34, j=  33:  34 from tile     3 (pr=   1)
(PID.TID 0000.0001) Tile     1 (pr=   1) recv pts i=  -1:  34, j=  -1:   0 from tile     6 (pr=   1)
(PID.TID 0000.0001) Tile     1 (pr=   1) recv pts i=  33:  34, j=  -1:  34 from tile     2 (pr=   1)
(PID.TID 0000.0001) Tile     1 (pr=   1) recv pts i=  -1:   0, j=  -1:  34 from tile     5 (pr=   1)
(PID.TID 0000.0001) Tile     2 (pr=   1) recv pts i=  -1:  34, j=  33:  34 from tile     3 (pr=   1)
(PID.TID 0000.0001) Tile     2 (pr=   1) recv pts i=  -1:  34, j=  -1:   0 from tile     6 (pr=   1)
(PID.TID 0000.0001) Tile     2 (pr=   1) recv pts i=  33:  34, j=  -1:  34 from tile     4 (pr=   1)
(PID.TID 0000.0001) Tile     2 (pr=   1) recv pts i=  -1:   0, j=  -1:  34 from tile     1 (pr=   1)
(PID.TID 0000.0001) Tile     3 (pr=   1) recv pts i=  -1:  34, j=  33:  34 from tile     5 (pr=   1)
(PID.TID 0000.0001) Tile     3 (pr=   1) recv pts i=  -1:  34, j=  -1:   0 from tile     2 (pr=   1)
(PID.TID 0000.0001) Tile     3 (pr=   1) recv pts i=  33:  34, j=  -1:  34 from tile     4 (pr=   1)
(PID.TID 0000.0001) Tile     3 (pr=   1) recv pts i=  -1:   0, j=  -1:  34 from tile     1 (pr=   1)
(PID.TID 0000.0001) Tile     4 (pr=   1) recv pts i=  -1:  34, j=  33:  34 from tile     5 (pr=   1)
(PID.TID 0000.0001) Tile     4 (pr=   1) recv pts i=  -1:  34, j=  -1:   0 from tile     2 (pr=   1)
(PID.TID 0000.0001) Tile     4 (pr=   1) recv pts i=  33:  34, j=  -1:  34 from tile     6 (pr=   1)
(PID.TID 0000.0001) Tile     4 (pr=   1) recv pts i=  -1:   0, j=  -1:  34 from tile     3 (pr=   1)
(PID.TID 0000.0001) Tile     5 (pr=   1) recv pts i=  -1:  34, j=  33:  34 from tile     1 (pr=   1)
(PID.TID 0000.0001) Tile     5 (pr=   1) recv pts i=  -1:  34, j=  -1:   0 from tile     4 (pr=   1)
(PID.TID 0000.0001) Tile     5 (pr=   1) recv pts i=  33:  34, j=  -1:  34 from tile     6 (pr=   1)
(PID.TID 0000.0001) Tile     5 (pr=   1) recv pts i=  -1:   0, j=  -1:  34 from tile     3 (pr=   1)
(PID.TID 0000.0001) Tile     6 (pr=   1) recv pts i=  -1:  34, j=  33:  34 from tile     1 (pr=   1)
(PID.TID 0000.0001) Tile     6 (pr=   1) recv pts i=  -1:  34, j=  -1:   0 from tile     4 (pr=   1)
(PID.TID 0000.0001) Tile     6 (pr=   1) recv pts i=  33:  34, j=  -1:  34 from tile     2 (pr=   1)
(PID.TID 0000.0001) Tile     6 (pr=   1) recv pts i=  -1:   0, j=  -1:  34 from tile     5 (pr=   1)
(PID.TID 0000.0001) // =======================================================
(PID.TID 0000.0001) // Model parameter file "data"
(PID.TID 0000.0001) // =======================================================
(PID.TID 0000.0001) ># ====================
(PID.TID 0000.0001) ># | Model parameters |
(PID.TID 0000.0001) ># ====================
(PID.TID 0000.0001) >#
(PID.TID 0000.0001) ># Continuous equation parameters
(PID.TID 0000.0001) > &PARM01
(PID.TID 0000.0001) > tRef=300.,
(PID.TID 0000.0001) > sRef=0.,
(PID.TID 0000.0001) > viscAr=0.,
(PID.TID 0000.0001) > viscAh=0.,
(PID.TID 0000.0001) > viscA4=0.,
(PID.TID 0000.0001) > no_slip_sides=.FALSE.,
(PID.TID 0000.0001) > no_slip_bottom=.FALSE.,
(PID.TID 0000.0001) > diffKrS=0.,
(PID.TID 0000.0001) > diffKhS=0.,
(PID.TID 0000.0001) > diffK4S=0.,
(PID.TID 0000.0001) > buoyancyRelation='ATMOSPHERIC',
(PID.TID 0000.0001) > eosType='IDEALGAS',
(PID.TID 0000.0001) > rotationPeriod=86400.,
(PID.TID 0000.0001) > gravity=9.81,
(PID.TID 0000.0001) > rhonil=1.0,
(PID.TID 0000.0001) > rhoConst=1.0,
(PID.TID 0000.0001) > rigidLid=.FALSE.,
(PID.TID 0000.0001) > implicitFreeSurface=.TRUE.,
(PID.TID 0000.0001) > nonHydrostatic=.FALSE.,
(PID.TID 0000.0001) > readBinaryPrec=64,
(PID.TID 0000.0001) > writeBinaryPrec=64,
(PID.TID 0000.0001) > tempStepping=.FALSE.,
(PID.TID 0000.0001) > saltStepping=.TRUE.,
(PID.TID 0000.0001) > vectorInvariantMomentum=.TRUE.,
(PID.TID 0000.0001) > &
(PID.TID 0000.0001) >
(PID.TID 0000.0001) ># Elliptic solver parameters
(PID.TID 0000.0001) > &PARM02
(PID.TID 0000.0001) > cg2dMaxIters=600,
(PID.TID 0000.0001) > cg2dTargetResidual=1.E-12,
(PID.TID 0000.0001) > &
(PID.TID 0000.0001) >
(PID.TID 0000.0001) ># Time stepping parameters
(PID.TID 0000.0001) > &PARM03
(PID.TID 0000.0001) > niter0=0,
(PID.TID 0000.0001) >#nTimeSteps=1728,
(PID.TID 0000.0001) > nTimeSteps=20,
(PID.TID 0000.0001) > abEps=0.1,
(PID.TID 0000.0001) > deltaT=1200.0,
(PID.TID 0000.0001) > cAdjFreq=0.,
(PID.TID 0000.0001) > pChkptFreq=0.0,
(PID.TID 0000.0001) > chkptFreq=0.0,
(PID.TID 0000.0001) > dumpFreq=86400.0,
(PID.TID 0000.0001) >#diagFreq=1.0,
(PID.TID 0000.0001) >#monitorFreq=21600.,
(PID.TID 0000.0001) > monitorFreq=1.,
(PID.TID 0000.0001) > &
(PID.TID 0000.0001) >
(PID.TID 0000.0001) ># Gridding parameters
(PID.TID 0000.0001) > &PARM04
(PID.TID 0000.0001) > usingCurvilinearGrid=.TRUE.,
(PID.TID 0000.0001) > delR=1.E5,
(PID.TID 0000.0001) > Ro_SeaLevel=1.E5,
(PID.TID 0000.0001) > &
(PID.TID 0000.0001) >
(PID.TID 0000.0001) ># Input datasets
(PID.TID 0000.0001) > &PARM05
(PID.TID 0000.0001) >#uVelInitFile='U.init',
(PID.TID 0000.0001) >#vVelInitFile='V.init',
(PID.TID 0000.0001) >#pSurfInitFile='Eta.init',
(PID.TID 0000.0001) > hydrogSaltFile='S.init',
(PID.TID 0000.0001) > &
(PID.TID 0000.0001) 
(PID.TID 0000.0001) S/R INI_PARMS ; starts to read PARM01
(PID.TID 0000.0001) S/R INI_PARMS ; read PARM01 : OK
(PID.TID 0000.0001) S/R INI_PARMS ; starts to read PARM02
(PID.TID 0000.0001) S/R INI_PARMS ; read PARM02 : OK
(PID.TID 0000.0001) S/R INI_PARMS ; starts to read PARM03
(PID.TID 0000.0001) S/R INI_PARMS ; read PARM03 : OK
(PID.TID 0000.0001) S/R INI_PARMS ; starts to read PARM04
(PID.TID 0000.0001) S/R INI_PARMS ; read PARM04 : OK
(PID.TID 0000.0001) S/R INI_PARMS ; starts to read PARM05
(PID.TID 0000.0001) S/R INI_PARMS ; read PARM05 : OK
(PID.TID 0000.0001)  PACKAGES_BOOT: opening data.pkg
(PID.TID 0000.0001)  OPEN_COPY_DATA_FILE: opening file data.pkg
(PID.TID 0000.0001) // =======================================================
(PID.TID 0000.0001) // Parameter file "data.pkg"
(PID.TID 0000.0001) // =======================================================
(PID.TID 0000.0001) ># Packages
(PID.TID 0000.0001) > &PACKAGES
(PID.TID 0000.0001) > useDiagnostics=.TRUE.,
(PID.TID 0000.0001) > &
(PID.TID 0000.0001) 
(PID.TID 0000.0001)  PACKAGES_BOOT: finished reading data.pkg
(PID.TID 0000.0001)  DIAGNOSTICS_READPARMS: opening data.diagnostics
(PID.TID 0000.0001)  OPEN_COPY_DATA_FILE: opening file data.diagnostics
(PID.TID 0000.0001) // =======================================================
(PID.TID 0000.0001) // Parameter file "data.diagnostics"
(PID.TID 0000.0001) // =======================================================
(PID.TID 0000.0001) ># Diagnostic Package Choices
(PID.TID 0000.0001) >#-----------------
(PID.TID 0000.0001) >#  dumpAtLast (logical): always write output at the end of simulation (default=F)
(PID.TID 0000.0001) >#  diag_mnc   (logical): write to NetCDF files (default=useMNC)
(PID.TID 0000.0001) >#--for each output-stream:
(PID.TID 0000.0001) >#  filename(n) : prefix of the output file name (only 8.c long) for outp.stream n
(PID.TID 0000.0001) >#  frequency(n):< 0 : write snap-shot output every |frequency| seconds
(PID.TID 0000.0001) >#               > 0 : write time-average output every frequency seconds
(PID.TID 0000.0001) >#  timePhase(n)     : write at time = timePhase + multiple of |frequency|
(PID.TID 0000.0001) >#    averagingFreq  : frequency (in s) for periodic averaging interval
(PID.TID 0000.0001) >#    averagingPhase : phase     (in s) for periodic averaging interval
(PID.TID 0000.0001) >#    repeatCycle    : number of averaging intervals in 1 cycle
(PID.TID 0000.0001) >#  levels(:,n) : list of levels to write to file (Notes: declared as REAL)
(PID.TID 0000.0001) >#                when this entry is missing, select all common levels of this list
(PID.TID 0000.0001) >#  fields(:,n) : list of diagnostics fields (8.c) (see "available_diagnostics.log"
(PID.TID 0000.0001) >#                file for the list of all available diag. in this particular config)
(PID.TID 0000.0001) >#  mising_value     : missing value for floats   in output
(PID.TID 0000.0001) >#  mising_value_int : missing value for integers in output
(PID.TID 0000.0001) >#  fileflags (8c string) : specific code for output file
(PID.TID 0000.0001) >#-----------------
(PID.TID 0000.0001) > &DIAGNOSTICS_LIST
(PID.TID 0000.0001) ># diag_mnc     = .FALSE.,
(PID.TID 0000.0001) >  frequency(1) = 21600.,
(PID.TID 0000.0001) ># timePhase(1) = 0.,
(PID.TID 0000.0001) >   filename(1) = 's_Diag',
(PID.TID 0000.0001) >   fields(1,1) = 'SALT    ','SALTSQ  ',
(PID.TID 0000.0001) > &
(PID.TID 0000.0001) >
(PID.TID 0000.0001) ># Parameter for Diagnostics of per level statistics:
(PID.TID 0000.0001) >#-----------------
(PID.TID 0000.0001) >#  diagSt_mnc (logical): write stat-diags to NetCDF files (default=diag_mnc)
(PID.TID 0000.0001) >#  diagSt_regMaskFile : file containing the region-mask to read-in
(PID.TID 0000.0001) >#  nSetRegMskFile   : number of region-mask sets within the region-mask file
(PID.TID 0000.0001) >#  set_regMask(i)   : region-mask set-index that identifies the region "i"
(PID.TID 0000.0001) >#  val_regMask(i)   : region "i" identificator value in the region mask
(PID.TID 0000.0001) >#--for each output-stream:
(PID.TID 0000.0001) >#  stat_fname(n) : prefix of the output file name (only 8.c long) for outp.stream n
(PID.TID 0000.0001) >#  stat_freq(n):< 0 : write snap-shot output every |stat_freq| seconds
(PID.TID 0000.0001) >#               > 0 : write time-average output every stat_freq seconds
(PID.TID 0000.0001) >#  stat_phase(n)    : write at time = stat_phase + multiple of |stat_freq|
(PID.TID 0000.0001) >#  stat_region(:,n) : list of "regions" (default: 1 region only=global)
(PID.TID 0000.0001) >#  stat_fields(:,n) : list of diagnostics fields (8.c) (see "available_diagnostics.log"
(PID.TID 0000.0001) >#                 file for the list of all available diag. in this particular config)
(PID.TID 0000.0001) >#-----------------
(PID.TID 0000.0001) > &DIAG_STATIS_PARMS
(PID.TID 0000.0001) ># an example just to check the agreement with MONITOR output:
(PID.TID 0000.0001) > stat_fields(1,1)= 'ETAN    ','momKE   ',
(PID.TID 0000.0001) >#                  'DETADT2 ',
(PID.TID 0000.0001) >                   'SALT    ','SALTSQ  ',
(PID.TID 0000.0001) >    stat_fname(1)= 'dynStDiag',
(PID.TID 0000.0001) >     stat_freq(1)= -21600.,
(PID.TID 0000.0001) >    stat_phase(1)= 0.,
(PID.TID 0000.0001) > &
(PID.TID 0000.0001) >
(PID.TID 0000.0001) 
(PID.TID 0000.0001) S/R DIAGNOSTICS_READPARMS, read namelist "diagnostics_list": start
(PID.TID 0000.0001) S/R DIAGNOSTICS_READPARMS, read namelist "diagnostics_list": OK
(PID.TID 0000.0001) S/R DIAGNOSTICS_READPARMS, read namelist "DIAG_STATIS_PARMS": start
(PID.TID 0000.0001) S/R DIAGNOSTICS_READPARMS, read namelist "DIAG_STATIS_PARMS": OK
(PID.TID 0000.0001) -----------------------------------------------------
(PID.TID 0000.0001)  DIAGNOSTICS_READPARMS: active diagnostics summary:
(PID.TID 0000.0001) -----------------------------------------------------
(PID.TID 0000.0001) Creating Output Stream: s_Diag
(PID.TID 0000.0001) Output Frequency:      21600.000000 ; Phase:           0.000000
(PID.TID 0000.0001)  Averaging Freq.:      21600.000000 , Phase:           0.000000 , Cycle:   1
(PID.TID 0000.0001)  missing value:  1.234567000000E+05 ; for integers:   123456789
(PID.TID 0000.0001)  Levels:    will be set later
(PID.TID 0000.0001)  Fields:    SALT     SALTSQ
(PID.TID 0000.0001) -----------------------------------------------------
(PID.TID 0000.0001)  DIAGNOSTICS_READPARMS: statistics diags. summary:
(PID.TID 0000.0001) Creating Stats. Output Stream: dynStDiag
(PID.TID 0000.0001) Output Frequency:     -21600.000000 ; Phase:           0.000000
(PID.TID 0000.0001)  Regions:   0
(PID.TID 0000.0001)  Fields:    ETAN     momKE    SALT     SALTSQ
(PID.TID 0000.0001) -----------------------------------------------------
(PID.TID 0000.0001) 
(PID.TID 0000.0001) SET_PARMS: done
(PID.TID 0000.0001) Enter INI_VERTICAL_GRID: setInterFDr=    T ; setCenterDr=    F
(PID.TID 0000.0001) tile:   1 ; Read from file tile001.mitgrid
(PID.TID 0000.0001)   => xC yC dxF dyF rA xG yG dxV dyU rAz dxC dyC rAw rAs dxG dyG
(PID.TID 0000.0001) tile:   2 ; Read from file tile002.mitgrid
(PID.TID 0000.0001)   => xC yC dxF dyF rA xG yG dxV dyU rAz dxC dyC rAw rAs dxG dyG
(PID.TID 0000.0001) tile:   3 ; Read from file tile003.mitgrid
(PID.TID 0000.0001)   => xC yC dxF dyF rA xG yG dxV dyU rAz dxC dyC rAw rAs dxG dyG
(PID.TID 0000.0001) tile:   4 ; Read from file tile004.mitgrid
(PID.TID 0000.0001)   => xC yC dxF dyF rA xG yG dxV dyU rAz dxC dyC rAw rAs dxG dyG
(PID.TID 0000.0001) tile:   5 ; Read from file tile005.mitgrid
(PID.TID 0000.0001)   => xC yC dxF dyF rA xG yG dxV dyU rAz dxC dyC rAw rAs dxG dyG
(PID.TID 0000.0001) tile:   6 ; Read from file tile006.mitgrid
(PID.TID 0000.0001)   => xC yC dxF dyF rA xG yG dxV dyU rAz dxC dyC rAw rAs dxG dyG
(PID.TID 0000.0001) %MON XC_max                       =   1.7854351806641E+02
(PID.TID 0000.0001) %MON XC_min                       =  -1.7854351806641E+02
(PID.TID 0000.0001) %MON XC_mean                      =   0.0000000000000E+00
(PID.TID 0000.0001) %MON XC_sd                        =   1.0355545329190E+02
(PID.TID 0000.0001) %MON XG_max                       =   1.8000000000000E+02
(PID.TID 0000.0001) %MON XG_min                       =  -1.7708796691895E+02
(PID.TID 0000.0001) %MON XG_mean                      =   1.8457031250000E+00
(PID.TID 0000.0001) %MON XG_sd                        =   1.0356201798194E+02
(PID.TID 0000.0001) %MON DXC_max                      =   3.2375187500000E+05
(PID.TID 0000.0001) %MON DXC_min                      =   1.1166471093750E+05
(PID.TID 0000.0001) %MON DXC_mean                     =   2.8606279234314E+05
(PID.TID 0000.0001) %MON DXC_sd                       =   3.4029259651138E+04
(PID.TID 0000.0001) %MON DXF_max                      =   3.2369946875000E+05
(PID.TID 0000.0001) %MON DXF_min                      =   1.2081645312500E+05
(PID.TID 0000.0001) %MON DXF_mean                     =   2.8606279180908E+05
(PID.TID 0000.0001) %MON DXF_sd                       =   3.4027324635324E+04
(PID.TID 0000.0001) %MON DXG_max                      =   3.2375196875000E+05
(PID.TID 0000.0001) %MON DXG_min                      =   1.0098378125000E+05
(PID.TID 0000.0001) %MON DXG_mean                     =   2.8604515829468E+05
(PID.TID 0000.0001) %MON DXG_sd                       =   3.4124649129529E+04
(PID.TID 0000.0001) %MON DXV_max                      =   3.2380418750000E+05
(PID.TID 0000.0001) %MON DXV_min                      =   8.0152296875000E+04
(PID.TID 0000.0001) %MON DXV_mean                     =   2.8604515852356E+05
(PID.TID 0000.0001) %MON DXV_sd                       =   3.4134690425390E+04
(PID.TID 0000.0001) %MON YC_max                       =   8.7940666198730E+01
(PID.TID 0000.0001) %MON YC_min                       =  -8.7940666198730E+01
(PID.TID 0000.0001) %MON YC_mean                      =   0.0000000000000E+00
(PID.TID 0000.0001) %MON YC_sd                        =   3.8676243019129E+01
(PID.TID 0000.0001) %MON YG_max                       =   9.0000000000000E+01
(PID.TID 0000.0001) %MON YG_min                       =  -9.0000000000000E+01
(PID.TID 0000.0001) %MON YG_mean                      =   0.0000000000000E+00
(PID.TID 0000.0001) %MON YG_sd                        =   3.8676895875991E+01
(PID.TID 0000.0001) %MON DYC_max                      =   3.2375187500000E+05
(PID.TID 0000.0001) %MON DYC_min                      =   1.1166471093750E+05
(PID.TID 0000.0001) %MON DYC_mean                     =   2.8606279234314E+05
(PID.TID 0000.0001) %MON DYC_sd                       =   3.4029259651138E+04
(PID.TID 0000.0001) %MON DYF_max                      =   3.2369946875000E+05
(PID.TID 0000.0001) %MON DYF_min                      =   1.2081645312500E+05
(PID.TID 0000.0001) %MON DYF_mean                     =   2.8606279180908E+05
(PID.TID 0000.0001) %MON DYF_sd                       =   3.4027324635324E+04
(PID.TID 0000.0001) %MON DYG_max                      =   3.2375196875000E+05
(PID.TID 0000.0001) %MON DYG_min                      =   1.0098378125000E+05
(PID.TID 0000.0001) %MON DYG_mean                     =   2.8604515829468E+05
(PID.TID 0000.0001) %MON DYG_sd                       =   3.4124649129529E+04
(PID.TID 0000.0001) %MON DYU_max                      =   3.2380418750000E+05
(PID.TID 0000.0001) %MON DYU_min                      =   8.0152296875000E+04
(PID.TID 0000.0001) %MON DYU_mean                     =   2.8604515852356E+05
(PID.TID 0000.0001) %MON DYU_sd                       =   3.4134690425390E+04
(PID.TID 0000.0001) %MON RA_max                       =   1.0477149388800E+11
(PID.TID 0000.0001) %MON RA_min                       =   1.4831937536000E+10
(PID.TID 0000.0001) %MON RA_mean                      =   8.2992246560000E+10
(PID.TID 0000.0001) %MON RA_sd                        =   1.7474749265345E+10
(PID.TID 0000.0001) %MON RAW_max                      =   1.0480542515200E+11
(PID.TID 0000.0001) %MON RAW_min                      =   1.2415180800000E+10
(PID.TID 0000.0001) %MON RAW_mean                     =   8.2992246700000E+10
(PID.TID 0000.0001) %MON RAW_sd                       =   1.7475025576696E+10
(PID.TID 0000.0001) %MON RAS_max                      =   1.0480542515200E+11
(PID.TID 0000.0001) %MON RAS_min                      =   1.2415180800000E+10
(PID.TID 0000.0001) %MON RAS_mean                     =   8.2992246700000E+10
(PID.TID 0000.0001) %MON RAS_sd                       =   1.7475025576696E+10
(PID.TID 0000.0001) %MON RAZ_max                      =   1.0483925811200E+11
(PID.TID 0000.0001) %MON RAZ_min                      =   9.2429455360000E+09
(PID.TID 0000.0001) %MON RAZ_mean                     =   8.2992246690000E+10
(PID.TID 0000.0001) %MON RAZ_sd                       =   1.7475350486863E+10
(PID.TID 0000.0001) %MON AngleCS_max                  =   1.0000000000000E+00
(PID.TID 0000.0001) %MON AngleCS_min                  =   1.0000000000000E+00
(PID.TID 0000.0001) %MON AngleCS_mean                 =   1.0000000000000E+00
(PID.TID 0000.0001) %MON AngleCS_sd                   =   0.0000000000000E+00
(PID.TID 0000.0001) %MON AngleSN_max                  =   0.0000000000000E+00
(PID.TID 0000.0001) %MON AngleSN_min                  =   0.0000000000000E+00
(PID.TID 0000.0001) %MON AngleSN_mean                 =   0.0000000000000E+00
(PID.TID 0000.0001) %MON AngleSN_sd                   =   0.0000000000000E+00
(PID.TID 0000.0001) 
(PID.TID 0000.0001) SET_REF_STATE: PhiRef/g [m] at level Center (integer)
(PID.TID 0000.0001)                      and at level Interface (half-int.) :
(PID.TID 0000.0001)  K=  0.5  ;  r=       100000.0  ;  phiRef/g=        0.000
(PID.TID 0000.0001)  K=  1.0  ;  r=        50000.0  ;  phiRef/g=     5516.309
(PID.TID 0000.0001)  K=  1.5  ;  r=            0.0  ;  phiRef/g=    30703.364
(PID.TID 0000.0001) // =======================================================
(PID.TID 0000.0001) // Field Model R_low (ini_masks_etc) at iteration          1
(PID.TID 0000.0001) // CMIN =          1.000000000000000E+32
(PID.TID 0000.0001) // CMAX =         -1.000000000000000E+32
(PID.TID 0000.0001) // CINT =          0.000000000000000E+00
(PID.TID 0000.0001) // SYMBOLS (CMIN->CMAX): -abcdefghijklmnopqrstuvwxyz+
(PID.TID 0000.0001) //                  0.0: .
(PID.TID 0000.0001) // RANGE I (Lo:Hi:Step):(  -1: 194:   1)
(PID.TID 0000.0001) // RANGE J (Lo:Hi:Step):(  34:  -1:  -1)
(PID.TID 0000.0001) // RANGE K (Lo:Hi:Step):(   1:   1:   1)
(PID.TID 0000.0001) // =======================================================
(PID.TID 0000.0001) // =======================================================
(PID.TID 0000.0001) // END OF FIELD                                          =
(PID.TID 0000.0001) // =======================================================
(PID.TID 0000.0001) 
(PID.TID 0000.0001) // =======================================================
(PID.TID 0000.0001) // Field Model Ro_surf (ini_masks_etc) at iteration          1
(PID.TID 0000.0001) // CMIN =          1.000000000000000E+05
(PID.TID 0000.0001) // CMAX =          1.000000000000000E+05
(PID.TID 0000.0001) // CINT =          0.000000000000000E+00
(PID.TID 0000.0001) // SYMBOLS (CMIN->CMAX): -abcdefghijklmnopqrstuvwxyz+
(PID.TID 0000.0001) //                  0.0: .
(PID.TID 0000.0001) // RANGE I (Lo:Hi:Step):(  -1: 194:   1)
(PID.TID 0000.0001) // RANGE J (Lo:Hi:Step):(  34:  -1:  -1)
(PID.TID 0000.0001) // RANGE K (Lo:Hi:Step):(   1:   1:   1)
(PID.TID 0000.0001) // =======================================================
(PID.TID 0000.0001) // =======================================================
(PID.TID 0000.0001) // END OF FIELD                                          =
(PID.TID 0000.0001) // =======================================================
(PID.TID 0000.0001) 
(PID.TID 0000.0001) // =======================================================
(PID.TID 0000.0001) // Field hFacC at iteration          1
(PID.TID 0000.0001) // CMIN =          1.000000000000000E+00
(PID.TID 0000.0001) // CMAX =          1.000000000000000E+00
(PID.TID 0000.0001) // CINT =          0.000000000000000E+00
(PID.TID 0000.0001) // SYMBOLS (CMIN->CMAX): -abcdefghijklmnopqrstuvwxyz+
(PID.TID 0000.0001) //                  0.0: .
(PID.TID 0000.0001) // RANGE I (Lo:Hi:Step):(  -1: 194:   1)
(PID.TID 0000.0001) // RANGE J (Lo:Hi:Step):(  34:  -1:  -1)
(PID.TID 0000.0001) // RANGE K (Lo:Hi:Step):(   1:   1:   1)
(PID.TID 0000.0001) // =======================================================
(PID.TID 0000.0001) // =======================================================
(PID.TID 0000.0001) // END OF FIELD                                          =
(PID.TID 0000.0001) // =======================================================
(PID.TID 0000.0001) 
(PID.TID 0000.0001) // =======================================================
(PID.TID 0000.0001) // Field hFacW at iteration          1
(PID.TID 0000.0001) // CMIN =          1.000000000000000E+00
(PID.TID 0000.0001) // CMAX =          1.000000000000000E+00
(PID.TID 0000.0001) // CINT =          0.000000000000000E+00
(PID.TID 0000.0001) // SYMBOLS (CMIN->CMAX): -abcdefghijklmnopqrstuvwxyz+
(PID.TID 0000.0001) //                  0.0: .
(PID.TID 0000.0001) // RANGE I (Lo:Hi:Step):(  -1: 194:   1)
(PID.TID 0000.0001) // RANGE J (Lo:Hi:Step):(  34:  -1:  -1)
(PID.TID 0000.0001) // RANGE K (Lo:Hi:Step):(   1:   1:   1)
(PID.TID 0000.0001) // =======================================================
(PID.TID 0000.0001) // =======================================================
(PID.TID 0000.0001) // END OF FIELD                                          =
(PID.TID 0000.0001) // =======================================================
(PID.TID 0000.0001) 
(PID.TID 0000.0001) // =======================================================
(PID.TID 0000.0001) // Field hFacS at iteration          1
(PID.TID 0000.0001) // CMIN =          1.000000000000000E+00
(PID.TID 0000.0001) // CMAX =          1.000000000000000E+00
(PID.TID 0000.0001) // CINT =          0.000000000000000E+00
(PID.TID 0000.0001) // SYMBOLS (CMIN->CMAX): -abcdefghijklmnopqrstuvwxyz+
(PID.TID 0000.0001) //                  0.0: .
(PID.TID 0000.0001) // RANGE I (Lo:Hi:Step):(  -1: 194:   1)
(PID.TID 0000.0001) // RANGE J (Lo:Hi:Step):(  34:  -1:  -1)
(PID.TID 0000.0001) // RANGE K (Lo:Hi:Step):(   1:   1:   1)
(PID.TID 0000.0001) // =======================================================
(PID.TID 0000.0001) // =======================================================
(PID.TID 0000.0001) // END OF FIELD                                          =
(PID.TID 0000.0001) // =======================================================
(PID.TID 0000.0001) 
(PID.TID 0000.0001) 
(PID.TID 0000.0001) // ===================================
(PID.TID 0000.0001) // GAD parameters :
(PID.TID 0000.0001) // ===================================
(PID.TID 0000.0001) tempAdvScheme =   /* Temp. Horiz.Advection scheme selector */
(PID.TID 0000.0001)                       2
(PID.TID 0000.0001)     ;
(PID.TID 0000.0001) tempVertAdvScheme =   /* Temp. Vert. Advection scheme selector */
(PID.TID 0000.0001)                       2
(PID.TID 0000.0001)     ;
(PID.TID 0000.0001) tempMultiDimAdvec =   /* use Muti-Dim Advec method for Temp */
(PID.TID 0000.0001)                   F
(PID.TID 0000.0001)     ;
(PID.TID 0000.0001) tempSOM_Advection = /* use 2nd Order Moment Advection for Temp */
(PID.TID 0000.0001)                   F
(PID.TID 0000.0001)     ;
(PID.TID 0000.0001) AdamsBashforthGt = /* apply Adams-Bashforth extrapolation on Gt */
(PID.TID 0000.0001)                   F
(PID.TID 0000.0001)     ;
(PID.TID 0000.0001) AdamsBashforth_T = /* apply Adams-Bashforth extrapolation on Temp */
(PID.TID 0000.0001)                   F
(PID.TID 0000.0001)     ;
(PID.TID 0000.0001) saltAdvScheme =   /* Salt. Horiz.advection scheme selector */
(PID.TID 0000.0001)                       2
(PID.TID 0000.0001)     ;
(PID.TID 0000.0001) saltVertAdvScheme =   /* Salt. Vert. Advection scheme selector */
(PID.TID 0000.0001)                       2
(PID.TID 0000.0001)     ;
(PID.TID 0000.0001) saltMultiDimAdvec =   /* use Muti-Dim Advec method for Salt */
(PID.TID 0000.0001)                   F
(PID.TID 0000.0001)     ;
(PID.TID 0000.0001) saltSOM_Advection = /* use 2nd Order Moment Advection for Salt */
(PID.TID 0000.0001)                   F
(PID.TID 0000.0001)     ;
(PID.TID 0000.0001) AdamsBashforthGs = /* apply Adams-Bashforth extrapolation on Gs */
(PID.TID 0000.0001)                   T
(PID.TID 0000.0001)     ;
(PID.TID 0000.0001) AdamsBashforth_S = /* apply Adams-Bashforth extrapolation on Salt */
(PID.TID 0000.0001)                   F
(PID.TID 0000.0001)     ;
(PID.TID 0000.0001) // ===================================
(PID.TID 0000.0001) ------------------------------------------------------------
(PID.TID 0000.0001) DIAGNOSTICS_SET_LEVELS: done
(PID.TID 0000.0001)  Total Nb of available Diagnostics: ndiagt=   156
(PID.TID 0000.0001)  write list of available Diagnostics to file: available_diagnostics.log
(PID.TID 0000.0001) SETDIAG: Allocate  1 x  1 Levels for Diagnostic #    27 SALT
(PID.TID 0000.0001) SETDIAG: Allocate  1 x  1 Levels for Diagnostic #    33 SALTSQ
(PID.TID 0000.0001)   space allocated for all diagnostics:       2 levels
(PID.TID 0000.0001) DIAGNOSTICS_SET_POINTERS: Set levels for Outp.Stream: s_Diag
(PID.TID 0000.0001)  Levels:       1.
(PID.TID 0000.0001) DIAGNOSTICS_SET_POINTERS: done
(PID.TID 0000.0001) ------------------------------------------------------------
(PID.TID 0000.0001) DIAGSTATS_SET_REGIONS: define no region
(PID.TID 0000.0001) ------------------------------------------------------------
(PID.TID 0000.0001) SETDIAG: Allocate  1 Levels for Stats-Diag #    23 ETAN
(PID.TID 0000.0001) SETDIAG: Allocate  1 Levels for Stats-Diag #   134 momKE
(PID.TID 0000.0001) SETDIAG: Allocate  1 Levels for Stats-Diag #    27 SALT
(PID.TID 0000.0001) SETDIAG: Allocate  1 Levels for Stats-Diag #    33 SALTSQ
(PID.TID 0000.0001)   space allocated for all stats-diags:       4 levels
(PID.TID 0000.0001) DIAGSTATS_SET_POINTERS: done
(PID.TID 0000.0001) ------------------------------------------------------------
(PID.TID 0000.0001) DIAGSTATS_INI_IO: open file: dynStDiag.0000000000.txt , unit=     9
(PID.TID 0000.0001) %MON fCori_max                    =   1.4535017544404E-04
(PID.TID 0000.0001) %MON fCori_min                    =  -1.4535017544404E-04
(PID.TID 0000.0001) %MON fCori_mean                   =   0.0000000000000E+00
(PID.TID 0000.0001) %MON fCori_sd                     =   8.3972193123192E-05
(PID.TID 0000.0001) %MON fCoriG_max                   =   1.4544410805684E-04
(PID.TID 0000.0001) %MON fCoriG_min                   =  -1.4544410805684E-04
(PID.TID 0000.0001) %MON fCoriG_mean                  =   0.0000000000000E+00
(PID.TID 0000.0001) %MON fCoriG_sd                    =   8.3972193086535E-05
(PID.TID 0000.0001) %MON fCoriCos_max                 =   1.4540342090186E-04
(PID.TID 0000.0001) %MON fCoriCos_min                 =   5.2264490477683E-06
(PID.TID 0000.0001) %MON fCoriCos_mean                =   1.1482595441888E-04
(PID.TID 0000.0001) %MON fCoriCos_sd                  =   3.0292878180988E-05
(PID.TID 0000.0001) INI_CG2D: CG2D normalisation factor =  9.8929540399694815E-06
(PID.TID 0000.0001) 
(PID.TID 0000.0001) // =======================================================
(PID.TID 0000.0001) // Model configuration
(PID.TID 0000.0001) // =======================================================
(PID.TID 0000.0001) //
(PID.TID 0000.0001) // "Physical" paramters ( PARM01 in namelist )
(PID.TID 0000.0001) //
(PID.TID 0000.0001) buoyancyRelation = /* Type of relation to get Buoyancy */
(PID.TID 0000.0001)               'ATMOSPHERIC'
(PID.TID 0000.0001)     ;
(PID.TID 0000.0001) fluidIsAir  =  /* fluid major constituent is Air */
(PID.TID 0000.0001)                   T
(PID.TID 0000.0001)     ;
(PID.TID 0000.0001) fluidIsWater=  /* fluid major constituent is Water */
(PID.TID 0000.0001)                   F
(PID.TID 0000.0001)     ;
(PID.TID 0000.0001) usingPCoords =  /* use p (or p*) vertical coordinate */
(PID.TID 0000.0001)                   T
(PID.TID 0000.0001)     ;
(PID.TID 0000.0001) usingZCoords =  /* use z (or z*) vertical coordinate */
(PID.TID 0000.0001)                   F
(PID.TID 0000.0001)     ;
(PID.TID 0000.0001) tRef =   /* Reference temperature profile ( oC or K ) */
(PID.TID 0000.0001)                 3.000000000000000E+02       /* K =  1 */
(PID.TID 0000.0001)     ;
(PID.TID 0000.0001) sRef =   /* Reference salinity profile ( psu ) */
(PID.TID 0000.0001)                 0.000000000000000E+00       /* K =  1 */
(PID.TID 0000.0001)     ;
(PID.TID 0000.0001) viscAh =   /* Lateral eddy viscosity ( m^2/s ) */
(PID.TID 0000.0001)                 0.000000000000000E+00
(PID.TID 0000.0001)     ;
(PID.TID 0000.0001) viscAhMax =   /* Maximum lateral eddy viscosity ( m^2/s ) */
(PID.TID 0000.0001)                 1.000000000000000E+21
(PID.TID 0000.0001)     ;
(PID.TID 0000.0001) viscAhGrid =   /* Grid dependent lateral eddy viscosity ( non-dim. ) */
(PID.TID 0000.0001)                 0.000000000000000E+00
(PID.TID 0000.0001)     ;
(PID.TID 0000.0001) useFullLeith =   /* Use Full Form of Leith Viscosity on/off flag*/
(PID.TID 0000.0001)                   F
(PID.TID 0000.0001)     ;
(PID.TID 0000.0001) useStrainTensionVisc =   /* Use StrainTension Form of Viscous Operator on/off flag*/
(PID.TID 0000.0001)                   F
(PID.TID 0000.0001)     ;
(PID.TID 0000.0001) useAreaViscLength =   /* Use area for visc length instead of geom. mean*/
(PID.TID 0000.0001)                   F
(PID.TID 0000.0001)     ;
(PID.TID 0000.0001) viscC2leith = /* Leith harmonic visc. factor (on grad(vort),non-dim.) */
(PID.TID 0000.0001)                 0.000000000000000E+00
(PID.TID 0000.0001)     ;
(PID.TID 0000.0001) viscC2leithD = /* Leith harmonic viscosity factor (on grad(div),non-dim.) */
(PID.TID 0000.0001)                 0.000000000000000E+00
(PID.TID 0000.0001)     ;
(PID.TID 0000.0001) viscC2smag =   /* Smagorinsky harmonic viscosity factor (non-dim.) */
(PID.TID 0000.0001)                 0.000000000000000E+00
(PID.TID 0000.0001)     ;
(PID.TID 0000.0001) viscA4 =   /* Lateral biharmonic viscosity ( m^4/s ) */
(PID.TID 0000.0001)                 0.000000000000000E+00
(PID.TID 0000.0001)     ;
(PID.TID 0000.0001) viscA4Max =   /* Maximum biharmonic viscosity ( m^2/s ) */
(PID.TID 0000.0001)                 1.000000000000000E+21
(PID.TID 0000.0001)     ;
(PID.TID 0000.0001) viscA4Grid =   /* Grid dependent biharmonic viscosity ( non-dim. ) */
(PID.TID 0000.0001)                 0.000000000000000E+00
(PID.TID 0000.0001)     ;
(PID.TID 0000.0001) viscC4leith = /* Leith biharm viscosity factor (on grad(vort), non-dim.) */
(PID.TID 0000.0001)                 0.000000000000000E+00
(PID.TID 0000.0001)     ;
(PID.TID 0000.0001) viscC4leithD = /* Leith biharm viscosity factor (on grad(div), non-dim.) */
(PID.TID 0000.0001)                 0.000000000000000E+00
(PID.TID 0000.0001)     ;
(PID.TID 0000.0001) viscC4Smag = /* Smagorinsky biharm viscosity factor (non-dim) */
(PID.TID 0000.0001)                 0.000000000000000E+00
(PID.TID 0000.0001)     ;
(PID.TID 0000.0001) no_slip_sides =  /* Viscous BCs: No-slip sides */
(PID.TID 0000.0001)                   F
(PID.TID 0000.0001)     ;
(PID.TID 0000.0001) sideDragFactor = /* side-drag scaling factor (non-dim) */
(PID.TID 0000.0001)                 2.000000000000000E+00
(PID.TID 0000.0001)     ;
(PID.TID 0000.0001) viscAr =   /* Vertical eddy viscosity (Pa^2/s ) */
(PID.TID 0000.0001)                 0.000000000000000E+00
(PID.TID 0000.0001)     ;
(PID.TID 0000.0001) no_slip_bottom =  /* Viscous BCs: No-slip bottom */
(PID.TID 0000.0001)                   F
(PID.TID 0000.0001)     ;
(PID.TID 0000.0001) bottomDragLinear = /* linear bottom-drag coefficient ( m/s ) */
(PID.TID 0000.0001)                 0.000000000000000E+00
(PID.TID 0000.0001)     ;
(PID.TID 0000.0001) bottomDragQuadratic = /* quadratic bottom-drag coefficient (-) */
(PID.TID 0000.0001)                 0.000000000000000E+00
(PID.TID 0000.0001)     ;
(PID.TID 0000.0001) diffKhT =   /* Laplacian diffusion of heat laterally ( m^2/s ) */
(PID.TID 0000.0001)                 0.000000000000000E+00
(PID.TID 0000.0001)     ;
(PID.TID 0000.0001) diffK4T =   /* Biharmonic diffusion of heat laterally ( m^4/s ) */
(PID.TID 0000.0001)                 0.000000000000000E+00
(PID.TID 0000.0001)     ;
(PID.TID 0000.0001) diffKhS =   /* Laplacian diffusion of salt laterally ( m^2/s ) */
(PID.TID 0000.0001)                 0.000000000000000E+00
(PID.TID 0000.0001)     ;
(PID.TID 0000.0001) diffK4S =   /* Biharmonic diffusion of salt laterally ( m^4/s ) */
(PID.TID 0000.0001)                 0.000000000000000E+00
(PID.TID 0000.0001)     ;
(PID.TID 0000.0001) diffKrNrT = /* vertical profile of vertical diffusion of Temp (Pa^2/s )*/
(PID.TID 0000.0001)                 0.000000000000000E+00       /* K =  1 */
(PID.TID 0000.0001)     ;
(PID.TID 0000.0001) diffKrNrS = /* vertical profile of vertical diffusion of Salt (Pa^2/s )*/
(PID.TID 0000.0001)                 0.000000000000000E+00       /* K =  1 */
(PID.TID 0000.0001)     ;
(PID.TID 0000.0001) diffKrBL79surf = /* Surface diffusion for Bryan and Lewis 79 ( m^2/s ) */
(PID.TID 0000.0001)                 0.000000000000000E+00
(PID.TID 0000.0001)     ;
(PID.TID 0000.0001) diffKrBL79deep = /* Deep diffusion for Bryan and Lewis 1979 ( m^2/s ) */
(PID.TID 0000.0001)                 0.000000000000000E+00
(PID.TID 0000.0001)     ;
(PID.TID 0000.0001) diffKrBL79scl = /* Depth scale for Bryan and Lewis 1979 ( m ) */
(PID.TID 0000.0001)                 2.000000000000000E+02
(PID.TID 0000.0001)     ;
(PID.TID 0000.0001) diffKrBL79Ho = /* Turning depth for Bryan and Lewis 1979 ( m ) */
(PID.TID 0000.0001)                -2.000000000000000E+03
(PID.TID 0000.0001)     ;
(PID.TID 0000.0001) ivdc_kappa = /* Implicit Vertical Diffusivity for Convection (Pa^2/s ) */
(PID.TID 0000.0001)                 0.000000000000000E+00
(PID.TID 0000.0001)     ;
(PID.TID 0000.0001) hMixCriteria=  /* Criteria for mixed-layer diagnostic */
(PID.TID 0000.0001)                -8.000000000000000E-01
(PID.TID 0000.0001)     ;
(PID.TID 0000.0001) eosType =  /* Type of Equation of State */
(PID.TID 0000.0001)               'IDEALG'
(PID.TID 0000.0001)     ;
(PID.TID 0000.0001) tAlpha =   /* Linear EOS thermal expansion coefficient ( 1/oC ) */
(PID.TID 0000.0001)                 1.234567000000000E+05
(PID.TID 0000.0001)     ;
(PID.TID 0000.0001) sBeta =   /* Linear EOS haline contraction coefficient ( 1/psu ) */
(PID.TID 0000.0001)                 1.234567000000000E+05
(PID.TID 0000.0001)     ;
(PID.TID 0000.0001) atm_Rd =  /* gas constant for dry air ( J/kg/K ) */
(PID.TID 0000.0001)                 2.868571428571428E+02
(PID.TID 0000.0001)     ;
(PID.TID 0000.0001) atm_Cp =  /* specific heat (Cp) of dry air ( J/kg/K ) */
(PID.TID 0000.0001)                 1.004000000000000E+03
(PID.TID 0000.0001)     ;
(PID.TID 0000.0001) atm_kappa =  /* kappa (=Rd/Cp ) of dry air */
(PID.TID 0000.0001)                 2.857142857142857E-01
(PID.TID 0000.0001)     ;
(PID.TID 0000.0001) atm_Rq = /* water vap. specific vol. anomaly relative to dry air */
(PID.TID 0000.0001)                 0.000000000000000E+00
(PID.TID 0000.0001)     ;
(PID.TID 0000.0001) atm_Po =  /* standard reference pressure ( Pa ) */
(PID.TID 0000.0001)                 1.000000000000000E+05
(PID.TID 0000.0001)     ;
(PID.TID 0000.0001) integr_GeoPot =  /* select how the geopotential is integrated */
(PID.TID 0000.0001)                       2
(PID.TID 0000.0001)     ;
(PID.TID 0000.0001) selectFindRoSurf=  /* select how Surf.Ref. pressure is defined */
(PID.TID 0000.0001)                       0
(PID.TID 0000.0001)     ;
(PID.TID 0000.0001) rhonil =   /* Reference density ( kg/m^3 ) */
(PID.TID 0000.0001)                 1.000000000000000E+00
(PID.TID 0000.0001)     ;
(PID.TID 0000.0001) rhoConst =   /* Reference density ( kg/m^3 ) */
(PID.TID 0000.0001)                 1.000000000000000E+00
(PID.TID 0000.0001)     ;
(PID.TID 0000.0001) rhoFacC = /* normalized Reference density @ cell-Center (-) */
(PID.TID 0000.0001)                 1.000000000000000E+00       /* K =  1 */
(PID.TID 0000.0001)     ;
(PID.TID 0000.0001) rhoFacF = /* normalized Reference density @ W-Interface (-) */
(PID.TID 0000.0001)     2 @  1.000000000000000E+00              /* K =  1:  2 */
(PID.TID 0000.0001)     ;
(PID.TID 0000.0001) rhoConstFresh =   /* Reference density ( kg/m^3 ) */
(PID.TID 0000.0001)                 1.000000000000000E+00
(PID.TID 0000.0001)     ;
(PID.TID 0000.0001) gravity =   /* Gravitational acceleration ( m/s^2 ) */
(PID.TID 0000.0001)                 9.810000000000000E+00
(PID.TID 0000.0001)     ;
(PID.TID 0000.0001) gBaro =   /* Barotropic gravity ( m/s^2 ) */
(PID.TID 0000.0001)                 9.810000000000000E+00
(PID.TID 0000.0001)     ;
(PID.TID 0000.0001) rotationPeriod =   /* Rotation Period ( s ) */
(PID.TID 0000.0001)                 8.640000000000000E+04
(PID.TID 0000.0001)     ;
(PID.TID 0000.0001) omega =   /* Angular velocity ( rad/s ) */
(PID.TID 0000.0001)                 7.272205216643040E-05
(PID.TID 0000.0001)     ;
(PID.TID 0000.0001) f0 =   /* Reference coriolis parameter ( 1/s ) */
(PID.TID 0000.0001)                 1.000000000000000E-04
(PID.TID 0000.0001)     ;
(PID.TID 0000.0001) beta =   /* Beta ( 1/(m.s) ) */
(PID.TID 0000.0001)                 9.999999999999999E-12
(PID.TID 0000.0001)     ;
(PID.TID 0000.0001) freeSurfFac =   /* Implicit free surface factor */
(PID.TID 0000.0001)                 1.000000000000000E+00
(PID.TID 0000.0001)     ;
(PID.TID 0000.0001) implicitFreeSurface =   /* Implicit free surface on/off flag */
(PID.TID 0000.0001)                   T
(PID.TID 0000.0001)     ;
(PID.TID 0000.0001) rigidLid =   /* Rigid lid on/off flag */
(PID.TID 0000.0001)                   F
(PID.TID 0000.0001)     ;
(PID.TID 0000.0001) implicSurfPress =   /* Surface Pressure implicit factor (0-1)*/
(PID.TID 0000.0001)                 1.000000000000000E+00
(PID.TID 0000.0001)     ;
(PID.TID 0000.0001) implicDiv2Dflow =   /* Barot. Flow Div. implicit factor (0-1)*/
(PID.TID 0000.0001)                 1.000000000000000E+00
(PID.TID 0000.0001)     ;
(PID.TID 0000.0001) exactConserv =   /* Exact Volume Conservation on/off flag*/
(PID.TID 0000.0001)                   F
(PID.TID 0000.0001)     ;
(PID.TID 0000.0001) linFSConserveTr =   /* Tracer correction for Lin Free Surface on/off flag*/
(PID.TID 0000.0001)                   F
(PID.TID 0000.0001)     ;
(PID.TID 0000.0001) uniformLin_PhiSurf =   /* use uniform Bo_surf on/off flag*/
(PID.TID 0000.0001)                   T
(PID.TID 0000.0001)     ;
(PID.TID 0000.0001) nonlinFreeSurf =   /* Non-linear Free Surf. options (-1,0,1,2,3)*/
(PID.TID 0000.0001)                       0
(PID.TID 0000.0001)     ;
(PID.TID 0000.0001)      -1,0= Off ; 1,2,3= On, 2=+rescale gU,gV, 3=+update cg2d solv.
(PID.TID 0000.0001) hFacInf =   /* lower threshold for hFac (nonlinFreeSurf only)*/
(PID.TID 0000.0001)                 2.000000000000000E-01
(PID.TID 0000.0001)     ;
(PID.TID 0000.0001) hFacSup =   /* upper threshold for hFac (nonlinFreeSurf only)*/
(PID.TID 0000.0001)                 2.000000000000000E+00
(PID.TID 0000.0001)     ;
(PID.TID 0000.0001) select_rStar = /* r* Vertical coord. options (=0 r coord.; > 0 uses r*) */
(PID.TID 0000.0001)                       0
(PID.TID 0000.0001)     ;
(PID.TID 0000.0001) selectAddFluid = /* option for mass source/sink of fluid (=0: off) */
(PID.TID 0000.0001)                       0
(PID.TID 0000.0001)     ;
(PID.TID 0000.0001) useRealFreshWaterFlux = /* Real Fresh Water Flux on/off flag*/
(PID.TID 0000.0001)                   F
(PID.TID 0000.0001)     ;
(PID.TID 0000.0001) temp_EvPrRn = /* Temp. of Evap/Prec/R (UNSET=use local T)(oC)*/
(PID.TID 0000.0001)                 1.234567000000000E+05
(PID.TID 0000.0001)     ;
(PID.TID 0000.0001) salt_EvPrRn = /* Salin. of Evap/Prec/R (UNSET=use local S)(ppt)*/
(PID.TID 0000.0001)                 0.000000000000000E+00
(PID.TID 0000.0001)     ;
(PID.TID 0000.0001) convertFW2Salt = /* convert F.W. Flux to Salt Flux (-1=use local S)(ppt)*/
(PID.TID 0000.0001)                 3.500000000000000E+01
(PID.TID 0000.0001)     ;
(PID.TID 0000.0001) use3Dsolver = /* use 3-D pressure solver on/off flag */
(PID.TID 0000.0001)                   F
(PID.TID 0000.0001)     ;
(PID.TID 0000.0001) nonHydrostatic =  /* Non-Hydrostatic on/off flag */
(PID.TID 0000.0001)                   F
(PID.TID 0000.0001)     ;
(PID.TID 0000.0001) nh_Am2 = /* Non-Hydrostatic terms scaling factor */
(PID.TID 0000.0001)                 1.000000000000000E+00
(PID.TID 0000.0001)     ;
(PID.TID 0000.0001) quasiHydrostatic = /* Quasi-Hydrostatic on/off flag */
(PID.TID 0000.0001)                   F
(PID.TID 0000.0001)     ;
(PID.TID 0000.0001) momStepping =  /* Momentum equation on/off flag */
(PID.TID 0000.0001)                   T
(PID.TID 0000.0001)     ;
(PID.TID 0000.0001) vectorInvariantMomentum= /* Vector-Invariant Momentum on/off */
(PID.TID 0000.0001)                   T
(PID.TID 0000.0001)     ;
(PID.TID 0000.0001) momAdvection =  /* Momentum advection on/off flag */
(PID.TID 0000.0001)                   T
(PID.TID 0000.0001)     ;
(PID.TID 0000.0001) momViscosity =  /* Momentum viscosity on/off flag */
(PID.TID 0000.0001)                   T
(PID.TID 0000.0001)     ;
(PID.TID 0000.0001) momImplVertAdv =/* Momentum implicit vert. advection on/off*/
(PID.TID 0000.0001)                   F
(PID.TID 0000.0001)     ;
(PID.TID 0000.0001) implicitViscosity = /* Implicit viscosity on/off flag */
(PID.TID 0000.0001)                   F
(PID.TID 0000.0001)     ;
(PID.TID 0000.0001) metricTerms =  /* metric-Terms on/off flag */
(PID.TID 0000.0001)                   F
(PID.TID 0000.0001)     ;
(PID.TID 0000.0001) useNHMTerms = /* Non-Hydrostatic Metric-Terms on/off */
(PID.TID 0000.0001)                   F
(PID.TID 0000.0001)     ;
(PID.TID 0000.0001) useConstantF =  /* use Constant f0 Coriolis flag */
(PID.TID 0000.0001)                   F
(PID.TID 0000.0001)     ;
(PID.TID 0000.0001) useBetaPlaneF = /* use Beta-Plane Coriolis flag */
(PID.TID 0000.0001)                   F
(PID.TID 0000.0001)     ;
(PID.TID 0000.0001) useSphereF  =   /* use Spherical Coriolis flag */
(PID.TID 0000.0001)                   T
(PID.TID 0000.0001)     ;
(PID.TID 0000.0001) use3dCoriolis = /* 3-D Coriolis on/off flag */
(PID.TID 0000.0001)                   F
(PID.TID 0000.0001)     ;
(PID.TID 0000.0001) useCoriolis =  /* Coriolis on/off flag */
(PID.TID 0000.0001)                   T
(PID.TID 0000.0001)     ;
(PID.TID 0000.0001) useCDscheme =  /* CD scheme on/off flag */
(PID.TID 0000.0001)                   F
(PID.TID 0000.0001)     ;
(PID.TID 0000.0001) useJamartWetPoints= /* Coriolis WetPoints method flag */
(PID.TID 0000.0001)                   F
(PID.TID 0000.0001)     ;
(PID.TID 0000.0001) useJamartMomAdv= /* V.I. Non-linear terms Jamart flag */
(PID.TID 0000.0001)                   F
(PID.TID 0000.0001)     ;
(PID.TID 0000.0001) useAbsVorticity= /* Work with f+zeta in Coriolis */
(PID.TID 0000.0001)                   F
(PID.TID 0000.0001)     ;
(PID.TID 0000.0001) selectVortScheme= /* Scheme selector for Vorticity-Term */
(PID.TID 0000.0001)                       1
(PID.TID 0000.0001)    = 0 : enstrophy (Shallow-Water Eq.) conserving scheme by Sadourny, JAS 75
(PID.TID 0000.0001)    = 1 : same as 0 with modified hFac
(PID.TID 0000.0001)    = 2 : energy conserving scheme (used by Sadourny in JAS 75 paper)
(PID.TID 0000.0001)    = 3 : energy (general) and enstrophy (2D, nonDiv.) conserving scheme
(PID.TID 0000.0001)          from Sadourny (Burridge & Haseler, ECMWF Rep.4, 1977)
(PID.TID 0000.0001)     ;
(PID.TID 0000.0001) upwindVorticity= /* Upwind bias vorticity flag */
(PID.TID 0000.0001)                   F
(PID.TID 0000.0001)     ;
(PID.TID 0000.0001) highOrderVorticity= /* High order interp. of vort. flag */
(PID.TID 0000.0001)                   F
(PID.TID 0000.0001)     ;
(PID.TID 0000.0001) upwindShear= /* Upwind vertical Shear advection flag */
(PID.TID 0000.0001)                   F
(PID.TID 0000.0001)     ;
(PID.TID 0000.0001) selectKEscheme= /* Kinetic Energy scheme selector */
(PID.TID 0000.0001)                       0
(PID.TID 0000.0001)     ;
(PID.TID 0000.0001) momForcing =  /* Momentum forcing on/off flag */
(PID.TID 0000.0001)                   T
(PID.TID 0000.0001)     ;
(PID.TID 0000.0001) momPressureForcing =  /* Momentum pressure term on/off flag */
(PID.TID 0000.0001)                   T
(PID.TID 0000.0001)     ;
(PID.TID 0000.0001) implicitIntGravWave= /* Implicit Internal Gravity Wave flag */
(PID.TID 0000.0001)                   F
(PID.TID 0000.0001)     ;
(PID.TID 0000.0001) staggerTimeStep =   /* Stagger time stepping on/off flag */
(PID.TID 0000.0001)                   F
(PID.TID 0000.0001)     ;
(PID.TID 0000.0001) multiDimAdvection =   /* enable/disable Multi-Dim Advection */
(PID.TID 0000.0001)                   T
(PID.TID 0000.0001)     ;
(PID.TID 0000.0001) useMultiDimAdvec =   /* Multi-Dim Advection is/is-not used */
(PID.TID 0000.0001)                   F
(PID.TID 0000.0001)     ;
(PID.TID 0000.0001) implicitDiffusion =/* Implicit Diffusion on/off flag */
(PID.TID 0000.0001)                   F
(PID.TID 0000.0001)     ;
(PID.TID 0000.0001) tempStepping =  /* Temperature equation on/off flag */
(PID.TID 0000.0001)                   F
(PID.TID 0000.0001)     ;
(PID.TID 0000.0001) tempAdvection=  /* Temperature advection on/off flag */
(PID.TID 0000.0001)                   F
(PID.TID 0000.0001)     ;
(PID.TID 0000.0001) tempImplVertAdv =/* Temp. implicit vert. advection on/off */
(PID.TID 0000.0001)                   F
(PID.TID 0000.0001)     ;
(PID.TID 0000.0001) tempForcing  =  /* Temperature forcing on/off flag */
(PID.TID 0000.0001)                   F
(PID.TID 0000.0001)     ;
(PID.TID 0000.0001) tempIsActiveTr = /* Temp. is a dynamically Active Tracer */
(PID.TID 0000.0001)                   F
(PID.TID 0000.0001)     ;
(PID.TID 0000.0001) saltStepping =  /* Salinity equation on/off flag */
(PID.TID 0000.0001)                   T
(PID.TID 0000.0001)     ;
(PID.TID 0000.0001) saltAdvection=  /* Salinity advection on/off flag */
(PID.TID 0000.0001)                   T
(PID.TID 0000.0001)     ;
(PID.TID 0000.0001) saltImplVertAdv =/* Sali. implicit vert. advection on/off */
(PID.TID 0000.0001)                   F
(PID.TID 0000.0001)     ;
(PID.TID 0000.0001) saltForcing  =  /* Salinity forcing on/off flag */
(PID.TID 0000.0001)                   T
(PID.TID 0000.0001)     ;
(PID.TID 0000.0001) saltIsActiveTr = /* Salt  is a dynamically Active Tracer */
(PID.TID 0000.0001)                   T
(PID.TID 0000.0001)     ;
(PID.TID 0000.0001)  readBinaryPrec = /* Precision used for reading binary files */
(PID.TID 0000.0001)                      64
(PID.TID 0000.0001)     ;
(PID.TID 0000.0001) writeBinaryPrec = /* Precision used for writing binary files */
(PID.TID 0000.0001)                      64
(PID.TID 0000.0001)     ;
(PID.TID 0000.0001)  globalFiles = /* write "global" (=not per tile) files */
(PID.TID 0000.0001)                   F
(PID.TID 0000.0001)     ;
(PID.TID 0000.0001)  useSingleCpuIO = /* only master MPI process does I/O */
(PID.TID 0000.0001)                   F
(PID.TID 0000.0001)     ;
(PID.TID 0000.0001)  debugMode  =  /* Debug Mode on/off flag */
(PID.TID 0000.0001)                   F
(PID.TID 0000.0001)     ;
(PID.TID 0000.0001)    debLevA  =  /* 1rst level of debugging */
(PID.TID 0000.0001)                       1
(PID.TID 0000.0001)     ;
(PID.TID 0000.0001)    debLevB  =  /* 2nd  level of debugging */
(PID.TID 0000.0001)                       2
(PID.TID 0000.0001)     ;
(PID.TID 0000.0001)  debugLevel =  /* select debugging level */
(PID.TID 0000.0001)                       1
(PID.TID 0000.0001)     ;
(PID.TID 0000.0001) //
(PID.TID 0000.0001) // Elliptic solver(s) paramters ( PARM02 in namelist )
(PID.TID 0000.0001) //
(PID.TID 0000.0001) cg2dMaxIters =   /* Upper limit on 2d con. grad iterations  */
(PID.TID 0000.0001)                     600
(PID.TID 0000.0001)     ;
(PID.TID 0000.0001) cg2dChkResFreq =   /* 2d con. grad convergence test frequency */
(PID.TID 0000.0001)                       1
(PID.TID 0000.0001)     ;
(PID.TID 0000.0001) cg2dTargetResidual =   /* 2d con. grad target residual  */
(PID.TID 0000.0001)                 1.000000000000000E-12
(PID.TID 0000.0001)     ;
(PID.TID 0000.0001) cg2dTargetResWunit =   /* CG2d target residual [W units] */
(PID.TID 0000.0001)                -1.000000000000000E+00
(PID.TID 0000.0001)     ;
(PID.TID 0000.0001) cg2dPreCondFreq =   /* Freq. for updating cg2d preconditioner */
(PID.TID 0000.0001)                       1
(PID.TID 0000.0001)     ;
(PID.TID 0000.0001) //
(PID.TID 0000.0001) // Time stepping paramters ( PARM03 in namelist )
(PID.TID 0000.0001) //
(PID.TID 0000.0001) deltaTmom =   /* Momentum equation timestep ( s ) */
(PID.TID 0000.0001)                 1.200000000000000E+03
(PID.TID 0000.0001)     ;
(PID.TID 0000.0001) deltaTfreesurf =   /* FreeSurface equation timestep ( s ) */
(PID.TID 0000.0001)                 1.200000000000000E+03
(PID.TID 0000.0001)     ;
(PID.TID 0000.0001) dTtracerLev =   /* Tracer equation timestep ( s ) */
(PID.TID 0000.0001)                 1.200000000000000E+03       /* K =  1 */
(PID.TID 0000.0001)     ;
(PID.TID 0000.0001) deltaTClock  =   /* Model clock timestep ( s ) */
(PID.TID 0000.0001)                 1.200000000000000E+03
(PID.TID 0000.0001)     ;
(PID.TID 0000.0001) cAdjFreq =   /* Convective adjustment interval ( s ) */
(PID.TID 0000.0001)                 0.000000000000000E+00
(PID.TID 0000.0001)     ;
(PID.TID 0000.0001) momForcingOutAB = /* =1: take Momentum Forcing out of Adams-Bash. stepping */
(PID.TID 0000.0001)                       0
(PID.TID 0000.0001)     ;
(PID.TID 0000.0001) tracForcingOutAB = /* =1: take T,S,pTr Forcing out of Adams-Bash. stepping */
(PID.TID 0000.0001)                       0
(PID.TID 0000.0001)     ;
(PID.TID 0000.0001) momDissip_In_AB = /* put Dissipation Tendency in Adams-Bash. stepping */
(PID.TID 0000.0001)                   T
(PID.TID 0000.0001)     ;
(PID.TID 0000.0001) doAB_onGtGs = /* apply AB on Tendencies (rather than on T,S)*/
(PID.TID 0000.0001)                   T
(PID.TID 0000.0001)     ;
(PID.TID 0000.0001) abEps =   /* Adams-Bashforth-2 stabilizing weight */
(PID.TID 0000.0001)                 1.000000000000000E-01
(PID.TID 0000.0001)     ;
(PID.TID 0000.0001) pickupStrictlyMatch= /* stop if pickup do not strictly match */
(PID.TID 0000.0001)                   T
(PID.TID 0000.0001)     ;
(PID.TID 0000.0001) nIter0 =   /* Run starting timestep number  */
(PID.TID 0000.0001)                       0
(PID.TID 0000.0001)     ;
(PID.TID 0000.0001) nTimeSteps =   /* Number of timesteps */
(PID.TID 0000.0001)                      20
(PID.TID 0000.0001)     ;
(PID.TID 0000.0001) baseTime =   /* Model base time ( s ). */
(PID.TID 0000.0001)                 0.000000000000000E+00
(PID.TID 0000.0001)     ;
(PID.TID 0000.0001) startTime =   /* Run start time ( s ). */
(PID.TID 0000.0001)                 0.000000000000000E+00
(PID.TID 0000.0001)     ;
(PID.TID 0000.0001) endTime =   /* Integration ending time ( s ). */
(PID.TID 0000.0001)                 2.400000000000000E+04
(PID.TID 0000.0001)     ;
(PID.TID 0000.0001) pChkPtFreq =   /* Permanent restart/checkpoint file interval ( s ). */
(PID.TID 0000.0001)                 0.000000000000000E+00
(PID.TID 0000.0001)     ;
(PID.TID 0000.0001) chkPtFreq =   /* Rolling restart/checkpoint file interval ( s ). */
(PID.TID 0000.0001)                 0.000000000000000E+00
(PID.TID 0000.0001)     ;
(PID.TID 0000.0001) pickup_write_mdsio =   /* Model IO flag. */
(PID.TID 0000.0001)                   T
(PID.TID 0000.0001)     ;
(PID.TID 0000.0001) pickup_read_mdsio =   /* Model IO flag. */
(PID.TID 0000.0001)                   T
(PID.TID 0000.0001)     ;
(PID.TID 0000.0001) pickup_write_immed =   /* Model IO flag. */
(PID.TID 0000.0001)                   F
(PID.TID 0000.0001)     ;
(PID.TID 0000.0001) writePickupAtEnd =   /* Model IO flag. */
(PID.TID 0000.0001)                   T
(PID.TID 0000.0001)     ;
(PID.TID 0000.0001) dumpFreq =   /* Model state write out interval ( s ). */
(PID.TID 0000.0001)                 8.640000000000000E+04
(PID.TID 0000.0001)     ;
(PID.TID 0000.0001) dumpInitAndLast= /* write out Initial & Last iter. model state */
(PID.TID 0000.0001)                   T
(PID.TID 0000.0001)     ;
(PID.TID 0000.0001) snapshot_mdsio =   /* Model IO flag. */
(PID.TID 0000.0001)                   T
(PID.TID 0000.0001)     ;
(PID.TID 0000.0001) monitorFreq =   /* Monitor output interval ( s ). */
(PID.TID 0000.0001)                 1.000000000000000E+00
(PID.TID 0000.0001)     ;
(PID.TID 0000.0001) monitorSelect = /* select group of variables to monitor */
(PID.TID 0000.0001)                       2
(PID.TID 0000.0001)     ;
(PID.TID 0000.0001) monitor_stdio =   /* Model IO flag. */
(PID.TID 0000.0001)                   T
(PID.TID 0000.0001)     ;
(PID.TID 0000.0001) externForcingPeriod =   /* forcing period (s) */
(PID.TID 0000.0001)                 0.000000000000000E+00
(PID.TID 0000.0001)     ;
(PID.TID 0000.0001) externForcingCycle =   /* period of the cyle (s). */
(PID.TID 0000.0001)                 0.000000000000000E+00
(PID.TID 0000.0001)     ;
(PID.TID 0000.0001) tauThetaClimRelax =   /* relaxation time scale (s) */
(PID.TID 0000.0001)                 0.000000000000000E+00
(PID.TID 0000.0001)     ;
(PID.TID 0000.0001) tauSaltClimRelax =   /* relaxation time scale (s) */
(PID.TID 0000.0001)                 0.000000000000000E+00
(PID.TID 0000.0001)     ;
(PID.TID 0000.0001) latBandClimRelax =   /* max. Lat. where relaxation */
(PID.TID 0000.0001)                 1.800000000000000E+02
(PID.TID 0000.0001)     ;
(PID.TID 0000.0001) //
(PID.TID 0000.0001) // Gridding paramters ( PARM04 in namelist )
(PID.TID 0000.0001) //
(PID.TID 0000.0001) usingCartesianGrid = /* Cartesian coordinates flag ( True/False ) */
(PID.TID 0000.0001)                   F
(PID.TID 0000.0001)     ;
(PID.TID 0000.0001) usingCylindricalGrid = /* Cylindrical coordinates flag ( True/False ) */
(PID.TID 0000.0001)                   F
(PID.TID 0000.0001)     ;
(PID.TID 0000.0001) usingSphericalPolarGrid = /* Spherical coordinates flag ( True/False ) */
(PID.TID 0000.0001)                   F
(PID.TID 0000.0001)     ;
(PID.TID 0000.0001) usingCurvilinearGrid = /* Curvilinear coordinates flag ( True/False ) */
(PID.TID 0000.0001)                   T
(PID.TID 0000.0001)     ;
(PID.TID 0000.0001) Ro_SeaLevel = /* r(1) ( units of r == Pa ) */
(PID.TID 0000.0001)                 1.000000000000000E+05
(PID.TID 0000.0001)     ;
(PID.TID 0000.0001) rkSign =   /* index orientation relative to vertical coordinate */
(PID.TID 0000.0001)                -1.000000000000000E+00
(PID.TID 0000.0001)     ;
(PID.TID 0000.0001) gravitySign = /* gravity orientation relative to vertical coordinate */
(PID.TID 0000.0001)                 1.000000000000000E+00
(PID.TID 0000.0001)     ;
(PID.TID 0000.0001) mass2rUnit = /* convert mass per unit area [kg/m2] to r-units [Pa] */
(PID.TID 0000.0001)                 9.810000000000000E+00
(PID.TID 0000.0001)     ;
(PID.TID 0000.0001) rUnit2mass = /* convert r-units [Pa] to mass per unit area [kg/m2] */
(PID.TID 0000.0001)                 1.019367991845056E-01
(PID.TID 0000.0001)     ;
(PID.TID 0000.0001) drC =   /* C spacing ( units of r ) */
(PID.TID 0000.0001)                 5.134144262925587E+37       /* K =  1 */
(PID.TID 0000.0001)     ;
(PID.TID 0000.0001) drF =   /* W spacing ( units of r ) */
(PID.TID 0000.0001)                 1.364455069962535E-40       /* K =  1 */
(PID.TID 0000.0001)     ;
(PID.TID 0000.0001) delX =   /* U spacing ( m - cartesian, degrees - spherical ) */
(PID.TID 0000.0001)   192 @  1.234567000000000E+05              /* I =  1:192 */
(PID.TID 0000.0001)     ;
(PID.TID 0000.0001) delY =   /* V spacing ( m - cartesian, degrees - spherical ) */
(PID.TID 0000.0001)    32 @  1.234567000000000E+05              /* J =  1: 32 */
(PID.TID 0000.0001)     ;
(PID.TID 0000.0001) phiMin =    /* South edge (ignored - cartesian, degrees - spherical ) */
(PID.TID 0000.0001)                 0.000000000000000E+00
(PID.TID 0000.0001)     ;
(PID.TID 0000.0001) thetaMin =    /* West edge ( ignored - cartesian, degrees - spherical ) */
(PID.TID 0000.0001)                 0.000000000000000E+00
(PID.TID 0000.0001)     ;
(PID.TID 0000.0001) rSphere =  /* Radius ( ignored - cartesian, m - spherical ) */
(PID.TID 0000.0001)                 6.370000000000000E+06
(PID.TID 0000.0001)     ;
(PID.TID 0000.0001) deepAtmosphere = /* Deep/Shallow Atmosphere flag (True/False) */
(PID.TID 0000.0001)                   F
(PID.TID 0000.0001)     ;
(PID.TID 0000.0001) xcoord =   /* P-point X coord ( m - cartesian, degrees - spherical ) */
(PID.TID 0000.0001)                 1.356047821044922E+02,      /* I =  1 */
(PID.TID 0000.0001)                 1.370435943603516E+02,      /* I =  2 */
(PID.TID 0000.0001)                 1.387794494628906E+02,      /* I =  3 */
(PID.TID 0000.0001)                 1.407655334472656E+02,      /* I =  4 */
(PID.TID 0000.0001)                 1.429741516113281E+02,      /* I =  5 */
(PID.TID 0000.0001)                 1.453881988525391E+02,      /* I =  6 */
(PID.TID 0000.0001)                 1.479956512451172E+02,      /* I =  7 */
(PID.TID 0000.0001)                 1.507864379882812E+02,      /* I =  8 */
(PID.TID 0000.0001)                 1.537506713867188E+02,      /* I =  9 */
(PID.TID 0000.0001)                 1.568773803710938E+02,      /* I = 10 */
(PID.TID 0000.0001)                 1.601535949707031E+02,      /* I = 11 */
(PID.TID 0000.0001)                 1.635636901855469E+02,      /* I = 12 */
(PID.TID 0000.0001)                 1.670890960693359E+02,      /* I = 13 */
(PID.TID 0000.0001)                 1.707081909179688E+02,      /* I = 14 */
(PID.TID 0000.0001)                 1.743965301513672E+02,      /* I = 15 */
(PID.TID 0000.0001)                 1.781273956298828E+02,      /* I = 16 */
(PID.TID 0000.0001)                -1.781273956298828E+02,      /* I = 17 */
(PID.TID 0000.0001)                -1.743965301513672E+02,      /* I = 18 */
(PID.TID 0000.0001)                -1.707081909179688E+02,      /* I = 19 */
(PID.TID 0000.0001)                -1.670890960693359E+02,      /* I = 20 */
(PID.TID 0000.0001)                -1.635636901855469E+02,      /* I = 21 */
(PID.TID 0000.0001)                -1.601535949707031E+02,      /* I = 22 */
(PID.TID 0000.0001)                -1.568773803710938E+02,      /* I = 23 */
(PID.TID 0000.0001)                -1.537506713867188E+02,      /* I = 24 */
(PID.TID 0000.0001)                -1.507864379882812E+02,      /* I = 25 */
(PID.TID 0000.0001)                -1.479956512451172E+02,      /* I = 26 */
(PID.TID 0000.0001)                -1.453881988525391E+02,      /* I = 27 */
(PID.TID 0000.0001)                -1.429741516113281E+02,      /* I = 28 */
(PID.TID 0000.0001)                -1.407655334472656E+02,      /* I = 29 */
(PID.TID 0000.0001)                -1.387794494628906E+02,      /* I = 30 */
(PID.TID 0000.0001)                -1.370435943603516E+02,      /* I = 31 */
(PID.TID 0000.0001)                -1.356047821044922E+02,      /* I = 32 */
(PID.TID 0000.0001)                -1.343952178955078E+02,      /* I = 33 */
(PID.TID 0000.0001)                -1.329564056396484E+02,      /* I = 34 */
(PID.TID 0000.0001)                -1.312205505371094E+02,      /* I = 35 */
(PID.TID 0000.0001)                -1.292344665527344E+02,      /* I = 36 */
(PID.TID 0000.0001)                -1.270258483886719E+02,      /* I = 37 */
(PID.TID 0000.0001)                -1.246117935180664E+02,      /* I = 38 */
(PID.TID 0000.0001)                -1.220043487548828E+02,      /* I = 39 */
(PID.TID 0000.0001)                -1.192135620117188E+02,      /* I = 40 */
(PID.TID 0000.0001)                -1.162493209838867E+02,      /* I = 41 */
(PID.TID 0000.0001)                -1.131226119995117E+02,      /* I = 42 */
(PID.TID 0000.0001)                -1.098464050292969E+02,      /* I = 43 */
(PID.TID 0000.0001)                -1.064363098144531E+02,      /* I = 44 */
(PID.TID 0000.0001)                -1.029108963012695E+02,      /* I = 45 */
(PID.TID 0000.0001)                -9.929180908203125E+01,      /* I = 46 */
(PID.TID 0000.0001)                -9.560347747802734E+01,      /* I = 47 */
(PID.TID 0000.0001)                -9.187261199951172E+01,      /* I = 48 */
(PID.TID 0000.0001)                -8.812738800048828E+01,      /* I = 49 */
(PID.TID 0000.0001)                -8.439652252197266E+01,      /* I = 50 */
(PID.TID 0000.0001)                -8.070819091796875E+01,      /* I = 51 */
(PID.TID 0000.0001)                -7.708910369873047E+01,      /* I = 52 */
(PID.TID 0000.0001)                -7.356369018554688E+01,      /* I = 53 */
(PID.TID 0000.0001)                -7.015359497070312E+01,      /* I = 54 */
(PID.TID 0000.0001)                -6.687738800048828E+01,      /* I = 55 */
(PID.TID 0000.0001)                -6.375067901611328E+01,      /* I = 56 */
(PID.TID 0000.0001)                -6.078644180297852E+01,      /* I = 57 */
(PID.TID 0000.0001)                -5.799565505981445E+01,      /* I = 58 */
(PID.TID 0000.0001)                -5.538820648193359E+01,      /* I = 59 */
(PID.TID 0000.0001)                -5.297414779663086E+01,      /* I = 60 */
(PID.TID 0000.0001)                -5.076553726196289E+01,      /* I = 61 */
(PID.TID 0000.0001)                -4.877944564819336E+01,      /* I = 62 */
(PID.TID 0000.0001)                -4.704358673095703E+01,      /* I = 63 */
(PID.TID 0000.0001)                -4.560477828979492E+01,      /* I = 64 */
(PID.TID 0000.0001)                -1.350000000000000E+02,      /* I = 65 */
(PID.TID 0000.0001)                -1.337919464111328E+02,      /* I = 66 */
(PID.TID 0000.0001)                -1.321863098144531E+02,      /* I = 67 */
(PID.TID 0000.0001)                -1.302823181152344E+02,      /* I = 68 */
(PID.TID 0000.0001)                -1.281226196289062E+02,      /* I = 69 */
(PID.TID 0000.0001)                -1.257299575805664E+02,      /* I = 70 */
(PID.TID 0000.0001)                -1.231187133789062E+02,      /* I = 71 */
(PID.TID 0000.0001)                -1.202998199462891E+02,      /* I = 72 */
(PID.TID 0000.0001)                -1.172834472656250E+02,      /* I = 73 */
(PID.TID 0000.0001)                -1.140808563232422E+02,      /* I = 74 */
(PID.TID 0000.0001)                -1.107056045532227E+02,      /* I = 75 */
(PID.TID 0000.0001)                -1.071745452880859E+02,      /* I = 76 */
(PID.TID 0000.0001)                -1.035083084106445E+02,      /* I = 77 */
(PID.TID 0000.0001)                -9.973157501220703E+01,      /* I = 78 */
(PID.TID 0000.0001)                -9.587273406982422E+01,      /* I = 79 */
(PID.TID 0000.0001)                -9.196327972412109E+01,      /* I = 80 */
(PID.TID 0000.0001)                -8.803672027587891E+01,      /* I = 81 */
(PID.TID 0000.0001)                -8.412726593017578E+01,      /* I = 82 */
(PID.TID 0000.0001)                -8.026842498779297E+01,      /* I = 83 */
(PID.TID 0000.0001)                -7.649169158935547E+01,      /* I = 84 */
(PID.TID 0000.0001)                -7.282545471191406E+01,      /* I = 85 */
(PID.TID 0000.0001)                -6.929439544677734E+01,      /* I = 86 */
(PID.TID 0000.0001)                -6.591914367675781E+01,      /* I = 87 */
(PID.TID 0000.0001)                -6.271654891967773E+01,      /* I = 88 */
(PID.TID 0000.0001)                -5.970018005371094E+01,      /* I = 89 */
(PID.TID 0000.0001)                -5.688128280639648E+01,      /* I = 90 */
(PID.TID 0000.0001)                -5.427004241943359E+01,      /* I = 91 */
(PID.TID 0000.0001)                -5.187738418579102E+01,      /* I = 92 */
(PID.TID 0000.0001)                -4.971767807006836E+01,      /* I = 93 */
(PID.TID 0000.0001)                -4.781369781494141E+01,      /* I = 94 */
(PID.TID 0000.0001)                -4.620805358886719E+01,      /* I = 95 */
(PID.TID 0000.0001)                -4.500000000000000E+01,      /* I = 96 */
(PID.TID 0000.0001)                -4.439522171020508E+01,      /* I = 97 */
(PID.TID 0000.0001)                -4.416320800781250E+01,      /* I = 98 */
(PID.TID 0000.0001)                -4.402796173095703E+01,      /* I = 99 */
(PID.TID 0000.0001)                -4.393453598022461E+01,      /* I =100 */
(PID.TID 0000.0001)                -4.386554718017578E+01,      /* I =101 */
(PID.TID 0000.0001)                -4.381287765502930E+01,      /* I =102 */
(PID.TID 0000.0001)                -4.377191925048828E+01,      /* I =103 */
(PID.TID 0000.0001)                -4.373974990844727E+01,      /* I =104 */
(PID.TID 0000.0001)                -4.371437072753906E+01,      /* I =105 */
(PID.TID 0000.0001)                -4.369437408447266E+01,      /* I =106 */
(PID.TID 0000.0001)                -4.367871856689453E+01,      /* I =107 */
(PID.TID 0000.0001)                -4.366664123535156E+01,      /* I =108 */
(PID.TID 0000.0001)                -4.365757369995117E+01,      /* I =109 */
(PID.TID 0000.0001)                -4.365110397338867E+01,      /* I =110 */
(PID.TID 0000.0001)                -4.364693832397461E+01,      /* I =111 */
(PID.TID 0000.0001)     2 @ -4.364490509033203E+01,             /* I =112:113 */
(PID.TID 0000.0001)                -4.364693832397461E+01,      /* I =114 */
(PID.TID 0000.0001)                -4.365110397338867E+01,      /* I =115 */
(PID.TID 0000.0001)                -4.365757369995117E+01,      /* I =116 */
(PID.TID 0000.0001)                -4.366664123535156E+01,      /* I =117 */
(PID.TID 0000.0001)                -4.367871856689453E+01,      /* I =118 */
(PID.TID 0000.0001)                -4.369437408447266E+01,      /* I =119 */
(PID.TID 0000.0001)                -4.371437072753906E+01,      /* I =120 */
(PID.TID 0000.0001)                -4.373974990844727E+01,      /* I =121 */
(PID.TID 0000.0001)                -4.377191925048828E+01,      /* I =122 */
(PID.TID 0000.0001)                -4.381287765502930E+01,      /* I =123 */
(PID.TID 0000.0001)                -4.386554718017578E+01,      /* I =124 */
(PID.TID 0000.0001)                -4.393453598022461E+01,      /* I =125 */
(PID.TID 0000.0001)                -4.402796173095703E+01,      /* I =126 */
(PID.TID 0000.0001)                -4.416320800781250E+01,      /* I =127 */
(PID.TID 0000.0001)                -4.439522171020508E+01,      /* I =128 */
(PID.TID 0000.0001)                 4.560477828979492E+01,      /* I =129 */
(PID.TID 0000.0001)                 4.583679199218750E+01,      /* I =130 */
(PID.TID 0000.0001)                 4.597203826904297E+01,      /* I =131 */
(PID.TID 0000.0001)                 4.606546401977539E+01,      /* I =132 */
(PID.TID 0000.0001)                 4.613445281982422E+01,      /* I =133 */
(PID.TID 0000.0001)                 4.618712234497070E+01,      /* I =134 */
(PID.TID 0000.0001)                 4.622808074951172E+01,      /* I =135 */
(PID.TID 0000.0001)                 4.626025009155273E+01,      /* I =136 */
(PID.TID 0000.0001)                 4.628562927246094E+01,      /* I =137 */
(PID.TID 0000.0001)                 4.630562591552734E+01,      /* I =138 */
(PID.TID 0000.0001)                 4.632128143310547E+01,      /* I =139 */
(PID.TID 0000.0001)                 4.633335876464844E+01,      /* I =140 */
(PID.TID 0000.0001)                 4.634242630004883E+01,      /* I =141 */
(PID.TID 0000.0001)                 4.634889602661133E+01,      /* I =142 */
(PID.TID 0000.0001)                 4.635306167602539E+01,      /* I =143 */
(PID.TID 0000.0001)     2 @  4.635509490966797E+01,             /* I =144:145 */
(PID.TID 0000.0001)                 4.635306167602539E+01,      /* I =146 */
(PID.TID 0000.0001)                 4.634889602661133E+01,      /* I =147 */
(PID.TID 0000.0001)                 4.634242630004883E+01,      /* I =148 */
(PID.TID 0000.0001)                 4.633335876464844E+01,      /* I =149 */
(PID.TID 0000.0001)                 4.632128143310547E+01,      /* I =150 */
(PID.TID 0000.0001)                 4.630562591552734E+01,      /* I =151 */
(PID.TID 0000.0001)                 4.628562927246094E+01,      /* I =152 */
(PID.TID 0000.0001)                 4.626025009155273E+01,      /* I =153 */
(PID.TID 0000.0001)                 4.622808074951172E+01,      /* I =154 */
(PID.TID 0000.0001)                 4.618712234497070E+01,      /* I =155 */
(PID.TID 0000.0001)                 4.613445281982422E+01,      /* I =156 */
(PID.TID 0000.0001)                 4.606546401977539E+01,      /* I =157 */
(PID.TID 0000.0001)                 4.597203826904297E+01,      /* I =158 */
(PID.TID 0000.0001)                 4.583679199218750E+01,      /* I =159 */
(PID.TID 0000.0001)                 4.560477828979492E+01,      /* I =160 */
(PID.TID 0000.0001)                 4.500000000000000E+01,      /* I =161 */
(PID.TID 0000.0001)                 4.379194641113281E+01,      /* I =162 */
(PID.TID 0000.0001)                 4.218630218505859E+01,      /* I =163 */
(PID.TID 0000.0001)                 4.028232192993164E+01,      /* I =164 */
(PID.TID 0000.0001)                 3.812261581420898E+01,      /* I =165 */
(PID.TID 0000.0001)                 3.572995758056641E+01,      /* I =166 */
(PID.TID 0000.0001)                 3.311871719360352E+01,      /* I =167 */
(PID.TID 0000.0001)                 3.029981803894043E+01,      /* I =168 */
(PID.TID 0000.0001)                 2.728344917297363E+01,      /* I =169 */
(PID.TID 0000.0001)                 2.408085441589355E+01,      /* I =170 */
(PID.TID 0000.0001)                 2.070560646057129E+01,      /* I =171 */
(PID.TID 0000.0001)                 1.717454147338867E+01,      /* I =172 */
(PID.TID 0000.0001)                 1.350831127166748E+01,      /* I =173 */
(PID.TID 0000.0001)                 9.731572151184082E+00,      /* I =174 */
(PID.TID 0000.0001)                 5.872732639312744E+00,      /* I =175 */
(PID.TID 0000.0001)                 1.963279962539673E+00,      /* I =176 */
(PID.TID 0000.0001)                -1.963279962539673E+00,      /* I =177 */
(PID.TID 0000.0001)                -5.872732639312744E+00,      /* I =178 */
(PID.TID 0000.0001)                -9.731572151184082E+00,      /* I =179 */
(PID.TID 0000.0001)                -1.350831127166748E+01,      /* I =180 */
(PID.TID 0000.0001)                -1.717454147338867E+01,      /* I =181 */
(PID.TID 0000.0001)                -2.070560646057129E+01,      /* I =182 */
(PID.TID 0000.0001)                -2.408085441589355E+01,      /* I =183 */
(PID.TID 0000.0001)                -2.728344917297363E+01,      /* I =184 */
(PID.TID 0000.0001)                -3.029981803894043E+01,      /* I =185 */
(PID.TID 0000.0001)                -3.311871719360352E+01,      /* I =186 */
(PID.TID 0000.0001)                -3.572995758056641E+01,      /* I =187 */
(PID.TID 0000.0001)                -3.812261581420898E+01,      /* I =188 */
(PID.TID 0000.0001)                -4.028232192993164E+01,      /* I =189 */
(PID.TID 0000.0001)                -4.218630218505859E+01,      /* I =190 */
(PID.TID 0000.0001)                -4.379194641113281E+01,      /* I =191 */
(PID.TID 0000.0001)                -4.500000000000000E+01       /* I =192 */
(PID.TID 0000.0001)     ;
(PID.TID 0000.0001) ycoord =   /* P-point Y coord ( m - cartesian, degrees - spherical ) */
(PID.TID 0000.0001)                -3.497677993774414E+01,      /* J =  1 */
(PID.TID 0000.0001)                -3.374005889892578E+01,      /* J =  2 */
(PID.TID 0000.0001)                -3.220655059814453E+01,      /* J =  3 */
(PID.TID 0000.0001)                -3.045756340026855E+01,      /* J =  4 */
(PID.TID 0000.0001)                -2.853728103637695E+01,      /* J =  5 */
(PID.TID 0000.0001)                -2.647426605224609E+01,      /* J =  6 */
(PID.TID 0000.0001)                -2.428936576843262E+01,      /* J =  7 */
(PID.TID 0000.0001)                -2.199915885925293E+01,      /* J =  8 */
(PID.TID 0000.0001)                -1.961768531799316E+01,      /* J =  9 */
(PID.TID 0000.0001)                -1.715743827819824E+01,      /* J = 10 */
(PID.TID 0000.0001)                -1.462993431091309E+01,      /* J = 11 */
(PID.TID 0000.0001)                -1.204608345031738E+01,      /* J = 12 */
(PID.TID 0000.0001)                -9.416429519653320E+00,      /* J = 13 */
(PID.TID 0000.0001)                -6.751293659210205E+00,      /* J = 14 */
(PID.TID 0000.0001)                -4.060875415802002E+00,      /* J = 15 */
(PID.TID 0000.0001)                -1.355307817459106E+00,      /* J = 16 */
(PID.TID 0000.0001)                 1.355307817459106E+00,      /* J = 17 */
(PID.TID 0000.0001)                 4.060875415802002E+00,      /* J = 18 */
(PID.TID 0000.0001)                 6.751293659210205E+00,      /* J = 19 */
(PID.TID 0000.0001)                 9.416429519653320E+00,      /* J = 20 */
(PID.TID 0000.0001)                 1.204608345031738E+01,      /* J = 21 */
(PID.TID 0000.0001)                 1.462993431091309E+01,      /* J = 22 */
(PID.TID 0000.0001)                 1.715743827819824E+01,      /* J = 23 */
(PID.TID 0000.0001)                 1.961768531799316E+01,      /* J = 24 */
(PID.TID 0000.0001)                 2.199915885925293E+01,      /* J = 25 */
(PID.TID 0000.0001)                 2.428936576843262E+01,      /* J = 26 */
(PID.TID 0000.0001)                 2.647426605224609E+01,      /* J = 27 */
(PID.TID 0000.0001)                 2.853728103637695E+01,      /* J = 28 */
(PID.TID 0000.0001)                 3.045756340026855E+01,      /* J = 29 */
(PID.TID 0000.0001)                 3.220655059814453E+01,      /* J = 30 */
(PID.TID 0000.0001)                 3.374005889892578E+01,      /* J = 31 */
(PID.TID 0000.0001)                 3.497677993774414E+01       /* J = 32 */
(PID.TID 0000.0001)     ;
(PID.TID 0000.0001) rcoord =   /* P-point R coordinate (  units of r ) */
(PID.TID 0000.0001)                 5.000000000000000E+04       /* K =  1 */
(PID.TID 0000.0001)     ;
(PID.TID 0000.0001) rF =   /* W-Interf. R coordinate (  units of r ) */
(PID.TID 0000.0001)                 1.000000000000000E+05,      /* K =  1 */
(PID.TID 0000.0001)                 0.000000000000000E+00       /* K =  2 */
(PID.TID 0000.0001)     ;
(PID.TID 0000.0001) deepFacC = /* deep-model grid factor @ cell-Center (-) */
(PID.TID 0000.0001)                 1.000000000000000E+00       /* K =  1 */
(PID.TID 0000.0001)     ;
(PID.TID 0000.0001) deepFacF = /* deep-model grid factor @ W-Interface (-) */
(PID.TID 0000.0001)     2 @  1.000000000000000E+00              /* K =  1:  2 */
(PID.TID 0000.0001)     ;
(PID.TID 0000.0001) rVel2wUnit = /* convert units: rVel -> wSpeed (=1 if z-coord)*/
(PID.TID 0000.0001)                 8.772389689820882E-02,      /* K =  1 */
(PID.TID 0000.0001)                 1.000000000000000E+00       /* K =  2 */
(PID.TID 0000.0001)     ;
(PID.TID 0000.0001) wUnit2rVel = /* convert units: wSpeed -> rVel (=1 if z-coord)*/
(PID.TID 0000.0001)                 1.139940239043825E+01,      /* K =  1 */
(PID.TID 0000.0001)                 1.000000000000000E+00       /* K =  2 */
(PID.TID 0000.0001)     ;
(PID.TID 0000.0001) dBdrRef = /* Vertical gradient of reference boyancy [(m/s/r)^2)] */
(PID.TID 0000.0001)                 0.000000000000000E+00       /* K =  1 */
(PID.TID 0000.0001)     ;
(PID.TID 0000.0001) rotateGrid = /* use rotated grid ( True/False ) */
(PID.TID 0000.0001)                   F
(PID.TID 0000.0001)     ;
(PID.TID 0000.0001) phiEuler = /* Euler angle, rotation about original z-coordinate [rad] */
(PID.TID 0000.0001)                 0.000000000000000E+00
(PID.TID 0000.0001)     ;
(PID.TID 0000.0001) thetaEuler = /* Euler angle, rotation about new x-coordinate [rad] */
(PID.TID 0000.0001)                 0.000000000000000E+00
(PID.TID 0000.0001)     ;
(PID.TID 0000.0001) psiEuler = /* Euler angle, rotation about new z-coordinate [rad] */
(PID.TID 0000.0001)                 0.000000000000000E+00
(PID.TID 0000.0001)     ;
(PID.TID 0000.0001) dxF =  /* dxF(:,1,:,1) ( units: m ) */
(PID.TID 0000.0001)                 1.208164531250000E+05,      /* I =  1 */
(PID.TID 0000.0001)                 1.563893125000000E+05,      /* I =  2 */
(PID.TID 0000.0001)                 1.835578593750000E+05,      /* I =  3 */
(PID.TID 0000.0001)                 2.045897656250000E+05,      /* I =  4 */
(PID.TID 0000.0001)                 2.218355937500000E+05,      /* I =  5 */
(PID.TID 0000.0001)                 2.364355625000000E+05,      /* I =  6 */
(PID.TID 0000.0001)                 2.490024062500000E+05,      /* I =  7 */
(PID.TID 0000.0001)                 2.598920468750000E+05,      /* I =  8 */
(PID.TID 0000.0001)                 2.693210625000000E+05,      /* I =  9 */
(PID.TID 0000.0001)                 2.774243437500000E+05,      /* I = 10 */
(PID.TID 0000.0001)                 2.842862812500000E+05,      /* I = 11 */
(PID.TID 0000.0001)                 2.899590937500000E+05,      /* I = 12 */
(PID.TID 0000.0001)                 2.944743125000000E+05,      /* I = 13 */
(PID.TID 0000.0001)                 2.978501875000000E+05,      /* I = 14 */
(PID.TID 0000.0001)                 3.000967812500000E+05,      /* I = 15 */
(PID.TID 0000.0001)     2 @  3.012190937500000E+05,             /* I = 16: 17 */
(PID.TID 0000.0001)                 3.000967812500000E+05,      /* I = 18 */
(PID.TID 0000.0001)                 2.978501875000000E+05,      /* I = 19 */
(PID.TID 0000.0001)                 2.944743125000000E+05,      /* I = 20 */
(PID.TID 0000.0001)                 2.899590937500000E+05,      /* I = 21 */
(PID.TID 0000.0001)                 2.842862812500000E+05,      /* I = 22 */
(PID.TID 0000.0001)                 2.774243437500000E+05,      /* I = 23 */
(PID.TID 0000.0001)                 2.693210625000000E+05,      /* I = 24 */
(PID.TID 0000.0001)                 2.598920468750000E+05,      /* I = 25 */
(PID.TID 0000.0001)                 2.490024062500000E+05,      /* I = 26 */
(PID.TID 0000.0001)                 2.364355625000000E+05,      /* I = 27 */
(PID.TID 0000.0001)                 2.218355937500000E+05,      /* I = 28 */
(PID.TID 0000.0001)                 2.045897656250000E+05,      /* I = 29 */
(PID.TID 0000.0001)                 1.835578593750000E+05,      /* I = 30 */
(PID.TID 0000.0001)                 1.563893125000000E+05,      /* I = 31 */
(PID.TID 0000.0001)     2 @  1.208164531250000E+05,             /* I = 32: 33 */
(PID.TID 0000.0001)                 1.563893125000000E+05,      /* I = 34 */
(PID.TID 0000.0001)                 1.835578593750000E+05,      /* I = 35 */
(PID.TID 0000.0001)                 2.045897656250000E+05,      /* I = 36 */
(PID.TID 0000.0001)                 2.218355937500000E+05,      /* I = 37 */
(PID.TID 0000.0001)                 2.364355625000000E+05,      /* I = 38 */
(PID.TID 0000.0001)                 2.490024062500000E+05,      /* I = 39 */
(PID.TID 0000.0001)                 2.598920468750000E+05,      /* I = 40 */
(PID.TID 0000.0001)                 2.693210625000000E+05,      /* I = 41 */
(PID.TID 0000.0001)                 2.774243437500000E+05,      /* I = 42 */
(PID.TID 0000.0001)                 2.842862812500000E+05,      /* I = 43 */
(PID.TID 0000.0001)                 2.899590937500000E+05,      /* I = 44 */
(PID.TID 0000.0001)                 2.944743125000000E+05,      /* I = 45 */
(PID.TID 0000.0001)                 2.978501875000000E+05,      /* I = 46 */
(PID.TID 0000.0001)                 3.000967812500000E+05,      /* I = 47 */
(PID.TID 0000.0001)     2 @  3.012190937500000E+05,             /* I = 48: 49 */
(PID.TID 0000.0001)                 3.000967812500000E+05,      /* I = 50 */
(PID.TID 0000.0001)                 2.978501875000000E+05,      /* I = 51 */
(PID.TID 0000.0001)                 2.944743125000000E+05,      /* I = 52 */
(PID.TID 0000.0001)                 2.899590937500000E+05,      /* I = 53 */
(PID.TID 0000.0001)                 2.842862812500000E+05,      /* I = 54 */
(PID.TID 0000.0001)                 2.774243437500000E+05,      /* I = 55 */
(PID.TID 0000.0001)                 2.693210625000000E+05,      /* I = 56 */
(PID.TID 0000.0001)                 2.598920468750000E+05,      /* I = 57 */
(PID.TID 0000.0001)                 2.490024062500000E+05,      /* I = 58 */
(PID.TID 0000.0001)                 2.364355625000000E+05,      /* I = 59 */
(PID.TID 0000.0001)                 2.218355937500000E+05,      /* I = 60 */
(PID.TID 0000.0001)                 2.045897656250000E+05,      /* I = 61 */
(PID.TID 0000.0001)                 1.835578593750000E+05,      /* I = 62 */
(PID.TID 0000.0001)                 1.563893125000000E+05,      /* I = 63 */
(PID.TID 0000.0001)     2 @  1.208164531250000E+05,             /* I = 64: 65 */
(PID.TID 0000.0001)                 1.563893125000000E+05,      /* I = 66 */
(PID.TID 0000.0001)                 1.835578593750000E+05,      /* I = 67 */
(PID.TID 0000.0001)                 2.045897656250000E+05,      /* I = 68 */
(PID.TID 0000.0001)                 2.218355937500000E+05,      /* I = 69 */
(PID.TID 0000.0001)                 2.364355625000000E+05,      /* I = 70 */
(PID.TID 0000.0001)                 2.490024062500000E+05,      /* I = 71 */
(PID.TID 0000.0001)                 2.598920468750000E+05,      /* I = 72 */
(PID.TID 0000.0001)                 2.693210625000000E+05,      /* I = 73 */
(PID.TID 0000.0001)                 2.774243437500000E+05,      /* I = 74 */
(PID.TID 0000.0001)                 2.842862812500000E+05,      /* I = 75 */
(PID.TID 0000.0001)                 2.899590937500000E+05,      /* I = 76 */
(PID.TID 0000.0001)                 2.944743125000000E+05,      /* I = 77 */
(PID.TID 0000.0001)                 2.978501875000000E+05,      /* I = 78 */
(PID.TID 0000.0001)                 3.000967812500000E+05,      /* I = 79 */
(PID.TID 0000.0001)     2 @  3.012190937500000E+05,             /* I = 80: 81 */
(PID.TID 0000.0001)                 3.000967812500000E+05,      /* I = 82 */
(PID.TID 0000.0001)                 2.978501875000000E+05,      /* I = 83 */
(PID.TID 0000.0001)                 2.944743125000000E+05,      /* I = 84 */
(PID.TID 0000.0001)                 2.899590937500000E+05,      /* I = 85 */
(PID.TID 0000.0001)                 2.842862812500000E+05,      /* I = 86 */
(PID.TID 0000.0001)                 2.774243437500000E+05,      /* I = 87 */
(PID.TID 0000.0001)                 2.693210625000000E+05,      /* I = 88 */
(PID.TID 0000.0001)                 2.598920468750000E+05,      /* I = 89 */
(PID.TID 0000.0001)                 2.490024062500000E+05,      /* I = 90 */
(PID.TID 0000.0001)                 2.364355625000000E+05,      /* I = 91 */
(PID.TID 0000.0001)                 2.218355937500000E+05,      /* I = 92 */
(PID.TID 0000.0001)                 2.045897656250000E+05,      /* I = 93 */
(PID.TID 0000.0001)                 1.835578593750000E+05,      /* I = 94 */
(PID.TID 0000.0001)                 1.563893125000000E+05,      /* I = 95 */
(PID.TID 0000.0001)     2 @  1.208164531250000E+05,             /* I = 96: 97 */
(PID.TID 0000.0001)                 1.563893125000000E+05,      /* I = 98 */
(PID.TID 0000.0001)                 1.835578593750000E+05,      /* I = 99 */
(PID.TID 0000.0001)                 2.045897656250000E+05,      /* I =100 */
(PID.TID 0000.0001)                 2.218355937500000E+05,      /* I =101 */
(PID.TID 0000.0001)                 2.364355625000000E+05,      /* I =102 */
(PID.TID 0000.0001)                 2.490024062500000E+05,      /* I =103 */
(PID.TID 0000.0001)                 2.598920468750000E+05,      /* I =104 */
(PID.TID 0000.0001)                 2.693210625000000E+05,      /* I =105 */
(PID.TID 0000.0001)                 2.774243437500000E+05,      /* I =106 */
(PID.TID 0000.0001)                 2.842862812500000E+05,      /* I =107 */
(PID.TID 0000.0001)                 2.899590937500000E+05,      /* I =108 */
(PID.TID 0000.0001)                 2.944743125000000E+05,      /* I =109 */
(PID.TID 0000.0001)                 2.978501875000000E+05,      /* I =110 */
(PID.TID 0000.0001)                 3.000967812500000E+05,      /* I =111 */
(PID.TID 0000.0001)     2 @  3.012190937500000E+05,             /* I =112:113 */
(PID.TID 0000.0001)                 3.000967812500000E+05,      /* I =114 */
(PID.TID 0000.0001)                 2.978501875000000E+05,      /* I =115 */
(PID.TID 0000.0001)                 2.944743125000000E+05,      /* I =116 */
(PID.TID 0000.0001)                 2.899590937500000E+05,      /* I =117 */
(PID.TID 0000.0001)                 2.842862812500000E+05,      /* I =118 */
(PID.TID 0000.0001)                 2.774243437500000E+05,      /* I =119 */
(PID.TID 0000.0001)                 2.693210625000000E+05,      /* I =120 */
(PID.TID 0000.0001)                 2.598920468750000E+05,      /* I =121 */
(PID.TID 0000.0001)                 2.490024062500000E+05,      /* I =122 */
(PID.TID 0000.0001)                 2.364355625000000E+05,      /* I =123 */
(PID.TID 0000.0001)                 2.218355937500000E+05,      /* I =124 */
(PID.TID 0000.0001)                 2.045897656250000E+05,      /* I =125 */
(PID.TID 0000.0001)                 1.835578593750000E+05,      /* I =126 */
(PID.TID 0000.0001)                 1.563893125000000E+05,      /* I =127 */
(PID.TID 0000.0001)     2 @  1.208164531250000E+05,             /* I =128:129 */
(PID.TID 0000.0001)                 1.563893125000000E+05,      /* I =130 */
(PID.TID 0000.0001)                 1.835578593750000E+05,      /* I =131 */
(PID.TID 0000.0001)                 2.045897656250000E+05,      /* I =132 */
(PID.TID 0000.0001)                 2.218355937500000E+05,      /* I =133 */
(PID.TID 0000.0001)                 2.364355625000000E+05,      /* I =134 */
(PID.TID 0000.0001)                 2.490024062500000E+05,      /* I =135 */
(PID.TID 0000.0001)                 2.598920468750000E+05,      /* I =136 */
(PID.TID 0000.0001)                 2.693210625000000E+05,      /* I =137 */
(PID.TID 0000.0001)                 2.774243437500000E+05,      /* I =138 */
(PID.TID 0000.0001)                 2.842862812500000E+05,      /* I =139 */
(PID.TID 0000.0001)                 2.899590937500000E+05,      /* I =140 */
(PID.TID 0000.0001)                 2.944743125000000E+05,      /* I =141 */
(PID.TID 0000.0001)                 2.978501875000000E+05,      /* I =142 */
(PID.TID 0000.0001)                 3.000967812500000E+05,      /* I =143 */
(PID.TID 0000.0001)     2 @  3.012190937500000E+05,             /* I =144:145 */
(PID.TID 0000.0001)                 3.000967812500000E+05,      /* I =146 */
(PID.TID 0000.0001)                 2.978501875000000E+05,      /* I =147 */
(PID.TID 0000.0001)                 2.944743125000000E+05,      /* I =148 */
(PID.TID 0000.0001)                 2.899590937500000E+05,      /* I =149 */
(PID.TID 0000.0001)                 2.842862812500000E+05,      /* I =150 */
(PID.TID 0000.0001)                 2.774243437500000E+05,      /* I =151 */
(PID.TID 0000.0001)                 2.693210625000000E+05,      /* I =152 */
(PID.TID 0000.0001)                 2.598920468750000E+05,      /* I =153 */
(PID.TID 0000.0001)                 2.490024062500000E+05,      /* I =154 */
(PID.TID 0000.0001)                 2.364355625000000E+05,      /* I =155 */
(PID.TID 0000.0001)                 2.218355937500000E+05,      /* I =156 */
(PID.TID 0000.0001)                 2.045897656250000E+05,      /* I =157 */
(PID.TID 0000.0001)                 1.835578593750000E+05,      /* I =158 */
(PID.TID 0000.0001)                 1.563893125000000E+05,      /* I =159 */
(PID.TID 0000.0001)     2 @  1.208164531250000E+05,             /* I =160:161 */
(PID.TID 0000.0001)                 1.563893125000000E+05,      /* I =162 */
(PID.TID 0000.0001)                 1.835578593750000E+05,      /* I =163 */
(PID.TID 0000.0001)                 2.045897656250000E+05,      /* I =164 */
(PID.TID 0000.0001)                 2.218355937500000E+05,      /* I =165 */
(PID.TID 0000.0001)                 2.364355625000000E+05,      /* I =166 */
(PID.TID 0000.0001)                 2.490024062500000E+05,      /* I =167 */
(PID.TID 0000.0001)                 2.598920468750000E+05,      /* I =168 */
(PID.TID 0000.0001)                 2.693210625000000E+05,      /* I =169 */
(PID.TID 0000.0001)                 2.774243437500000E+05,      /* I =170 */
(PID.TID 0000.0001)                 2.842862812500000E+05,      /* I =171 */
(PID.TID 0000.0001)                 2.899590937500000E+05,      /* I =172 */
(PID.TID 0000.0001)                 2.944743125000000E+05,      /* I =173 */
(PID.TID 0000.0001)                 2.978501875000000E+05,      /* I =174 */
(PID.TID 0000.0001)                 3.000967812500000E+05,      /* I =175 */
(PID.TID 0000.0001)     2 @  3.012190937500000E+05,             /* I =176:177 */
(PID.TID 0000.0001)                 3.000967812500000E+05,      /* I =178 */
(PID.TID 0000.0001)                 2.978501875000000E+05,      /* I =179 */
(PID.TID 0000.0001)                 2.944743125000000E+05,      /* I =180 */
(PID.TID 0000.0001)                 2.899590937500000E+05,      /* I =181 */
(PID.TID 0000.0001)                 2.842862812500000E+05,      /* I =182 */
(PID.TID 0000.0001)                 2.774243437500000E+05,      /* I =183 */
(PID.TID 0000.0001)                 2.693210625000000E+05,      /* I =184 */
(PID.TID 0000.0001)                 2.598920468750000E+05,      /* I =185 */
(PID.TID 0000.0001)                 2.490024062500000E+05,      /* I =186 */
(PID.TID 0000.0001)                 2.364355625000000E+05,      /* I =187 */
(PID.TID 0000.0001)                 2.218355937500000E+05,      /* I =188 */
(PID.TID 0000.0001)                 2.045897656250000E+05,      /* I =189 */
(PID.TID 0000.0001)                 1.835578593750000E+05,      /* I =190 */
(PID.TID 0000.0001)                 1.563893125000000E+05,      /* I =191 */
(PID.TID 0000.0001)                 1.208164531250000E+05       /* I =192 */
(PID.TID 0000.0001)     ;
(PID.TID 0000.0001) dxF =  /* dxF(1,:,1,:) ( units: m ) */
(PID.TID 0000.0001)                 1.208164531250000E+05,      /* J =  1 */
(PID.TID 0000.0001)                 1.575313281250000E+05,      /* J =  2 */
(PID.TID 0000.0001)                 1.841567187500000E+05,      /* J =  3 */
(PID.TID 0000.0001)                 2.049540468750000E+05,      /* J =  4 */
(PID.TID 0000.0001)                 2.220840781250000E+05,      /* J =  5 */
(PID.TID 0000.0001)                 2.366191875000000E+05,      /* J =  6 */
(PID.TID 0000.0001)                 2.491464062500000E+05,      /* J =  7 */
(PID.TID 0000.0001)                 2.600103750000000E+05,      /* J =  8 */
(PID.TID 0000.0001)                 2.694220937500000E+05,      /* J =  9 */
(PID.TID 0000.0001)                 2.775134062500000E+05,      /* J = 10 */
(PID.TID 0000.0001)                 2.843669375000000E+05,      /* J = 11 */
(PID.TID 0000.0001)                 2.900338750000000E+05,      /* J = 12 */
(PID.TID 0000.0001)                 2.945450000000000E+05,      /* J = 13 */
(PID.TID 0000.0001)                 2.979181562500000E+05,      /* J = 14 */
(PID.TID 0000.0001)                 3.001630625000000E+05,      /* J = 15 */
(PID.TID 0000.0001)     2 @  3.012845312500000E+05,             /* J = 16: 17 */
(PID.TID 0000.0001)                 3.001630625000000E+05,      /* J = 18 */
(PID.TID 0000.0001)                 2.979181562500000E+05,      /* J = 19 */
(PID.TID 0000.0001)                 2.945450000000000E+05,      /* J = 20 */
(PID.TID 0000.0001)                 2.900338750000000E+05,      /* J = 21 */
(PID.TID 0000.0001)                 2.843669375000000E+05,      /* J = 22 */
(PID.TID 0000.0001)                 2.775134062500000E+05,      /* J = 23 */
(PID.TID 0000.0001)                 2.694220937500000E+05,      /* J = 24 */
(PID.TID 0000.0001)                 2.600103750000000E+05,      /* J = 25 */
(PID.TID 0000.0001)                 2.491464062500000E+05,      /* J = 26 */
(PID.TID 0000.0001)                 2.366191875000000E+05,      /* J = 27 */
(PID.TID 0000.0001)                 2.220840781250000E+05,      /* J = 28 */
(PID.TID 0000.0001)                 2.049540468750000E+05,      /* J = 29 */
(PID.TID 0000.0001)                 1.841567187500000E+05,      /* J = 30 */
(PID.TID 0000.0001)                 1.575313281250000E+05,      /* J = 31 */
(PID.TID 0000.0001)                 1.208164531250000E+05       /* J = 32 */
(PID.TID 0000.0001)     ;
(PID.TID 0000.0001) dyF =  /* dyF(:,1,:,1) ( units: m ) */
(PID.TID 0000.0001)                 1.208164531250000E+05,      /* I =  1 */
(PID.TID 0000.0001)                 1.575313281250000E+05,      /* I =  2 */
(PID.TID 0000.0001)                 1.841567187500000E+05,      /* I =  3 */
(PID.TID 0000.0001)                 2.049540468750000E+05,      /* I =  4 */
(PID.TID 0000.0001)                 2.220840781250000E+05,      /* I =  5 */
(PID.TID 0000.0001)                 2.366191875000000E+05,      /* I =  6 */
(PID.TID 0000.0001)                 2.491464062500000E+05,      /* I =  7 */
(PID.TID 0000.0001)                 2.600103750000000E+05,      /* I =  8 */
(PID.TID 0000.0001)                 2.694220937500000E+05,      /* I =  9 */
(PID.TID 0000.0001)                 2.775134062500000E+05,      /* I = 10 */
(PID.TID 0000.0001)                 2.843669375000000E+05,      /* I = 11 */
(PID.TID 0000.0001)                 2.900338750000000E+05,      /* I = 12 */
(PID.TID 0000.0001)                 2.945450000000000E+05,      /* I = 13 */
(PID.TID 0000.0001)                 2.979181562500000E+05,      /* I = 14 */
(PID.TID 0000.0001)                 3.001630625000000E+05,      /* I = 15 */
(PID.TID 0000.0001)     2 @  3.012845312500000E+05,             /* I = 16: 17 */
(PID.TID 0000.0001)                 3.001630625000000E+05,      /* I = 18 */
(PID.TID 0000.0001)                 2.979181562500000E+05,      /* I = 19 */
(PID.TID 0000.0001)                 2.945450000000000E+05,      /* I = 20 */
(PID.TID 0000.0001)                 2.900338750000000E+05,      /* I = 21 */
(PID.TID 0000.0001)                 2.843669375000000E+05,      /* I = 22 */
(PID.TID 0000.0001)                 2.775134062500000E+05,      /* I = 23 */
(PID.TID 0000.0001)                 2.694220937500000E+05,      /* I = 24 */
(PID.TID 0000.0001)                 2.600103750000000E+05,      /* I = 25 */
(PID.TID 0000.0001)                 2.491464062500000E+05,      /* I = 26 */
(PID.TID 0000.0001)                 2.366191875000000E+05,      /* I = 27 */
(PID.TID 0000.0001)                 2.220840781250000E+05,      /* I = 28 */
(PID.TID 0000.0001)                 2.049540468750000E+05,      /* I = 29 */
(PID.TID 0000.0001)                 1.841567187500000E+05,      /* I = 30 */
(PID.TID 0000.0001)                 1.575313281250000E+05,      /* I = 31 */
(PID.TID 0000.0001)     2 @  1.208164531250000E+05,             /* I = 32: 33 */
(PID.TID 0000.0001)                 1.575313281250000E+05,      /* I = 34 */
(PID.TID 0000.0001)                 1.841567187500000E+05,      /* I = 35 */
(PID.TID 0000.0001)                 2.049540468750000E+05,      /* I = 36 */
(PID.TID 0000.0001)                 2.220840781250000E+05,      /* I = 37 */
(PID.TID 0000.0001)                 2.366191875000000E+05,      /* I = 38 */
(PID.TID 0000.0001)                 2.491464062500000E+05,      /* I = 39 */
(PID.TID 0000.0001)                 2.600103750000000E+05,      /* I = 40 */
(PID.TID 0000.0001)                 2.694220937500000E+05,      /* I = 41 */
(PID.TID 0000.0001)                 2.775134062500000E+05,      /* I = 42 */
(PID.TID 0000.0001)                 2.843669375000000E+05,      /* I = 43 */
(PID.TID 0000.0001)                 2.900338750000000E+05,      /* I = 44 */
(PID.TID 0000.0001)                 2.945450000000000E+05,      /* I = 45 */
(PID.TID 0000.0001)                 2.979181562500000E+05,      /* I = 46 */
(PID.TID 0000.0001)                 3.001630625000000E+05,      /* I = 47 */
(PID.TID 0000.0001)     2 @  3.012845312500000E+05,             /* I = 48: 49 */
(PID.TID 0000.0001)                 3.001630625000000E+05,      /* I = 50 */
(PID.TID 0000.0001)                 2.979181562500000E+05,      /* I = 51 */
(PID.TID 0000.0001)                 2.945450000000000E+05,      /* I = 52 */
(PID.TID 0000.0001)                 2.900338750000000E+05,      /* I = 53 */
(PID.TID 0000.0001)                 2.843669375000000E+05,      /* I = 54 */
(PID.TID 0000.0001)                 2.775134062500000E+05,      /* I = 55 */
(PID.TID 0000.0001)                 2.694220937500000E+05,      /* I = 56 */
(PID.TID 0000.0001)                 2.600103750000000E+05,      /* I = 57 */
(PID.TID 0000.0001)                 2.491464062500000E+05,      /* I = 58 */
(PID.TID 0000.0001)                 2.366191875000000E+05,      /* I = 59 */
(PID.TID 0000.0001)                 2.220840781250000E+05,      /* I = 60 */
(PID.TID 0000.0001)                 2.049540468750000E+05,      /* I = 61 */
(PID.TID 0000.0001)                 1.841567187500000E+05,      /* I = 62 */
(PID.TID 0000.0001)                 1.575313281250000E+05,      /* I = 63 */
(PID.TID 0000.0001)     2 @  1.208164531250000E+05,             /* I = 64: 65 */
(PID.TID 0000.0001)                 1.575313281250000E+05,      /* I = 66 */
(PID.TID 0000.0001)                 1.841567187500000E+05,      /* I = 67 */
(PID.TID 0000.0001)                 2.049540468750000E+05,      /* I = 68 */
(PID.TID 0000.0001)                 2.220840781250000E+05,      /* I = 69 */
(PID.TID 0000.0001)                 2.366191875000000E+05,      /* I = 70 */
(PID.TID 0000.0001)                 2.491464062500000E+05,      /* I = 71 */
(PID.TID 0000.0001)                 2.600103750000000E+05,      /* I = 72 */
(PID.TID 0000.0001)                 2.694220937500000E+05,      /* I = 73 */
(PID.TID 0000.0001)                 2.775134062500000E+05,      /* I = 74 */
(PID.TID 0000.0001)                 2.843669375000000E+05,      /* I = 75 */
(PID.TID 0000.0001)                 2.900338750000000E+05,      /* I = 76 */
(PID.TID 0000.0001)                 2.945450000000000E+05,      /* I = 77 */
(PID.TID 0000.0001)                 2.979181562500000E+05,      /* I = 78 */
(PID.TID 0000.0001)                 3.001630625000000E+05,      /* I = 79 */
(PID.TID 0000.0001)     2 @  3.012845312500000E+05,             /* I = 80: 81 */
(PID.TID 0000.0001)                 3.001630625000000E+05,      /* I = 82 */
(PID.TID 0000.0001)                 2.979181562500000E+05,      /* I = 83 */
(PID.TID 0000.0001)                 2.945450000000000E+05,      /* I = 84 */
(PID.TID 0000.0001)                 2.900338750000000E+05,      /* I = 85 */
(PID.TID 0000.0001)                 2.843669375000000E+05,      /* I = 86 */
(PID.TID 0000.0001)                 2.775134062500000E+05,      /* I = 87 */
(PID.TID 0000.0001)                 2.694220937500000E+05,      /* I = 88 */
(PID.TID 0000.0001)                 2.600103750000000E+05,      /* I = 89 */
(PID.TID 0000.0001)                 2.491464062500000E+05,      /* I = 90 */
(PID.TID 0000.0001)                 2.366191875000000E+05,      /* I = 91 */
(PID.TID 0000.0001)                 2.220840781250000E+05,      /* I = 92 */
(PID.TID 0000.0001)                 2.049540468750000E+05,      /* I = 93 */
(PID.TID 0000.0001)                 1.841567187500000E+05,      /* I = 94 */
(PID.TID 0000.0001)                 1.575313281250000E+05,      /* I = 95 */
(PID.TID 0000.0001)     2 @  1.208164531250000E+05,             /* I = 96: 97 */
(PID.TID 0000.0001)                 1.575313281250000E+05,      /* I = 98 */
(PID.TID 0000.0001)                 1.841567187500000E+05,      /* I = 99 */
(PID.TID 0000.0001)                 2.049540468750000E+05,      /* I =100 */
(PID.TID 0000.0001)                 2.220840781250000E+05,      /* I =101 */
(PID.TID 0000.0001)                 2.366191875000000E+05,      /* I =102 */
(PID.TID 0000.0001)                 2.491464062500000E+05,      /* I =103 */
(PID.TID 0000.0001)                 2.600103750000000E+05,      /* I =104 */
(PID.TID 0000.0001)                 2.694220937500000E+05,      /* I =105 */
(PID.TID 0000.0001)                 2.775134062500000E+05,      /* I =106 */
(PID.TID 0000.0001)                 2.843669375000000E+05,      /* I =107 */
(PID.TID 0000.0001)                 2.900338750000000E+05,      /* I =108 */
(PID.TID 0000.0001)                 2.945450000000000E+05,      /* I =109 */
(PID.TID 0000.0001)                 2.979181562500000E+05,      /* I =110 */
(PID.TID 0000.0001)                 3.001630625000000E+05,      /* I =111 */
(PID.TID 0000.0001)     2 @  3.012845312500000E+05,             /* I =112:113 */
(PID.TID 0000.0001)                 3.001630625000000E+05,      /* I =114 */
(PID.TID 0000.0001)                 2.979181562500000E+05,      /* I =115 */
(PID.TID 0000.0001)                 2.945450000000000E+05,      /* I =116 */
(PID.TID 0000.0001)                 2.900338750000000E+05,      /* I =117 */
(PID.TID 0000.0001)                 2.843669375000000E+05,      /* I =118 */
(PID.TID 0000.0001)                 2.775134062500000E+05,      /* I =119 */
(PID.TID 0000.0001)                 2.694220937500000E+05,      /* I =120 */
(PID.TID 0000.0001)                 2.600103750000000E+05,      /* I =121 */
(PID.TID 0000.0001)                 2.491464062500000E+05,      /* I =122 */
(PID.TID 0000.0001)                 2.366191875000000E+05,      /* I =123 */
(PID.TID 0000.0001)                 2.220840781250000E+05,      /* I =124 */
(PID.TID 0000.0001)                 2.049540468750000E+05,      /* I =125 */
(PID.TID 0000.0001)                 1.841567187500000E+05,      /* I =126 */
(PID.TID 0000.0001)                 1.575313281250000E+05,      /* I =127 */
(PID.TID 0000.0001)     2 @  1.208164531250000E+05,             /* I =128:129 */
(PID.TID 0000.0001)                 1.575313281250000E+05,      /* I =130 */
(PID.TID 0000.0001)                 1.841567187500000E+05,      /* I =131 */
(PID.TID 0000.0001)                 2.049540468750000E+05,      /* I =132 */
(PID.TID 0000.0001)                 2.220840781250000E+05,      /* I =133 */
(PID.TID 0000.0001)                 2.366191875000000E+05,      /* I =134 */
(PID.TID 0000.0001)                 2.491464062500000E+05,      /* I =135 */
(PID.TID 0000.0001)                 2.600103750000000E+05,      /* I =136 */
(PID.TID 0000.0001)                 2.694220937500000E+05,      /* I =137 */
(PID.TID 0000.0001)                 2.775134062500000E+05,      /* I =138 */
(PID.TID 0000.0001)                 2.843669375000000E+05,      /* I =139 */
(PID.TID 0000.0001)                 2.900338750000000E+05,      /* I =140 */
(PID.TID 0000.0001)                 2.945450000000000E+05,      /* I =141 */
(PID.TID 0000.0001)                 2.979181562500000E+05,      /* I =142 */
(PID.TID 0000.0001)                 3.001630625000000E+05,      /* I =143 */
(PID.TID 0000.0001)     2 @  3.012845312500000E+05,             /* I =144:145 */
(PID.TID 0000.0001)                 3.001630625000000E+05,      /* I =146 */
(PID.TID 0000.0001)                 2.979181562500000E+05,      /* I =147 */
(PID.TID 0000.0001)                 2.945450000000000E+05,      /* I =148 */
(PID.TID 0000.0001)                 2.900338750000000E+05,      /* I =149 */
(PID.TID 0000.0001)                 2.843669375000000E+05,      /* I =150 */
(PID.TID 0000.0001)                 2.775134062500000E+05,      /* I =151 */
(PID.TID 0000.0001)                 2.694220937500000E+05,      /* I =152 */
(PID.TID 0000.0001)                 2.600103750000000E+05,      /* I =153 */
(PID.TID 0000.0001)                 2.491464062500000E+05,      /* I =154 */
(PID.TID 0000.0001)                 2.366191875000000E+05,      /* I =155 */
(PID.TID 0000.0001)                 2.220840781250000E+05,      /* I =156 */
(PID.TID 0000.0001)                 2.049540468750000E+05,      /* I =157 */
(PID.TID 0000.0001)                 1.841567187500000E+05,      /* I =158 */
(PID.TID 0000.0001)                 1.575313281250000E+05,      /* I =159 */
(PID.TID 0000.0001)     2 @  1.208164531250000E+05,             /* I =160:161 */
(PID.TID 0000.0001)                 1.575313281250000E+05,      /* I =162 */
(PID.TID 0000.0001)                 1.841567187500000E+05,      /* I =163 */
(PID.TID 0000.0001)                 2.049540468750000E+05,      /* I =164 */
(PID.TID 0000.0001)                 2.220840781250000E+05,      /* I =165 */
(PID.TID 0000.0001)                 2.366191875000000E+05,      /* I =166 */
(PID.TID 0000.0001)                 2.491464062500000E+05,      /* I =167 */
(PID.TID 0000.0001)                 2.600103750000000E+05,      /* I =168 */
(PID.TID 0000.0001)                 2.694220937500000E+05,      /* I =169 */
(PID.TID 0000.0001)                 2.775134062500000E+05,      /* I =170 */
(PID.TID 0000.0001)                 2.843669375000000E+05,      /* I =171 */
(PID.TID 0000.0001)                 2.900338750000000E+05,      /* I =172 */
(PID.TID 0000.0001)                 2.945450000000000E+05,      /* I =173 */
(PID.TID 0000.0001)                 2.979181562500000E+05,      /* I =174 */
(PID.TID 0000.0001)                 3.001630625000000E+05,      /* I =175 */
(PID.TID 0000.0001)     2 @  3.012845312500000E+05,             /* I =176:177 */
(PID.TID 0000.0001)                 3.001630625000000E+05,      /* I =178 */
(PID.TID 0000.0001)                 2.979181562500000E+05,      /* I =179 */
(PID.TID 0000.0001)                 2.945450000000000E+05,      /* I =180 */
(PID.TID 0000.0001)                 2.900338750000000E+05,      /* I =181 */
(PID.TID 0000.0001)                 2.843669375000000E+05,      /* I =182 */
(PID.TID 0000.0001)                 2.775134062500000E+05,      /* I =183 */
(PID.TID 0000.0001)                 2.694220937500000E+05,      /* I =184 */
(PID.TID 0000.0001)                 2.600103750000000E+05,      /* I =185 */
(PID.TID 0000.0001)                 2.491464062500000E+05,      /* I =186 */
(PID.TID 0000.0001)                 2.366191875000000E+05,      /* I =187 */
(PID.TID 0000.0001)                 2.220840781250000E+05,      /* I =188 */
(PID.TID 0000.0001)                 2.049540468750000E+05,      /* I =189 */
(PID.TID 0000.0001)                 1.841567187500000E+05,      /* I =190 */
(PID.TID 0000.0001)                 1.575313281250000E+05,      /* I =191 */
(PID.TID 0000.0001)                 1.208164531250000E+05       /* I =192 */
(PID.TID 0000.0001)     ;
(PID.TID 0000.0001) dyF =  /* dyF(1,:,1,:) ( units: m ) */
(PID.TID 0000.0001)                 1.208164531250000E+05,      /* J =  1 */
(PID.TID 0000.0001)                 1.563893125000000E+05,      /* J =  2 */
(PID.TID 0000.0001)                 1.835578593750000E+05,      /* J =  3 */
(PID.TID 0000.0001)                 2.045897656250000E+05,      /* J =  4 */
(PID.TID 0000.0001)                 2.218355937500000E+05,      /* J =  5 */
(PID.TID 0000.0001)                 2.364355625000000E+05,      /* J =  6 */
(PID.TID 0000.0001)                 2.490024062500000E+05,      /* J =  7 */
(PID.TID 0000.0001)                 2.598920468750000E+05,      /* J =  8 */
(PID.TID 0000.0001)                 2.693210625000000E+05,      /* J =  9 */
(PID.TID 0000.0001)                 2.774243437500000E+05,      /* J = 10 */
(PID.TID 0000.0001)                 2.842862812500000E+05,      /* J = 11 */
(PID.TID 0000.0001)                 2.899590937500000E+05,      /* J = 12 */
(PID.TID 0000.0001)                 2.944743125000000E+05,      /* J = 13 */
(PID.TID 0000.0001)                 2.978501875000000E+05,      /* J = 14 */
(PID.TID 0000.0001)                 3.000967812500000E+05,      /* J = 15 */
(PID.TID 0000.0001)     2 @  3.012190937500000E+05,             /* J = 16: 17 */
(PID.TID 0000.0001)                 3.000967812500000E+05,      /* J = 18 */
(PID.TID 0000.0001)                 2.978501875000000E+05,      /* J = 19 */
(PID.TID 0000.0001)                 2.944743125000000E+05,      /* J = 20 */
(PID.TID 0000.0001)                 2.899590937500000E+05,      /* J = 21 */
(PID.TID 0000.0001)                 2.842862812500000E+05,      /* J = 22 */
(PID.TID 0000.0001)                 2.774243437500000E+05,      /* J = 23 */
(PID.TID 0000.0001)                 2.693210625000000E+05,      /* J = 24 */
(PID.TID 0000.0001)                 2.598920468750000E+05,      /* J = 25 */
(PID.TID 0000.0001)                 2.490024062500000E+05,      /* J = 26 */
(PID.TID 0000.0001)                 2.364355625000000E+05,      /* J = 27 */
(PID.TID 0000.0001)                 2.218355937500000E+05,      /* J = 28 */
(PID.TID 0000.0001)                 2.045897656250000E+05,      /* J = 29 */
(PID.TID 0000.0001)                 1.835578593750000E+05,      /* J = 30 */
(PID.TID 0000.0001)                 1.563893125000000E+05,      /* J = 31 */
(PID.TID 0000.0001)                 1.208164531250000E+05       /* J = 32 */
(PID.TID 0000.0001)     ;
(PID.TID 0000.0001) dxG =  /* dxG(:,1,:,1) ( units: m ) */
(PID.TID 0000.0001)                 1.009837812500000E+05,      /* I =  1 */
(PID.TID 0000.0001)                 1.534505781250000E+05,      /* I =  2 */
(PID.TID 0000.0001)                 1.823321562500000E+05,      /* I =  3 */
(PID.TID 0000.0001)                 2.038999062500000E+05,      /* I =  4 */
(PID.TID 0000.0001)                 2.213884687500000E+05,      /* I =  5 */
(PID.TID 0000.0001)                 2.361211718750000E+05,      /* I =  6 */
(PID.TID 0000.0001)                 2.487693437500000E+05,      /* I =  7 */
(PID.TID 0000.0001)                 2.597127031250000E+05,      /* I =  8 */
(PID.TID 0000.0001)                 2.691790312500000E+05,      /* I =  9 */
(PID.TID 0000.0001)                 2.773090937500000E+05,      /* I = 10 */
(PID.TID 0000.0001)                 2.841906562500000E+05,      /* I = 11 */
(PID.TID 0000.0001)                 2.898778750000000E+05,      /* I = 12 */
(PID.TID 0000.0001)                 2.944035937500000E+05,      /* I = 13 */
(PID.TID 0000.0001)                 2.977867812500000E+05,      /* I = 14 */
(PID.TID 0000.0001)                 3.000380000000000E+05,      /* I = 15 */
(PID.TID 0000.0001)     2 @  3.011625937500000E+05,             /* I = 16: 17 */
(PID.TID 0000.0001)                 3.000380000000000E+05,      /* I = 18 */
(PID.TID 0000.0001)                 2.977867812500000E+05,      /* I = 19 */
(PID.TID 0000.0001)                 2.944035937500000E+05,      /* I = 20 */
(PID.TID 0000.0001)                 2.898778750000000E+05,      /* I = 21 */
(PID.TID 0000.0001)                 2.841906562500000E+05,      /* I = 22 */
(PID.TID 0000.0001)                 2.773090937500000E+05,      /* I = 23 */
(PID.TID 0000.0001)                 2.691790312500000E+05,      /* I = 24 */
(PID.TID 0000.0001)                 2.597127031250000E+05,      /* I = 25 */
(PID.TID 0000.0001)                 2.487693437500000E+05,      /* I = 26 */
(PID.TID 0000.0001)                 2.361211718750000E+05,      /* I = 27 */
(PID.TID 0000.0001)                 2.213884687500000E+05,      /* I = 28 */
(PID.TID 0000.0001)                 2.038999062500000E+05,      /* I = 29 */
(PID.TID 0000.0001)                 1.823321562500000E+05,      /* I = 30 */
(PID.TID 0000.0001)                 1.534505781250000E+05,      /* I = 31 */
(PID.TID 0000.0001)     2 @  1.009837812500000E+05,             /* I = 32: 33 */
(PID.TID 0000.0001)                 1.534505781250000E+05,      /* I = 34 */
(PID.TID 0000.0001)                 1.823321562500000E+05,      /* I = 35 */
(PID.TID 0000.0001)                 2.038999062500000E+05,      /* I = 36 */
(PID.TID 0000.0001)                 2.213884687500000E+05,      /* I = 37 */
(PID.TID 0000.0001)                 2.361211718750000E+05,      /* I = 38 */
(PID.TID 0000.0001)                 2.487693437500000E+05,      /* I = 39 */
(PID.TID 0000.0001)                 2.597127031250000E+05,      /* I = 40 */
(PID.TID 0000.0001)                 2.691790312500000E+05,      /* I = 41 */
(PID.TID 0000.0001)                 2.773090937500000E+05,      /* I = 42 */
(PID.TID 0000.0001)                 2.841906562500000E+05,      /* I = 43 */
(PID.TID 0000.0001)                 2.898778750000000E+05,      /* I = 44 */
(PID.TID 0000.0001)                 2.944035937500000E+05,      /* I = 45 */
(PID.TID 0000.0001)                 2.977867812500000E+05,      /* I = 46 */
(PID.TID 0000.0001)                 3.000380000000000E+05,      /* I = 47 */
(PID.TID 0000.0001)     2 @  3.011625937500000E+05,             /* I = 48: 49 */
(PID.TID 0000.0001)                 3.000380000000000E+05,      /* I = 50 */
(PID.TID 0000.0001)                 2.977867812500000E+05,      /* I = 51 */
(PID.TID 0000.0001)                 2.944035937500000E+05,      /* I = 52 */
(PID.TID 0000.0001)                 2.898778750000000E+05,      /* I = 53 */
(PID.TID 0000.0001)                 2.841906562500000E+05,      /* I = 54 */
(PID.TID 0000.0001)                 2.773090937500000E+05,      /* I = 55 */
(PID.TID 0000.0001)                 2.691790312500000E+05,      /* I = 56 */
(PID.TID 0000.0001)                 2.597127031250000E+05,      /* I = 57 */
(PID.TID 0000.0001)                 2.487693437500000E+05,      /* I = 58 */
(PID.TID 0000.0001)                 2.361211718750000E+05,      /* I = 59 */
(PID.TID 0000.0001)                 2.213884687500000E+05,      /* I = 60 */
(PID.TID 0000.0001)                 2.038999062500000E+05,      /* I = 61 */
(PID.TID 0000.0001)                 1.823321562500000E+05,      /* I = 62 */
(PID.TID 0000.0001)                 1.534505781250000E+05,      /* I = 63 */
(PID.TID 0000.0001)     2 @  1.009837812500000E+05,             /* I = 64: 65 */
(PID.TID 0000.0001)                 1.534505781250000E+05,      /* I = 66 */
(PID.TID 0000.0001)                 1.823321562500000E+05,      /* I = 67 */
(PID.TID 0000.0001)                 2.038999062500000E+05,      /* I = 68 */
(PID.TID 0000.0001)                 2.213884687500000E+05,      /* I = 69 */
(PID.TID 0000.0001)                 2.361211718750000E+05,      /* I = 70 */
(PID.TID 0000.0001)                 2.487693437500000E+05,      /* I = 71 */
(PID.TID 0000.0001)                 2.597127031250000E+05,      /* I = 72 */
(PID.TID 0000.0001)                 2.691790312500000E+05,      /* I = 73 */
(PID.TID 0000.0001)                 2.773090937500000E+05,      /* I = 74 */
(PID.TID 0000.0001)                 2.841906562500000E+05,      /* I = 75 */
(PID.TID 0000.0001)                 2.898778750000000E+05,      /* I = 76 */
(PID.TID 0000.0001)                 2.944035937500000E+05,      /* I = 77 */
(PID.TID 0000.0001)                 2.977867812500000E+05,      /* I = 78 */
(PID.TID 0000.0001)                 3.000380000000000E+05,      /* I = 79 */
(PID.TID 0000.0001)     2 @  3.011625937500000E+05,             /* I = 80: 81 */
(PID.TID 0000.0001)                 3.000380000000000E+05,      /* I = 82 */
(PID.TID 0000.0001)                 2.977867812500000E+05,      /* I = 83 */
(PID.TID 0000.0001)                 2.944035937500000E+05,      /* I = 84 */
(PID.TID 0000.0001)                 2.898778750000000E+05,      /* I = 85 */
(PID.TID 0000.0001)                 2.841906562500000E+05,      /* I = 86 */
(PID.TID 0000.0001)                 2.773090937500000E+05,      /* I = 87 */
(PID.TID 0000.0001)                 2.691790312500000E+05,      /* I = 88 */
(PID.TID 0000.0001)                 2.597127031250000E+05,      /* I = 89 */
(PID.TID 0000.0001)                 2.487693437500000E+05,      /* I = 90 */
(PID.TID 0000.0001)                 2.361211718750000E+05,      /* I = 91 */
(PID.TID 0000.0001)                 2.213884687500000E+05,      /* I = 92 */
(PID.TID 0000.0001)                 2.038999062500000E+05,      /* I = 93 */
(PID.TID 0000.0001)                 1.823321562500000E+05,      /* I = 94 */
(PID.TID 0000.0001)                 1.534505781250000E+05,      /* I = 95 */
(PID.TID 0000.0001)     2 @  1.009837812500000E+05,             /* I = 96: 97 */
(PID.TID 0000.0001)                 1.534505781250000E+05,      /* I = 98 */
(PID.TID 0000.0001)                 1.823321562500000E+05,      /* I = 99 */
(PID.TID 0000.0001)                 2.038999062500000E+05,      /* I =100 */
(PID.TID 0000.0001)                 2.213884687500000E+05,      /* I =101 */
(PID.TID 0000.0001)                 2.361211718750000E+05,      /* I =102 */
(PID.TID 0000.0001)                 2.487693437500000E+05,      /* I =103 */
(PID.TID 0000.0001)                 2.597127031250000E+05,      /* I =104 */
(PID.TID 0000.0001)                 2.691790312500000E+05,      /* I =105 */
(PID.TID 0000.0001)                 2.773090937500000E+05,      /* I =106 */
(PID.TID 0000.0001)                 2.841906562500000E+05,      /* I =107 */
(PID.TID 0000.0001)                 2.898778750000000E+05,      /* I =108 */
(PID.TID 0000.0001)                 2.944035937500000E+05,      /* I =109 */
(PID.TID 0000.0001)                 2.977867812500000E+05,      /* I =110 */
(PID.TID 0000.0001)                 3.000380000000000E+05,      /* I =111 */
(PID.TID 0000.0001)     2 @  3.011625937500000E+05,             /* I =112:113 */
(PID.TID 0000.0001)                 3.000380000000000E+05,      /* I =114 */
(PID.TID 0000.0001)                 2.977867812500000E+05,      /* I =115 */
(PID.TID 0000.0001)                 2.944035937500000E+05,      /* I =116 */
(PID.TID 0000.0001)                 2.898778750000000E+05,      /* I =117 */
(PID.TID 0000.0001)                 2.841906562500000E+05,      /* I =118 */
(PID.TID 0000.0001)                 2.773090937500000E+05,      /* I =119 */
(PID.TID 0000.0001)                 2.691790312500000E+05,      /* I =120 */
(PID.TID 0000.0001)                 2.597127031250000E+05,      /* I =121 */
(PID.TID 0000.0001)                 2.487693437500000E+05,      /* I =122 */
(PID.TID 0000.0001)                 2.361211718750000E+05,      /* I =123 */
(PID.TID 0000.0001)                 2.213884687500000E+05,      /* I =124 */
(PID.TID 0000.0001)                 2.038999062500000E+05,      /* I =125 */
(PID.TID 0000.0001)                 1.823321562500000E+05,      /* I =126 */
(PID.TID 0000.0001)                 1.534505781250000E+05,      /* I =127 */
(PID.TID 0000.0001)     2 @  1.009837812500000E+05,             /* I =128:129 */
(PID.TID 0000.0001)                 1.534505781250000E+05,      /* I =130 */
(PID.TID 0000.0001)                 1.823321562500000E+05,      /* I =131 */
(PID.TID 0000.0001)                 2.038999062500000E+05,      /* I =132 */
(PID.TID 0000.0001)                 2.213884687500000E+05,      /* I =133 */
(PID.TID 0000.0001)                 2.361211718750000E+05,      /* I =134 */
(PID.TID 0000.0001)                 2.487693437500000E+05,      /* I =135 */
(PID.TID 0000.0001)                 2.597127031250000E+05,      /* I =136 */
(PID.TID 0000.0001)                 2.691790312500000E+05,      /* I =137 */
(PID.TID 0000.0001)                 2.773090937500000E+05,      /* I =138 */
(PID.TID 0000.0001)                 2.841906562500000E+05,      /* I =139 */
(PID.TID 0000.0001)                 2.898778750000000E+05,      /* I =140 */
(PID.TID 0000.0001)                 2.944035937500000E+05,      /* I =141 */
(PID.TID 0000.0001)                 2.977867812500000E+05,      /* I =142 */
(PID.TID 0000.0001)                 3.000380000000000E+05,      /* I =143 */
(PID.TID 0000.0001)     2 @  3.011625937500000E+05,             /* I =144:145 */
(PID.TID 0000.0001)                 3.000380000000000E+05,      /* I =146 */
(PID.TID 0000.0001)                 2.977867812500000E+05,      /* I =147 */
(PID.TID 0000.0001)                 2.944035937500000E+05,      /* I =148 */
(PID.TID 0000.0001)                 2.898778750000000E+05,      /* I =149 */
(PID.TID 0000.0001)                 2.841906562500000E+05,      /* I =150 */
(PID.TID 0000.0001)                 2.773090937500000E+05,      /* I =151 */
(PID.TID 0000.0001)                 2.691790312500000E+05,      /* I =152 */
(PID.TID 0000.0001)                 2.597127031250000E+05,      /* I =153 */
(PID.TID 0000.0001)                 2.487693437500000E+05,      /* I =154 */
(PID.TID 0000.0001)                 2.361211718750000E+05,      /* I =155 */
(PID.TID 0000.0001)                 2.213884687500000E+05,      /* I =156 */
(PID.TID 0000.0001)                 2.038999062500000E+05,      /* I =157 */
(PID.TID 0000.0001)                 1.823321562500000E+05,      /* I =158 */
(PID.TID 0000.0001)                 1.534505781250000E+05,      /* I =159 */
(PID.TID 0000.0001)     2 @  1.009837812500000E+05,             /* I =160:161 */
(PID.TID 0000.0001)                 1.534505781250000E+05,      /* I =162 */
(PID.TID 0000.0001)                 1.823321562500000E+05,      /* I =163 */
(PID.TID 0000.0001)                 2.038999062500000E+05,      /* I =164 */
(PID.TID 0000.0001)                 2.213884687500000E+05,      /* I =165 */
(PID.TID 0000.0001)                 2.361211718750000E+05,      /* I =166 */
(PID.TID 0000.0001)                 2.487693437500000E+05,      /* I =167 */
(PID.TID 0000.0001)                 2.597127031250000E+05,      /* I =168 */
(PID.TID 0000.0001)                 2.691790312500000E+05,      /* I =169 */
(PID.TID 0000.0001)                 2.773090937500000E+05,      /* I =170 */
(PID.TID 0000.0001)                 2.841906562500000E+05,      /* I =171 */
(PID.TID 0000.0001)                 2.898778750000000E+05,      /* I =172 */
(PID.TID 0000.0001)                 2.944035937500000E+05,      /* I =173 */
(PID.TID 0000.0001)                 2.977867812500000E+05,      /* I =174 */
(PID.TID 0000.0001)                 3.000380000000000E+05,      /* I =175 */
(PID.TID 0000.0001)     2 @  3.011625937500000E+05,             /* I =176:177 */
(PID.TID 0000.0001)                 3.000380000000000E+05,      /* I =178 */
(PID.TID 0000.0001)                 2.977867812500000E+05,      /* I =179 */
(PID.TID 0000.0001)                 2.944035937500000E+05,      /* I =180 */
(PID.TID 0000.0001)                 2.898778750000000E+05,      /* I =181 */
(PID.TID 0000.0001)                 2.841906562500000E+05,      /* I =182 */
(PID.TID 0000.0001)                 2.773090937500000E+05,      /* I =183 */
(PID.TID 0000.0001)                 2.691790312500000E+05,      /* I =184 */
(PID.TID 0000.0001)                 2.597127031250000E+05,      /* I =185 */
(PID.TID 0000.0001)                 2.487693437500000E+05,      /* I =186 */
(PID.TID 0000.0001)                 2.361211718750000E+05,      /* I =187 */
(PID.TID 0000.0001)                 2.213884687500000E+05,      /* I =188 */
(PID.TID 0000.0001)                 2.038999062500000E+05,      /* I =189 */
(PID.TID 0000.0001)                 1.823321562500000E+05,      /* I =190 */
(PID.TID 0000.0001)                 1.534505781250000E+05,      /* I =191 */
(PID.TID 0000.0001)                 1.009837812500000E+05       /* I =192 */
(PID.TID 0000.0001)     ;
(PID.TID 0000.0001) dxG =  /* dxG(1,:,1,:) ( units: m ) */
(PID.TID 0000.0001)                 1.009837812500000E+05,      /* J =  1 */
(PID.TID 0000.0001)                 1.407552812500000E+05,      /* J =  2 */
(PID.TID 0000.0001)                 1.717812500000000E+05,      /* J =  3 */
(PID.TID 0000.0001)                 1.951120000000000E+05,      /* J =  4 */
(PID.TID 0000.0001)                 2.138946562500000E+05,      /* J =  5 */
(PID.TID 0000.0001)                 2.296317500000000E+05,      /* J =  6 */
(PID.TID 0000.0001)                 2.431082187500000E+05,      /* J =  7 */
(PID.TID 0000.0001)                 2.547707812500000E+05,      /* J =  8 */
(PID.TID 0000.0001)                 2.648880937500000E+05,      /* J =  9 */
(PID.TID 0000.0001)                 2.736267187500000E+05,      /* J = 10 */
(PID.TID 0000.0001)                 2.810911250000000E+05,      /* J = 11 */
(PID.TID 0000.0001)                 2.873464375000000E+05,      /* J = 12 */
(PID.TID 0000.0001)                 2.924325625000000E+05,      /* J = 13 */
(PID.TID 0000.0001)                 2.963730625000000E+05,      /* J = 14 */
(PID.TID 0000.0001)                 2.991812500000000E+05,      /* J = 15 */
(PID.TID 0000.0001)                 3.008640312500000E+05,      /* J = 16 */
(PID.TID 0000.0001)                 3.014246562500000E+05,      /* J = 17 */
(PID.TID 0000.0001)                 3.008640312500000E+05,      /* J = 18 */
(PID.TID 0000.0001)                 2.991812500000000E+05,      /* J = 19 */
(PID.TID 0000.0001)                 2.963730625000000E+05,      /* J = 20 */
(PID.TID 0000.0001)                 2.924325625000000E+05,      /* J = 21 */
(PID.TID 0000.0001)                 2.873464375000000E+05,      /* J = 22 */
(PID.TID 0000.0001)                 2.810911250000000E+05,      /* J = 23 */
(PID.TID 0000.0001)                 2.736267187500000E+05,      /* J = 24 */
(PID.TID 0000.0001)                 2.648880937500000E+05,      /* J = 25 */
(PID.TID 0000.0001)                 2.547707812500000E+05,      /* J = 26 */
(PID.TID 0000.0001)                 2.431082187500000E+05,      /* J = 27 */
(PID.TID 0000.0001)                 2.296317500000000E+05,      /* J = 28 */
(PID.TID 0000.0001)                 2.138946562500000E+05,      /* J = 29 */
(PID.TID 0000.0001)                 1.951120000000000E+05,      /* J = 30 */
(PID.TID 0000.0001)                 1.717812500000000E+05,      /* J = 31 */
(PID.TID 0000.0001)                 1.407552812500000E+05       /* J = 32 */
(PID.TID 0000.0001)     ;
(PID.TID 0000.0001) dyG =  /* dyG(:,1,:,1) ( units: m ) */
(PID.TID 0000.0001)                 1.009837812500000E+05,      /* I =  1 */
(PID.TID 0000.0001)                 1.407552812500000E+05,      /* I =  2 */
(PID.TID 0000.0001)                 1.717812500000000E+05,      /* I =  3 */
(PID.TID 0000.0001)                 1.951120000000000E+05,      /* I =  4 */
(PID.TID 0000.0001)                 2.138946562500000E+05,      /* I =  5 */
(PID.TID 0000.0001)                 2.296317500000000E+05,      /* I =  6 */
(PID.TID 0000.0001)                 2.431082187500000E+05,      /* I =  7 */
(PID.TID 0000.0001)                 2.547707812500000E+05,      /* I =  8 */
(PID.TID 0000.0001)                 2.648880937500000E+05,      /* I =  9 */
(PID.TID 0000.0001)                 2.736267187500000E+05,      /* I = 10 */
(PID.TID 0000.0001)                 2.810911250000000E+05,      /* I = 11 */
(PID.TID 0000.0001)                 2.873464375000000E+05,      /* I = 12 */
(PID.TID 0000.0001)                 2.924325625000000E+05,      /* I = 13 */
(PID.TID 0000.0001)                 2.963730625000000E+05,      /* I = 14 */
(PID.TID 0000.0001)                 2.991812500000000E+05,      /* I = 15 */
(PID.TID 0000.0001)                 3.008640312500000E+05,      /* I = 16 */
(PID.TID 0000.0001)                 3.014246562500000E+05,      /* I = 17 */
(PID.TID 0000.0001)                 3.008640312500000E+05,      /* I = 18 */
(PID.TID 0000.0001)                 2.991812500000000E+05,      /* I = 19 */
(PID.TID 0000.0001)                 2.963730625000000E+05,      /* I = 20 */
(PID.TID 0000.0001)                 2.924325625000000E+05,      /* I = 21 */
(PID.TID 0000.0001)                 2.873464375000000E+05,      /* I = 22 */
(PID.TID 0000.0001)                 2.810911250000000E+05,      /* I = 23 */
(PID.TID 0000.0001)                 2.736267187500000E+05,      /* I = 24 */
(PID.TID 0000.0001)                 2.648880937500000E+05,      /* I = 25 */
(PID.TID 0000.0001)                 2.547707812500000E+05,      /* I = 26 */
(PID.TID 0000.0001)                 2.431082187500000E+05,      /* I = 27 */
(PID.TID 0000.0001)                 2.296317500000000E+05,      /* I = 28 */
(PID.TID 0000.0001)                 2.138946562500000E+05,      /* I = 29 */
(PID.TID 0000.0001)                 1.951120000000000E+05,      /* I = 30 */
(PID.TID 0000.0001)                 1.717812500000000E+05,      /* I = 31 */
(PID.TID 0000.0001)                 1.407552812500000E+05,      /* I = 32 */
(PID.TID 0000.0001)                 1.009837812500000E+05,      /* I = 33 */
(PID.TID 0000.0001)                 1.407552812500000E+05,      /* I = 34 */
(PID.TID 0000.0001)                 1.717812500000000E+05,      /* I = 35 */
(PID.TID 0000.0001)                 1.951120000000000E+05,      /* I = 36 */
(PID.TID 0000.0001)                 2.138946562500000E+05,      /* I = 37 */
(PID.TID 0000.0001)                 2.296317500000000E+05,      /* I = 38 */
(PID.TID 0000.0001)                 2.431082187500000E+05,      /* I = 39 */
(PID.TID 0000.0001)                 2.547707812500000E+05,      /* I = 40 */
(PID.TID 0000.0001)                 2.648880937500000E+05,      /* I = 41 */
(PID.TID 0000.0001)                 2.736267187500000E+05,      /* I = 42 */
(PID.TID 0000.0001)                 2.810911250000000E+05,      /* I = 43 */
(PID.TID 0000.0001)                 2.873464375000000E+05,      /* I = 44 */
(PID.TID 0000.0001)                 2.924325625000000E+05,      /* I = 45 */
(PID.TID 0000.0001)                 2.963730625000000E+05,      /* I = 46 */
(PID.TID 0000.0001)                 2.991812500000000E+05,      /* I = 47 */
(PID.TID 0000.0001)                 3.008640312500000E+05,      /* I = 48 */
(PID.TID 0000.0001)                 3.014246562500000E+05,      /* I = 49 */
(PID.TID 0000.0001)                 3.008640312500000E+05,      /* I = 50 */
(PID.TID 0000.0001)                 2.991812500000000E+05,      /* I = 51 */
(PID.TID 0000.0001)                 2.963730625000000E+05,      /* I = 52 */
(PID.TID 0000.0001)                 2.924325625000000E+05,      /* I = 53 */
(PID.TID 0000.0001)                 2.873464375000000E+05,      /* I = 54 */
(PID.TID 0000.0001)                 2.810911250000000E+05,      /* I = 55 */
(PID.TID 0000.0001)                 2.736267187500000E+05,      /* I = 56 */
(PID.TID 0000.0001)                 2.648880937500000E+05,      /* I = 57 */
(PID.TID 0000.0001)                 2.547707812500000E+05,      /* I = 58 */
(PID.TID 0000.0001)                 2.431082187500000E+05,      /* I = 59 */
(PID.TID 0000.0001)                 2.296317500000000E+05,      /* I = 60 */
(PID.TID 0000.0001)                 2.138946562500000E+05,      /* I = 61 */
(PID.TID 0000.0001)                 1.951120000000000E+05,      /* I = 62 */
(PID.TID 0000.0001)                 1.717812500000000E+05,      /* I = 63 */
(PID.TID 0000.0001)                 1.407552812500000E+05,      /* I = 64 */
(PID.TID 0000.0001)                 1.009837812500000E+05,      /* I = 65 */
(PID.TID 0000.0001)                 1.407552812500000E+05,      /* I = 66 */
(PID.TID 0000.0001)                 1.717812500000000E+05,      /* I = 67 */
(PID.TID 0000.0001)                 1.951120000000000E+05,      /* I = 68 */
(PID.TID 0000.0001)                 2.138946562500000E+05,      /* I = 69 */
(PID.TID 0000.0001)                 2.296317500000000E+05,      /* I = 70 */
(PID.TID 0000.0001)                 2.431082187500000E+05,      /* I = 71 */
(PID.TID 0000.0001)                 2.547707812500000E+05,      /* I = 72 */
(PID.TID 0000.0001)                 2.648880937500000E+05,      /* I = 73 */
(PID.TID 0000.0001)                 2.736267187500000E+05,      /* I = 74 */
(PID.TID 0000.0001)                 2.810911250000000E+05,      /* I = 75 */
(PID.TID 0000.0001)                 2.873464375000000E+05,      /* I = 76 */
(PID.TID 0000.0001)                 2.924325625000000E+05,      /* I = 77 */
(PID.TID 0000.0001)                 2.963730625000000E+05,      /* I = 78 */
(PID.TID 0000.0001)                 2.991812500000000E+05,      /* I = 79 */
(PID.TID 0000.0001)                 3.008640312500000E+05,      /* I = 80 */
(PID.TID 0000.0001)                 3.014246562500000E+05,      /* I = 81 */
(PID.TID 0000.0001)                 3.008640312500000E+05,      /* I = 82 */
(PID.TID 0000.0001)                 2.991812500000000E+05,      /* I = 83 */
(PID.TID 0000.0001)                 2.963730625000000E+05,      /* I = 84 */
(PID.TID 0000.0001)                 2.924325625000000E+05,      /* I = 85 */
(PID.TID 0000.0001)                 2.873464375000000E+05,      /* I = 86 */
(PID.TID 0000.0001)                 2.810911250000000E+05,      /* I = 87 */
(PID.TID 0000.0001)                 2.736267187500000E+05,      /* I = 88 */
(PID.TID 0000.0001)                 2.648880937500000E+05,      /* I = 89 */
(PID.TID 0000.0001)                 2.547707812500000E+05,      /* I = 90 */
(PID.TID 0000.0001)                 2.431082187500000E+05,      /* I = 91 */
(PID.TID 0000.0001)                 2.296317500000000E+05,      /* I = 92 */
(PID.TID 0000.0001)                 2.138946562500000E+05,      /* I = 93 */
(PID.TID 0000.0001)                 1.951120000000000E+05,      /* I = 94 */
(PID.TID 0000.0001)                 1.717812500000000E+05,      /* I = 95 */
(PID.TID 0000.0001)                 1.407552812500000E+05,      /* I = 96 */
(PID.TID 0000.0001)                 1.009837812500000E+05,      /* I = 97 */
(PID.TID 0000.0001)                 1.407552812500000E+05,      /* I = 98 */
(PID.TID 0000.0001)                 1.717812500000000E+05,      /* I = 99 */
(PID.TID 0000.0001)                 1.951120000000000E+05,      /* I =100 */
(PID.TID 0000.0001)                 2.138946562500000E+05,      /* I =101 */
(PID.TID 0000.0001)                 2.296317500000000E+05,      /* I =102 */
(PID.TID 0000.0001)                 2.431082187500000E+05,      /* I =103 */
(PID.TID 0000.0001)                 2.547707812500000E+05,      /* I =104 */
(PID.TID 0000.0001)                 2.648880937500000E+05,      /* I =105 */
(PID.TID 0000.0001)                 2.736267187500000E+05,      /* I =106 */
(PID.TID 0000.0001)                 2.810911250000000E+05,      /* I =107 */
(PID.TID 0000.0001)                 2.873464375000000E+05,      /* I =108 */
(PID.TID 0000.0001)                 2.924325625000000E+05,      /* I =109 */
(PID.TID 0000.0001)                 2.963730625000000E+05,      /* I =110 */
(PID.TID 0000.0001)                 2.991812500000000E+05,      /* I =111 */
(PID.TID 0000.0001)                 3.008640312500000E+05,      /* I =112 */
(PID.TID 0000.0001)                 3.014246562500000E+05,      /* I =113 */
(PID.TID 0000.0001)                 3.008640312500000E+05,      /* I =114 */
(PID.TID 0000.0001)                 2.991812500000000E+05,      /* I =115 */
(PID.TID 0000.0001)                 2.963730625000000E+05,      /* I =116 */
(PID.TID 0000.0001)                 2.924325625000000E+05,      /* I =117 */
(PID.TID 0000.0001)                 2.873464375000000E+05,      /* I =118 */
(PID.TID 0000.0001)                 2.810911250000000E+05,      /* I =119 */
(PID.TID 0000.0001)                 2.736267187500000E+05,      /* I =120 */
(PID.TID 0000.0001)                 2.648880937500000E+05,      /* I =121 */
(PID.TID 0000.0001)                 2.547707812500000E+05,      /* I =122 */
(PID.TID 0000.0001)                 2.431082187500000E+05,      /* I =123 */
(PID.TID 0000.0001)                 2.296317500000000E+05,      /* I =124 */
(PID.TID 0000.0001)                 2.138946562500000E+05,      /* I =125 */
(PID.TID 0000.0001)                 1.951120000000000E+05,      /* I =126 */
(PID.TID 0000.0001)                 1.717812500000000E+05,      /* I =127 */
(PID.TID 0000.0001)                 1.407552812500000E+05,      /* I =128 */
(PID.TID 0000.0001)                 1.009837812500000E+05,      /* I =129 */
(PID.TID 0000.0001)                 1.407552812500000E+05,      /* I =130 */
(PID.TID 0000.0001)                 1.717812500000000E+05,      /* I =131 */
(PID.TID 0000.0001)                 1.951120000000000E+05,      /* I =132 */
(PID.TID 0000.0001)                 2.138946562500000E+05,      /* I =133 */
(PID.TID 0000.0001)                 2.296317500000000E+05,      /* I =134 */
(PID.TID 0000.0001)                 2.431082187500000E+05,      /* I =135 */
(PID.TID 0000.0001)                 2.547707812500000E+05,      /* I =136 */
(PID.TID 0000.0001)                 2.648880937500000E+05,      /* I =137 */
(PID.TID 0000.0001)                 2.736267187500000E+05,      /* I =138 */
(PID.TID 0000.0001)                 2.810911250000000E+05,      /* I =139 */
(PID.TID 0000.0001)                 2.873464375000000E+05,      /* I =140 */
(PID.TID 0000.0001)                 2.924325625000000E+05,      /* I =141 */
(PID.TID 0000.0001)                 2.963730625000000E+05,      /* I =142 */
(PID.TID 0000.0001)                 2.991812500000000E+05,      /* I =143 */
(PID.TID 0000.0001)                 3.008640312500000E+05,      /* I =144 */
(PID.TID 0000.0001)                 3.014246562500000E+05,      /* I =145 */
(PID.TID 0000.0001)                 3.008640312500000E+05,      /* I =146 */
(PID.TID 0000.0001)                 2.991812500000000E+05,      /* I =147 */
(PID.TID 0000.0001)                 2.963730625000000E+05,      /* I =148 */
(PID.TID 0000.0001)                 2.924325625000000E+05,      /* I =149 */
(PID.TID 0000.0001)                 2.873464375000000E+05,      /* I =150 */
(PID.TID 0000.0001)                 2.810911250000000E+05,      /* I =151 */
(PID.TID 0000.0001)                 2.736267187500000E+05,      /* I =152 */
(PID.TID 0000.0001)                 2.648880937500000E+05,      /* I =153 */
(PID.TID 0000.0001)                 2.547707812500000E+05,      /* I =154 */
(PID.TID 0000.0001)                 2.431082187500000E+05,      /* I =155 */
(PID.TID 0000.0001)                 2.296317500000000E+05,      /* I =156 */
(PID.TID 0000.0001)                 2.138946562500000E+05,      /* I =157 */
(PID.TID 0000.0001)                 1.951120000000000E+05,      /* I =158 */
(PID.TID 0000.0001)                 1.717812500000000E+05,      /* I =159 */
(PID.TID 0000.0001)                 1.407552812500000E+05,      /* I =160 */
(PID.TID 0000.0001)                 1.009837812500000E+05,      /* I =161 */
(PID.TID 0000.0001)                 1.407552812500000E+05,      /* I =162 */
(PID.TID 0000.0001)                 1.717812500000000E+05,      /* I =163 */
(PID.TID 0000.0001)                 1.951120000000000E+05,      /* I =164 */
(PID.TID 0000.0001)                 2.138946562500000E+05,      /* I =165 */
(PID.TID 0000.0001)                 2.296317500000000E+05,      /* I =166 */
(PID.TID 0000.0001)                 2.431082187500000E+05,      /* I =167 */
(PID.TID 0000.0001)                 2.547707812500000E+05,      /* I =168 */
(PID.TID 0000.0001)                 2.648880937500000E+05,      /* I =169 */
(PID.TID 0000.0001)                 2.736267187500000E+05,      /* I =170 */
(PID.TID 0000.0001)                 2.810911250000000E+05,      /* I =171 */
(PID.TID 0000.0001)                 2.873464375000000E+05,      /* I =172 */
(PID.TID 0000.0001)                 2.924325625000000E+05,      /* I =173 */
(PID.TID 0000.0001)                 2.963730625000000E+05,      /* I =174 */
(PID.TID 0000.0001)                 2.991812500000000E+05,      /* I =175 */
(PID.TID 0000.0001)                 3.008640312500000E+05,      /* I =176 */
(PID.TID 0000.0001)                 3.014246562500000E+05,      /* I =177 */
(PID.TID 0000.0001)                 3.008640312500000E+05,      /* I =178 */
(PID.TID 0000.0001)                 2.991812500000000E+05,      /* I =179 */
(PID.TID 0000.0001)                 2.963730625000000E+05,      /* I =180 */
(PID.TID 0000.0001)                 2.924325625000000E+05,      /* I =181 */
(PID.TID 0000.0001)                 2.873464375000000E+05,      /* I =182 */
(PID.TID 0000.0001)                 2.810911250000000E+05,      /* I =183 */
(PID.TID 0000.0001)                 2.736267187500000E+05,      /* I =184 */
(PID.TID 0000.0001)                 2.648880937500000E+05,      /* I =185 */
(PID.TID 0000.0001)                 2.547707812500000E+05,      /* I =186 */
(PID.TID 0000.0001)                 2.431082187500000E+05,      /* I =187 */
(PID.TID 0000.0001)                 2.296317500000000E+05,      /* I =188 */
(PID.TID 0000.0001)                 2.138946562500000E+05,      /* I =189 */
(PID.TID 0000.0001)                 1.951120000000000E+05,      /* I =190 */
(PID.TID 0000.0001)                 1.717812500000000E+05,      /* I =191 */
(PID.TID 0000.0001)                 1.407552812500000E+05       /* I =192 */
(PID.TID 0000.0001)     ;
(PID.TID 0000.0001) dyG =  /* dyG(1,:,1,:) ( units: m ) */
(PID.TID 0000.0001)                 1.009837812500000E+05,      /* J =  1 */
(PID.TID 0000.0001)                 1.534505781250000E+05,      /* J =  2 */
(PID.TID 0000.0001)                 1.823321562500000E+05,      /* J =  3 */
(PID.TID 0000.0001)                 2.038999062500000E+05,      /* J =  4 */
(PID.TID 0000.0001)                 2.213884687500000E+05,      /* J =  5 */
(PID.TID 0000.0001)                 2.361211718750000E+05,      /* J =  6 */
(PID.TID 0000.0001)                 2.487693437500000E+05,      /* J =  7 */
(PID.TID 0000.0001)                 2.597127031250000E+05,      /* J =  8 */
(PID.TID 0000.0001)                 2.691790312500000E+05,      /* J =  9 */
(PID.TID 0000.0001)                 2.773090937500000E+05,      /* J = 10 */
(PID.TID 0000.0001)                 2.841906562500000E+05,      /* J = 11 */
(PID.TID 0000.0001)                 2.898778750000000E+05,      /* J = 12 */
(PID.TID 0000.0001)                 2.944035937500000E+05,      /* J = 13 */
(PID.TID 0000.0001)                 2.977867812500000E+05,      /* J = 14 */
(PID.TID 0000.0001)                 3.000380000000000E+05,      /* J = 15 */
(PID.TID 0000.0001)     2 @  3.011625937500000E+05,             /* J = 16: 17 */
(PID.TID 0000.0001)                 3.000380000000000E+05,      /* J = 18 */
(PID.TID 0000.0001)                 2.977867812500000E+05,      /* J = 19 */
(PID.TID 0000.0001)                 2.944035937500000E+05,      /* J = 20 */
(PID.TID 0000.0001)                 2.898778750000000E+05,      /* J = 21 */
(PID.TID 0000.0001)                 2.841906562500000E+05,      /* J = 22 */
(PID.TID 0000.0001)                 2.773090937500000E+05,      /* J = 23 */
(PID.TID 0000.0001)                 2.691790312500000E+05,      /* J = 24 */
(PID.TID 0000.0001)                 2.597127031250000E+05,      /* J = 25 */
(PID.TID 0000.0001)                 2.487693437500000E+05,      /* J = 26 */
(PID.TID 0000.0001)                 2.361211718750000E+05,      /* J = 27 */
(PID.TID 0000.0001)                 2.213884687500000E+05,      /* J = 28 */
(PID.TID 0000.0001)                 2.038999062500000E+05,      /* J = 29 */
(PID.TID 0000.0001)                 1.823321562500000E+05,      /* J = 30 */
(PID.TID 0000.0001)                 1.534505781250000E+05,      /* J = 31 */
(PID.TID 0000.0001)                 1.009837812500000E+05       /* J = 32 */
(PID.TID 0000.0001)     ;
(PID.TID 0000.0001) dxC =  /* dxC(:,1,:,1) ( units: m ) */
(PID.TID 0000.0001)                 1.116647109375000E+05,      /* I =  1 */
(PID.TID 0000.0001)                 1.392485625000000E+05,      /* I =  2 */
(PID.TID 0000.0001)                 1.709683593750000E+05,      /* I =  3 */
(PID.TID 0000.0001)                 1.946528750000000E+05,      /* I =  4 */
(PID.TID 0000.0001)                 2.135973125000000E+05,      /* I =  5 */
(PID.TID 0000.0001)                 2.294199375000000E+05,      /* I =  6 */
(PID.TID 0000.0001)                 2.429466562500000E+05,      /* I =  7 */
(PID.TID 0000.0001)                 2.546409375000000E+05,      /* I =  8 */
(PID.TID 0000.0001)                 2.647792500000000E+05,      /* I =  9 */
(PID.TID 0000.0001)                 2.735322187500000E+05,      /* I = 10 */
(PID.TID 0000.0001)                 2.810066250000000E+05,      /* I = 11 */
(PID.TID 0000.0001)                 2.872689687500000E+05,      /* I = 12 */
(PID.TID 0000.0001)                 2.923600000000000E+05,      /* I = 13 */
(PID.TID 0000.0001)                 2.963039062500000E+05,      /* I = 14 */
(PID.TID 0000.0001)                 2.991142500000000E+05,      /* I = 15 */
(PID.TID 0000.0001)                 3.007982812500000E+05,      /* I = 16 */
(PID.TID 0000.0001)                 3.013594062500000E+05,      /* I = 17 */
(PID.TID 0000.0001)                 3.007982812500000E+05,      /* I = 18 */
(PID.TID 0000.0001)                 2.991142500000000E+05,      /* I = 19 */
(PID.TID 0000.0001)                 2.963039062500000E+05,      /* I = 20 */
(PID.TID 0000.0001)                 2.923600000000000E+05,      /* I = 21 */
(PID.TID 0000.0001)                 2.872689687500000E+05,      /* I = 22 */
(PID.TID 0000.0001)                 2.810066250000000E+05,      /* I = 23 */
(PID.TID 0000.0001)                 2.735322187500000E+05,      /* I = 24 */
(PID.TID 0000.0001)                 2.647792500000000E+05,      /* I = 25 */
(PID.TID 0000.0001)                 2.546409375000000E+05,      /* I = 26 */
(PID.TID 0000.0001)                 2.429466562500000E+05,      /* I = 27 */
(PID.TID 0000.0001)                 2.294199375000000E+05,      /* I = 28 */
(PID.TID 0000.0001)                 2.135973125000000E+05,      /* I = 29 */
(PID.TID 0000.0001)                 1.946528750000000E+05,      /* I = 30 */
(PID.TID 0000.0001)                 1.709683593750000E+05,      /* I = 31 */
(PID.TID 0000.0001)                 1.392485625000000E+05,      /* I = 32 */
(PID.TID 0000.0001)                 1.116647109375000E+05,      /* I = 33 */
(PID.TID 0000.0001)                 1.392485625000000E+05,      /* I = 34 */
(PID.TID 0000.0001)                 1.709683593750000E+05,      /* I = 35 */
(PID.TID 0000.0001)                 1.946528750000000E+05,      /* I = 36 */
(PID.TID 0000.0001)                 2.135973125000000E+05,      /* I = 37 */
(PID.TID 0000.0001)                 2.294199375000000E+05,      /* I = 38 */
(PID.TID 0000.0001)                 2.429466562500000E+05,      /* I = 39 */
(PID.TID 0000.0001)                 2.546409375000000E+05,      /* I = 40 */
(PID.TID 0000.0001)                 2.647792500000000E+05,      /* I = 41 */
(PID.TID 0000.0001)                 2.735322187500000E+05,      /* I = 42 */
(PID.TID 0000.0001)                 2.810066250000000E+05,      /* I = 43 */
(PID.TID 0000.0001)                 2.872689687500000E+05,      /* I = 44 */
(PID.TID 0000.0001)                 2.923600000000000E+05,      /* I = 45 */
(PID.TID 0000.0001)                 2.963039062500000E+05,      /* I = 46 */
(PID.TID 0000.0001)                 2.991142500000000E+05,      /* I = 47 */
(PID.TID 0000.0001)                 3.007982812500000E+05,      /* I = 48 */
(PID.TID 0000.0001)                 3.013594062500000E+05,      /* I = 49 */
(PID.TID 0000.0001)                 3.007982812500000E+05,      /* I = 50 */
(PID.TID 0000.0001)                 2.991142500000000E+05,      /* I = 51 */
(PID.TID 0000.0001)                 2.963039062500000E+05,      /* I = 52 */
(PID.TID 0000.0001)                 2.923600000000000E+05,      /* I = 53 */
(PID.TID 0000.0001)                 2.872689687500000E+05,      /* I = 54 */
(PID.TID 0000.0001)                 2.810066250000000E+05,      /* I = 55 */
(PID.TID 0000.0001)                 2.735322187500000E+05,      /* I = 56 */
(PID.TID 0000.0001)                 2.647792500000000E+05,      /* I = 57 */
(PID.TID 0000.0001)                 2.546409375000000E+05,      /* I = 58 */
(PID.TID 0000.0001)                 2.429466562500000E+05,      /* I = 59 */
(PID.TID 0000.0001)                 2.294199375000000E+05,      /* I = 60 */
(PID.TID 0000.0001)                 2.135973125000000E+05,      /* I = 61 */
(PID.TID 0000.0001)                 1.946528750000000E+05,      /* I = 62 */
(PID.TID 0000.0001)                 1.709683593750000E+05,      /* I = 63 */
(PID.TID 0000.0001)                 1.392485625000000E+05,      /* I = 64 */
(PID.TID 0000.0001)                 1.116647109375000E+05,      /* I = 65 */
(PID.TID 0000.0001)                 1.392485625000000E+05,      /* I = 66 */
(PID.TID 0000.0001)                 1.709683593750000E+05,      /* I = 67 */
(PID.TID 0000.0001)                 1.946528750000000E+05,      /* I = 68 */
(PID.TID 0000.0001)                 2.135973125000000E+05,      /* I = 69 */
(PID.TID 0000.0001)                 2.294199375000000E+05,      /* I = 70 */
(PID.TID 0000.0001)                 2.429466562500000E+05,      /* I = 71 */
(PID.TID 0000.0001)                 2.546409375000000E+05,      /* I = 72 */
(PID.TID 0000.0001)                 2.647792500000000E+05,      /* I = 73 */
(PID.TID 0000.0001)                 2.735322187500000E+05,      /* I = 74 */
(PID.TID 0000.0001)                 2.810066250000000E+05,      /* I = 75 */
(PID.TID 0000.0001)                 2.872689687500000E+05,      /* I = 76 */
(PID.TID 0000.0001)                 2.923600000000000E+05,      /* I = 77 */
(PID.TID 0000.0001)                 2.963039062500000E+05,      /* I = 78 */
(PID.TID 0000.0001)                 2.991142500000000E+05,      /* I = 79 */
(PID.TID 0000.0001)                 3.007982812500000E+05,      /* I = 80 */
(PID.TID 0000.0001)                 3.013594062500000E+05,      /* I = 81 */
(PID.TID 0000.0001)                 3.007982812500000E+05,      /* I = 82 */
(PID.TID 0000.0001)                 2.991142500000000E+05,      /* I = 83 */
(PID.TID 0000.0001)                 2.963039062500000E+05,      /* I = 84 */
(PID.TID 0000.0001)                 2.923600000000000E+05,      /* I = 85 */
(PID.TID 0000.0001)                 2.872689687500000E+05,      /* I = 86 */
(PID.TID 0000.0001)                 2.810066250000000E+05,      /* I = 87 */
(PID.TID 0000.0001)                 2.735322187500000E+05,      /* I = 88 */
(PID.TID 0000.0001)                 2.647792500000000E+05,      /* I = 89 */
(PID.TID 0000.0001)                 2.546409375000000E+05,      /* I = 90 */
(PID.TID 0000.0001)                 2.429466562500000E+05,      /* I = 91 */
(PID.TID 0000.0001)                 2.294199375000000E+05,      /* I = 92 */
(PID.TID 0000.0001)                 2.135973125000000E+05,      /* I = 93 */
(PID.TID 0000.0001)                 1.946528750000000E+05,      /* I = 94 */
(PID.TID 0000.0001)                 1.709683593750000E+05,      /* I = 95 */
(PID.TID 0000.0001)                 1.392485625000000E+05,      /* I = 96 */
(PID.TID 0000.0001)                 1.116647109375000E+05,      /* I = 97 */
(PID.TID 0000.0001)                 1.392485625000000E+05,      /* I = 98 */
(PID.TID 0000.0001)                 1.709683593750000E+05,      /* I = 99 */
(PID.TID 0000.0001)                 1.946528750000000E+05,      /* I =100 */
(PID.TID 0000.0001)                 2.135973125000000E+05,      /* I =101 */
(PID.TID 0000.0001)                 2.294199375000000E+05,      /* I =102 */
(PID.TID 0000.0001)                 2.429466562500000E+05,      /* I =103 */
(PID.TID 0000.0001)                 2.546409375000000E+05,      /* I =104 */
(PID.TID 0000.0001)                 2.647792500000000E+05,      /* I =105 */
(PID.TID 0000.0001)                 2.735322187500000E+05,      /* I =106 */
(PID.TID 0000.0001)                 2.810066250000000E+05,      /* I =107 */
(PID.TID 0000.0001)                 2.872689687500000E+05,      /* I =108 */
(PID.TID 0000.0001)                 2.923600000000000E+05,      /* I =109 */
(PID.TID 0000.0001)                 2.963039062500000E+05,      /* I =110 */
(PID.TID 0000.0001)                 2.991142500000000E+05,      /* I =111 */
(PID.TID 0000.0001)                 3.007982812500000E+05,      /* I =112 */
(PID.TID 0000.0001)                 3.013594062500000E+05,      /* I =113 */
(PID.TID 0000.0001)                 3.007982812500000E+05,      /* I =114 */
(PID.TID 0000.0001)                 2.991142500000000E+05,      /* I =115 */
(PID.TID 0000.0001)                 2.963039062500000E+05,      /* I =116 */
(PID.TID 0000.0001)                 2.923600000000000E+05,      /* I =117 */
(PID.TID 0000.0001)                 2.872689687500000E+05,      /* I =118 */
(PID.TID 0000.0001)                 2.810066250000000E+05,      /* I =119 */
(PID.TID 0000.0001)                 2.735322187500000E+05,      /* I =120 */
(PID.TID 0000.0001)                 2.647792500000000E+05,      /* I =121 */
(PID.TID 0000.0001)                 2.546409375000000E+05,      /* I =122 */
(PID.TID 0000.0001)                 2.429466562500000E+05,      /* I =123 */
(PID.TID 0000.0001)                 2.294199375000000E+05,      /* I =124 */
(PID.TID 0000.0001)                 2.135973125000000E+05,      /* I =125 */
(PID.TID 0000.0001)                 1.946528750000000E+05,      /* I =126 */
(PID.TID 0000.0001)                 1.709683593750000E+05,      /* I =127 */
(PID.TID 0000.0001)                 1.392485625000000E+05,      /* I =128 */
(PID.TID 0000.0001)                 1.116647109375000E+05,      /* I =129 */
(PID.TID 0000.0001)                 1.392485625000000E+05,      /* I =130 */
(PID.TID 0000.0001)                 1.709683593750000E+05,      /* I =131 */
(PID.TID 0000.0001)                 1.946528750000000E+05,      /* I =132 */
(PID.TID 0000.0001)                 2.135973125000000E+05,      /* I =133 */
(PID.TID 0000.0001)                 2.294199375000000E+05,      /* I =134 */
(PID.TID 0000.0001)                 2.429466562500000E+05,      /* I =135 */
(PID.TID 0000.0001)                 2.546409375000000E+05,      /* I =136 */
(PID.TID 0000.0001)                 2.647792500000000E+05,      /* I =137 */
(PID.TID 0000.0001)                 2.735322187500000E+05,      /* I =138 */
(PID.TID 0000.0001)                 2.810066250000000E+05,      /* I =139 */
(PID.TID 0000.0001)                 2.872689687500000E+05,      /* I =140 */
(PID.TID 0000.0001)                 2.923600000000000E+05,      /* I =141 */
(PID.TID 0000.0001)                 2.963039062500000E+05,      /* I =142 */
(PID.TID 0000.0001)                 2.991142500000000E+05,      /* I =143 */
(PID.TID 0000.0001)                 3.007982812500000E+05,      /* I =144 */
(PID.TID 0000.0001)                 3.013594062500000E+05,      /* I =145 */
(PID.TID 0000.0001)                 3.007982812500000E+05,      /* I =146 */
(PID.TID 0000.0001)                 2.991142500000000E+05,      /* I =147 */
(PID.TID 0000.0001)                 2.963039062500000E+05,      /* I =148 */
(PID.TID 0000.0001)                 2.923600000000000E+05,      /* I =149 */
(PID.TID 0000.0001)                 2.872689687500000E+05,      /* I =150 */
(PID.TID 0000.0001)                 2.810066250000000E+05,      /* I =151 */
(PID.TID 0000.0001)                 2.735322187500000E+05,      /* I =152 */
(PID.TID 0000.0001)                 2.647792500000000E+05,      /* I =153 */
(PID.TID 0000.0001)                 2.546409375000000E+05,      /* I =154 */
(PID.TID 0000.0001)                 2.429466562500000E+05,      /* I =155 */
(PID.TID 0000.0001)                 2.294199375000000E+05,      /* I =156 */
(PID.TID 0000.0001)                 2.135973125000000E+05,      /* I =157 */
(PID.TID 0000.0001)                 1.946528750000000E+05,      /* I =158 */
(PID.TID 0000.0001)                 1.709683593750000E+05,      /* I =159 */
(PID.TID 0000.0001)                 1.392485625000000E+05,      /* I =160 */
(PID.TID 0000.0001)                 1.116647109375000E+05,      /* I =161 */
(PID.TID 0000.0001)                 1.392485625000000E+05,      /* I =162 */
(PID.TID 0000.0001)                 1.709683593750000E+05,      /* I =163 */
(PID.TID 0000.0001)                 1.946528750000000E+05,      /* I =164 */
(PID.TID 0000.0001)                 2.135973125000000E+05,      /* I =165 */
(PID.TID 0000.0001)                 2.294199375000000E+05,      /* I =166 */
(PID.TID 0000.0001)                 2.429466562500000E+05,      /* I =167 */
(PID.TID 0000.0001)                 2.546409375000000E+05,      /* I =168 */
(PID.TID 0000.0001)                 2.647792500000000E+05,      /* I =169 */
(PID.TID 0000.0001)                 2.735322187500000E+05,      /* I =170 */
(PID.TID 0000.0001)                 2.810066250000000E+05,      /* I =171 */
(PID.TID 0000.0001)                 2.872689687500000E+05,      /* I =172 */
(PID.TID 0000.0001)                 2.923600000000000E+05,      /* I =173 */
(PID.TID 0000.0001)                 2.963039062500000E+05,      /* I =174 */
(PID.TID 0000.0001)                 2.991142500000000E+05,      /* I =175 */
(PID.TID 0000.0001)                 3.007982812500000E+05,      /* I =176 */
(PID.TID 0000.0001)                 3.013594062500000E+05,      /* I =177 */
(PID.TID 0000.0001)                 3.007982812500000E+05,      /* I =178 */
(PID.TID 0000.0001)                 2.991142500000000E+05,      /* I =179 */
(PID.TID 0000.0001)                 2.963039062500000E+05,      /* I =180 */
(PID.TID 0000.0001)                 2.923600000000000E+05,      /* I =181 */
(PID.TID 0000.0001)                 2.872689687500000E+05,      /* I =182 */
(PID.TID 0000.0001)                 2.810066250000000E+05,      /* I =183 */
(PID.TID 0000.0001)                 2.735322187500000E+05,      /* I =184 */
(PID.TID 0000.0001)                 2.647792500000000E+05,      /* I =185 */
(PID.TID 0000.0001)                 2.546409375000000E+05,      /* I =186 */
(PID.TID 0000.0001)                 2.429466562500000E+05,      /* I =187 */
(PID.TID 0000.0001)                 2.294199375000000E+05,      /* I =188 */
(PID.TID 0000.0001)                 2.135973125000000E+05,      /* I =189 */
(PID.TID 0000.0001)                 1.946528750000000E+05,      /* I =190 */
(PID.TID 0000.0001)                 1.709683593750000E+05,      /* I =191 */
(PID.TID 0000.0001)                 1.392485625000000E+05       /* I =192 */
(PID.TID 0000.0001)     ;
(PID.TID 0000.0001) dxC =  /* dxC(1,:,1,:) ( units: m ) */
(PID.TID 0000.0001)                 1.116647109375000E+05,      /* J =  1 */
(PID.TID 0000.0001)                 1.550106406250000E+05,      /* J =  2 */
(PID.TID 0000.0001)                 1.830023125000000E+05,      /* J =  3 */
(PID.TID 0000.0001)                 2.042856562500000E+05,      /* J =  4 */
(PID.TID 0000.0001)                 2.216456718750000E+05,      /* J =  5 */
(PID.TID 0000.0001)                 2.363090312500000E+05,      /* J =  6 */
(PID.TID 0000.0001)                 2.489156875000000E+05,      /* J =  7 */
(PID.TID 0000.0001)                 2.598324375000000E+05,      /* J =  8 */
(PID.TID 0000.0001)                 2.692809687500000E+05,      /* J =  9 */
(PID.TID 0000.0001)                 2.773987812500000E+05,      /* J = 10 */
(PID.TID 0000.0001)                 2.842717812500000E+05,      /* J = 11 */
(PID.TID 0000.0001)                 2.899530000000000E+05,      /* J = 12 */
(PID.TID 0000.0001)                 2.944745625000000E+05,      /* J = 13 */
(PID.TID 0000.0001)                 2.978549687500000E+05,      /* J = 14 */
(PID.TID 0000.0001)                 3.001044687500000E+05,      /* J = 15 */
(PID.TID 0000.0001)     2 @  3.012281875000000E+05,             /* J = 16: 17 */
(PID.TID 0000.0001)                 3.001044687500000E+05,      /* J = 18 */
(PID.TID 0000.0001)                 2.978549687500000E+05,      /* J = 19 */
(PID.TID 0000.0001)                 2.944745625000000E+05,      /* J = 20 */
(PID.TID 0000.0001)                 2.899530000000000E+05,      /* J = 21 */
(PID.TID 0000.0001)                 2.842717812500000E+05,      /* J = 22 */
(PID.TID 0000.0001)                 2.773987812500000E+05,      /* J = 23 */
(PID.TID 0000.0001)                 2.692809687500000E+05,      /* J = 24 */
(PID.TID 0000.0001)                 2.598324375000000E+05,      /* J = 25 */
(PID.TID 0000.0001)                 2.489156875000000E+05,      /* J = 26 */
(PID.TID 0000.0001)                 2.363090312500000E+05,      /* J = 27 */
(PID.TID 0000.0001)                 2.216456718750000E+05,      /* J = 28 */
(PID.TID 0000.0001)                 2.042856562500000E+05,      /* J = 29 */
(PID.TID 0000.0001)                 1.830023125000000E+05,      /* J = 30 */
(PID.TID 0000.0001)                 1.550106406250000E+05,      /* J = 31 */
(PID.TID 0000.0001)                 1.116647109375000E+05       /* J = 32 */
(PID.TID 0000.0001)     ;
(PID.TID 0000.0001) dyC =  /* dyC(:,1,:,1) ( units: m ) */
(PID.TID 0000.0001)                 1.116647109375000E+05,      /* I =  1 */
(PID.TID 0000.0001)                 1.550106406250000E+05,      /* I =  2 */
(PID.TID 0000.0001)                 1.830023125000000E+05,      /* I =  3 */
(PID.TID 0000.0001)                 2.042856562500000E+05,      /* I =  4 */
(PID.TID 0000.0001)                 2.216456718750000E+05,      /* I =  5 */
(PID.TID 0000.0001)                 2.363090312500000E+05,      /* I =  6 */
(PID.TID 0000.0001)                 2.489156875000000E+05,      /* I =  7 */
(PID.TID 0000.0001)                 2.598324375000000E+05,      /* I =  8 */
(PID.TID 0000.0001)                 2.692809687500000E+05,      /* I =  9 */
(PID.TID 0000.0001)                 2.773987812500000E+05,      /* I = 10 */
(PID.TID 0000.0001)                 2.842717812500000E+05,      /* I = 11 */
(PID.TID 0000.0001)                 2.899530000000000E+05,      /* I = 12 */
(PID.TID 0000.0001)                 2.944745625000000E+05,      /* I = 13 */
(PID.TID 0000.0001)                 2.978549687500000E+05,      /* I = 14 */
(PID.TID 0000.0001)                 3.001044687500000E+05,      /* I = 15 */
(PID.TID 0000.0001)     2 @  3.012281875000000E+05,             /* I = 16: 17 */
(PID.TID 0000.0001)                 3.001044687500000E+05,      /* I = 18 */
(PID.TID 0000.0001)                 2.978549687500000E+05,      /* I = 19 */
(PID.TID 0000.0001)                 2.944745625000000E+05,      /* I = 20 */
(PID.TID 0000.0001)                 2.899530000000000E+05,      /* I = 21 */
(PID.TID 0000.0001)                 2.842717812500000E+05,      /* I = 22 */
(PID.TID 0000.0001)                 2.773987812500000E+05,      /* I = 23 */
(PID.TID 0000.0001)                 2.692809687500000E+05,      /* I = 24 */
(PID.TID 0000.0001)                 2.598324375000000E+05,      /* I = 25 */
(PID.TID 0000.0001)                 2.489156875000000E+05,      /* I = 26 */
(PID.TID 0000.0001)                 2.363090312500000E+05,      /* I = 27 */
(PID.TID 0000.0001)                 2.216456718750000E+05,      /* I = 28 */
(PID.TID 0000.0001)                 2.042856562500000E+05,      /* I = 29 */
(PID.TID 0000.0001)                 1.830023125000000E+05,      /* I = 30 */
(PID.TID 0000.0001)                 1.550106406250000E+05,      /* I = 31 */
(PID.TID 0000.0001)     2 @  1.116647109375000E+05,             /* I = 32: 33 */
(PID.TID 0000.0001)                 1.550106406250000E+05,      /* I = 34 */
(PID.TID 0000.0001)                 1.830023125000000E+05,      /* I = 35 */
(PID.TID 0000.0001)                 2.042856562500000E+05,      /* I = 36 */
(PID.TID 0000.0001)                 2.216456718750000E+05,      /* I = 37 */
(PID.TID 0000.0001)                 2.363090312500000E+05,      /* I = 38 */
(PID.TID 0000.0001)                 2.489156875000000E+05,      /* I = 39 */
(PID.TID 0000.0001)                 2.598324375000000E+05,      /* I = 40 */
(PID.TID 0000.0001)                 2.692809687500000E+05,      /* I = 41 */
(PID.TID 0000.0001)                 2.773987812500000E+05,      /* I = 42 */
(PID.TID 0000.0001)                 2.842717812500000E+05,      /* I = 43 */
(PID.TID 0000.0001)                 2.899530000000000E+05,      /* I = 44 */
(PID.TID 0000.0001)                 2.944745625000000E+05,      /* I = 45 */
(PID.TID 0000.0001)                 2.978549687500000E+05,      /* I = 46 */
(PID.TID 0000.0001)                 3.001044687500000E+05,      /* I = 47 */
(PID.TID 0000.0001)     2 @  3.012281875000000E+05,             /* I = 48: 49 */
(PID.TID 0000.0001)                 3.001044687500000E+05,      /* I = 50 */
(PID.TID 0000.0001)                 2.978549687500000E+05,      /* I = 51 */
(PID.TID 0000.0001)                 2.944745625000000E+05,      /* I = 52 */
(PID.TID 0000.0001)                 2.899530000000000E+05,      /* I = 53 */
(PID.TID 0000.0001)                 2.842717812500000E+05,      /* I = 54 */
(PID.TID 0000.0001)                 2.773987812500000E+05,      /* I = 55 */
(PID.TID 0000.0001)                 2.692809687500000E+05,      /* I = 56 */
(PID.TID 0000.0001)                 2.598324375000000E+05,      /* I = 57 */
(PID.TID 0000.0001)                 2.489156875000000E+05,      /* I = 58 */
(PID.TID 0000.0001)                 2.363090312500000E+05,      /* I = 59 */
(PID.TID 0000.0001)                 2.216456718750000E+05,      /* I = 60 */
(PID.TID 0000.0001)                 2.042856562500000E+05,      /* I = 61 */
(PID.TID 0000.0001)                 1.830023125000000E+05,      /* I = 62 */
(PID.TID 0000.0001)                 1.550106406250000E+05,      /* I = 63 */
(PID.TID 0000.0001)     2 @  1.116647109375000E+05,             /* I = 64: 65 */
(PID.TID 0000.0001)                 1.550106406250000E+05,      /* I = 66 */
(PID.TID 0000.0001)                 1.830023125000000E+05,      /* I = 67 */
(PID.TID 0000.0001)                 2.042856562500000E+05,      /* I = 68 */
(PID.TID 0000.0001)                 2.216456718750000E+05,      /* I = 69 */
(PID.TID 0000.0001)                 2.363090312500000E+05,      /* I = 70 */
(PID.TID 0000.0001)                 2.489156875000000E+05,      /* I = 71 */
(PID.TID 0000.0001)                 2.598324375000000E+05,      /* I = 72 */
(PID.TID 0000.0001)                 2.692809687500000E+05,      /* I = 73 */
(PID.TID 0000.0001)                 2.773987812500000E+05,      /* I = 74 */
(PID.TID 0000.0001)                 2.842717812500000E+05,      /* I = 75 */
(PID.TID 0000.0001)                 2.899530000000000E+05,      /* I = 76 */
(PID.TID 0000.0001)                 2.944745625000000E+05,      /* I = 77 */
(PID.TID 0000.0001)                 2.978549687500000E+05,      /* I = 78 */
(PID.TID 0000.0001)                 3.001044687500000E+05,      /* I = 79 */
(PID.TID 0000.0001)     2 @  3.012281875000000E+05,             /* I = 80: 81 */
(PID.TID 0000.0001)                 3.001044687500000E+05,      /* I = 82 */
(PID.TID 0000.0001)                 2.978549687500000E+05,      /* I = 83 */
(PID.TID 0000.0001)                 2.944745625000000E+05,      /* I = 84 */
(PID.TID 0000.0001)                 2.899530000000000E+05,      /* I = 85 */
(PID.TID 0000.0001)                 2.842717812500000E+05,      /* I = 86 */
(PID.TID 0000.0001)                 2.773987812500000E+05,      /* I = 87 */
(PID.TID 0000.0001)                 2.692809687500000E+05,      /* I = 88 */
(PID.TID 0000.0001)                 2.598324375000000E+05,      /* I = 89 */
(PID.TID 0000.0001)                 2.489156875000000E+05,      /* I = 90 */
(PID.TID 0000.0001)                 2.363090312500000E+05,      /* I = 91 */
(PID.TID 0000.0001)                 2.216456718750000E+05,      /* I = 92 */
(PID.TID 0000.0001)                 2.042856562500000E+05,      /* I = 93 */
(PID.TID 0000.0001)                 1.830023125000000E+05,      /* I = 94 */
(PID.TID 0000.0001)                 1.550106406250000E+05,      /* I = 95 */
(PID.TID 0000.0001)     2 @  1.116647109375000E+05,             /* I = 96: 97 */
(PID.TID 0000.0001)                 1.550106406250000E+05,      /* I = 98 */
(PID.TID 0000.0001)                 1.830023125000000E+05,      /* I = 99 */
(PID.TID 0000.0001)                 2.042856562500000E+05,      /* I =100 */
(PID.TID 0000.0001)                 2.216456718750000E+05,      /* I =101 */
(PID.TID 0000.0001)                 2.363090312500000E+05,      /* I =102 */
(PID.TID 0000.0001)                 2.489156875000000E+05,      /* I =103 */
(PID.TID 0000.0001)                 2.598324375000000E+05,      /* I =104 */
(PID.TID 0000.0001)                 2.692809687500000E+05,      /* I =105 */
(PID.TID 0000.0001)                 2.773987812500000E+05,      /* I =106 */
(PID.TID 0000.0001)                 2.842717812500000E+05,      /* I =107 */
(PID.TID 0000.0001)                 2.899530000000000E+05,      /* I =108 */
(PID.TID 0000.0001)                 2.944745625000000E+05,      /* I =109 */
(PID.TID 0000.0001)                 2.978549687500000E+05,      /* I =110 */
(PID.TID 0000.0001)                 3.001044687500000E+05,      /* I =111 */
(PID.TID 0000.0001)     2 @  3.012281875000000E+05,             /* I =112:113 */
(PID.TID 0000.0001)                 3.001044687500000E+05,      /* I =114 */
(PID.TID 0000.0001)                 2.978549687500000E+05,      /* I =115 */
(PID.TID 0000.0001)                 2.944745625000000E+05,      /* I =116 */
(PID.TID 0000.0001)                 2.899530000000000E+05,      /* I =117 */
(PID.TID 0000.0001)                 2.842717812500000E+05,      /* I =118 */
(PID.TID 0000.0001)                 2.773987812500000E+05,      /* I =119 */
(PID.TID 0000.0001)                 2.692809687500000E+05,      /* I =120 */
(PID.TID 0000.0001)                 2.598324375000000E+05,      /* I =121 */
(PID.TID 0000.0001)                 2.489156875000000E+05,      /* I =122 */
(PID.TID 0000.0001)                 2.363090312500000E+05,      /* I =123 */
(PID.TID 0000.0001)                 2.216456718750000E+05,      /* I =124 */
(PID.TID 0000.0001)                 2.042856562500000E+05,      /* I =125 */
(PID.TID 0000.0001)                 1.830023125000000E+05,      /* I =126 */
(PID.TID 0000.0001)                 1.550106406250000E+05,      /* I =127 */
(PID.TID 0000.0001)     2 @  1.116647109375000E+05,             /* I =128:129 */
(PID.TID 0000.0001)                 1.550106406250000E+05,      /* I =130 */
(PID.TID 0000.0001)                 1.830023125000000E+05,      /* I =131 */
(PID.TID 0000.0001)                 2.042856562500000E+05,      /* I =132 */
(PID.TID 0000.0001)                 2.216456718750000E+05,      /* I =133 */
(PID.TID 0000.0001)                 2.363090312500000E+05,      /* I =134 */
(PID.TID 0000.0001)                 2.489156875000000E+05,      /* I =135 */
(PID.TID 0000.0001)                 2.598324375000000E+05,      /* I =136 */
(PID.TID 0000.0001)                 2.692809687500000E+05,      /* I =137 */
(PID.TID 0000.0001)                 2.773987812500000E+05,      /* I =138 */
(PID.TID 0000.0001)                 2.842717812500000E+05,      /* I =139 */
(PID.TID 0000.0001)                 2.899530000000000E+05,      /* I =140 */
(PID.TID 0000.0001)                 2.944745625000000E+05,      /* I =141 */
(PID.TID 0000.0001)                 2.978549687500000E+05,      /* I =142 */
(PID.TID 0000.0001)                 3.001044687500000E+05,      /* I =143 */
(PID.TID 0000.0001)     2 @  3.012281875000000E+05,             /* I =144:145 */
(PID.TID 0000.0001)                 3.001044687500000E+05,      /* I =146 */
(PID.TID 0000.0001)                 2.978549687500000E+05,      /* I =147 */
(PID.TID 0000.0001)                 2.944745625000000E+05,      /* I =148 */
(PID.TID 0000.0001)                 2.899530000000000E+05,      /* I =149 */
(PID.TID 0000.0001)                 2.842717812500000E+05,      /* I =150 */
(PID.TID 0000.0001)                 2.773987812500000E+05,      /* I =151 */
(PID.TID 0000.0001)                 2.692809687500000E+05,      /* I =152 */
(PID.TID 0000.0001)                 2.598324375000000E+05,      /* I =153 */
(PID.TID 0000.0001)                 2.489156875000000E+05,      /* I =154 */
(PID.TID 0000.0001)                 2.363090312500000E+05,      /* I =155 */
(PID.TID 0000.0001)                 2.216456718750000E+05,      /* I =156 */
(PID.TID 0000.0001)                 2.042856562500000E+05,      /* I =157 */
(PID.TID 0000.0001)                 1.830023125000000E+05,      /* I =158 */
(PID.TID 0000.0001)                 1.550106406250000E+05,      /* I =159 */
(PID.TID 0000.0001)     2 @  1.116647109375000E+05,             /* I =160:161 */
(PID.TID 0000.0001)                 1.550106406250000E+05,      /* I =162 */
(PID.TID 0000.0001)                 1.830023125000000E+05,      /* I =163 */
(PID.TID 0000.0001)                 2.042856562500000E+05,      /* I =164 */
(PID.TID 0000.0001)                 2.216456718750000E+05,      /* I =165 */
(PID.TID 0000.0001)                 2.363090312500000E+05,      /* I =166 */
(PID.TID 0000.0001)                 2.489156875000000E+05,      /* I =167 */
(PID.TID 0000.0001)                 2.598324375000000E+05,      /* I =168 */
(PID.TID 0000.0001)                 2.692809687500000E+05,      /* I =169 */
(PID.TID 0000.0001)                 2.773987812500000E+05,      /* I =170 */
(PID.TID 0000.0001)                 2.842717812500000E+05,      /* I =171 */
(PID.TID 0000.0001)                 2.899530000000000E+05,      /* I =172 */
(PID.TID 0000.0001)                 2.944745625000000E+05,      /* I =173 */
(PID.TID 0000.0001)                 2.978549687500000E+05,      /* I =174 */
(PID.TID 0000.0001)                 3.001044687500000E+05,      /* I =175 */
(PID.TID 0000.0001)     2 @  3.012281875000000E+05,             /* I =176:177 */
(PID.TID 0000.0001)                 3.001044687500000E+05,      /* I =178 */
(PID.TID 0000.0001)                 2.978549687500000E+05,      /* I =179 */
(PID.TID 0000.0001)                 2.944745625000000E+05,      /* I =180 */
(PID.TID 0000.0001)                 2.899530000000000E+05,      /* I =181 */
(PID.TID 0000.0001)                 2.842717812500000E+05,      /* I =182 */
(PID.TID 0000.0001)                 2.773987812500000E+05,      /* I =183 */
(PID.TID 0000.0001)                 2.692809687500000E+05,      /* I =184 */
(PID.TID 0000.0001)                 2.598324375000000E+05,      /* I =185 */
(PID.TID 0000.0001)                 2.489156875000000E+05,      /* I =186 */
(PID.TID 0000.0001)                 2.363090312500000E+05,      /* I =187 */
(PID.TID 0000.0001)                 2.216456718750000E+05,      /* I =188 */
(PID.TID 0000.0001)                 2.042856562500000E+05,      /* I =189 */
(PID.TID 0000.0001)                 1.830023125000000E+05,      /* I =190 */
(PID.TID 0000.0001)                 1.550106406250000E+05,      /* I =191 */
(PID.TID 0000.0001)                 1.116647109375000E+05       /* I =192 */
(PID.TID 0000.0001)     ;
(PID.TID 0000.0001) dyC =  /* dyC(1,:,1,:) ( units: m ) */
(PID.TID 0000.0001)                 1.116647109375000E+05,      /* J =  1 */
(PID.TID 0000.0001)                 1.392485625000000E+05,      /* J =  2 */
(PID.TID 0000.0001)                 1.709683593750000E+05,      /* J =  3 */
(PID.TID 0000.0001)                 1.946528750000000E+05,      /* J =  4 */
(PID.TID 0000.0001)                 2.135973125000000E+05,      /* J =  5 */
(PID.TID 0000.0001)                 2.294199375000000E+05,      /* J =  6 */
(PID.TID 0000.0001)                 2.429466562500000E+05,      /* J =  7 */
(PID.TID 0000.0001)                 2.546409375000000E+05,      /* J =  8 */
(PID.TID 0000.0001)                 2.647792500000000E+05,      /* J =  9 */
(PID.TID 0000.0001)                 2.735322187500000E+05,      /* J = 10 */
(PID.TID 0000.0001)                 2.810066250000000E+05,      /* J = 11 */
(PID.TID 0000.0001)                 2.872689687500000E+05,      /* J = 12 */
(PID.TID 0000.0001)                 2.923600000000000E+05,      /* J = 13 */
(PID.TID 0000.0001)                 2.963039062500000E+05,      /* J = 14 */
(PID.TID 0000.0001)                 2.991142500000000E+05,      /* J = 15 */
(PID.TID 0000.0001)                 3.007982812500000E+05,      /* J = 16 */
(PID.TID 0000.0001)                 3.013594062500000E+05,      /* J = 17 */
(PID.TID 0000.0001)                 3.007982812500000E+05,      /* J = 18 */
(PID.TID 0000.0001)                 2.991142500000000E+05,      /* J = 19 */
(PID.TID 0000.0001)                 2.963039062500000E+05,      /* J = 20 */
(PID.TID 0000.0001)                 2.923600000000000E+05,      /* J = 21 */
(PID.TID 0000.0001)                 2.872689687500000E+05,      /* J = 22 */
(PID.TID 0000.0001)                 2.810066250000000E+05,      /* J = 23 */
(PID.TID 0000.0001)                 2.735322187500000E+05,      /* J = 24 */
(PID.TID 0000.0001)                 2.647792500000000E+05,      /* J = 25 */
(PID.TID 0000.0001)                 2.546409375000000E+05,      /* J = 26 */
(PID.TID 0000.0001)                 2.429466562500000E+05,      /* J = 27 */
(PID.TID 0000.0001)                 2.294199375000000E+05,      /* J = 28 */
(PID.TID 0000.0001)                 2.135973125000000E+05,      /* J = 29 */
(PID.TID 0000.0001)                 1.946528750000000E+05,      /* J = 30 */
(PID.TID 0000.0001)                 1.709683593750000E+05,      /* J = 31 */
(PID.TID 0000.0001)                 1.392485625000000E+05       /* J = 32 */
(PID.TID 0000.0001)     ;
(PID.TID 0000.0001) dxV =  /* dxV(:,1,:,1) ( units: m ) */
(PID.TID 0000.0001)                 8.015229687500000E+04,      /* I =  1 */
(PID.TID 0000.0001)                 1.333130781250000E+05,      /* I =  2 */
(PID.TID 0000.0001)                 1.691744843750000E+05,      /* I =  3 */
(PID.TID 0000.0001)                 1.937548125000000E+05,      /* I =  4 */
(PID.TID 0000.0001)                 2.130490000000000E+05,      /* I =  5 */
(PID.TID 0000.0001)                 2.290479843750000E+05,      /* I =  6 */
(PID.TID 0000.0001)                 2.426774375000000E+05,      /* I =  7 */
(PID.TID 0000.0001)                 2.544372968750000E+05,      /* I =  8 */
(PID.TID 0000.0001)                 2.646201562500000E+05,      /* I =  9 */
(PID.TID 0000.0001)                 2.734046562500000E+05,      /* I = 10 */
(PID.TID 0000.0001)                 2.809019375000000E+05,      /* I = 11 */
(PID.TID 0000.0001)                 2.871811250000000E+05,      /* I = 12 */
(PID.TID 0000.0001)                 2.922845000000000E+05,      /* I = 13 */
(PID.TID 0000.0001)                 2.962371875000000E+05,      /* I = 14 */
(PID.TID 0000.0001)                 2.990534687500000E+05,      /* I = 15 */
(PID.TID 0000.0001)                 3.007409062500000E+05,      /* I = 16 */
(PID.TID 0000.0001)                 3.013031562500000E+05,      /* I = 17 */
(PID.TID 0000.0001)                 3.007409062500000E+05,      /* I = 18 */
(PID.TID 0000.0001)                 2.990534687500000E+05,      /* I = 19 */
(PID.TID 0000.0001)                 2.962371875000000E+05,      /* I = 20 */
(PID.TID 0000.0001)                 2.922845000000000E+05,      /* I = 21 */
(PID.TID 0000.0001)                 2.871811250000000E+05,      /* I = 22 */
(PID.TID 0000.0001)                 2.809019375000000E+05,      /* I = 23 */
(PID.TID 0000.0001)                 2.734046562500000E+05,      /* I = 24 */
(PID.TID 0000.0001)                 2.646201562500000E+05,      /* I = 25 */
(PID.TID 0000.0001)                 2.544372968750000E+05,      /* I = 26 */
(PID.TID 0000.0001)                 2.426774375000000E+05,      /* I = 27 */
(PID.TID 0000.0001)                 2.290479843750000E+05,      /* I = 28 */
(PID.TID 0000.0001)                 2.130490000000000E+05,      /* I = 29 */
(PID.TID 0000.0001)                 1.937548125000000E+05,      /* I = 30 */
(PID.TID 0000.0001)                 1.691744843750000E+05,      /* I = 31 */
(PID.TID 0000.0001)                 1.333130781250000E+05,      /* I = 32 */
(PID.TID 0000.0001)                 8.015229687500000E+04,      /* I = 33 */
(PID.TID 0000.0001)                 1.333130781250000E+05,      /* I = 34 */
(PID.TID 0000.0001)                 1.691744843750000E+05,      /* I = 35 */
(PID.TID 0000.0001)                 1.937548125000000E+05,      /* I = 36 */
(PID.TID 0000.0001)                 2.130490000000000E+05,      /* I = 37 */
(PID.TID 0000.0001)                 2.290479843750000E+05,      /* I = 38 */
(PID.TID 0000.0001)                 2.426774375000000E+05,      /* I = 39 */
(PID.TID 0000.0001)                 2.544372968750000E+05,      /* I = 40 */
(PID.TID 0000.0001)                 2.646201562500000E+05,      /* I = 41 */
(PID.TID 0000.0001)                 2.734046562500000E+05,      /* I = 42 */
(PID.TID 0000.0001)                 2.809019375000000E+05,      /* I = 43 */
(PID.TID 0000.0001)                 2.871811250000000E+05,      /* I = 44 */
(PID.TID 0000.0001)                 2.922845000000000E+05,      /* I = 45 */
(PID.TID 0000.0001)                 2.962371875000000E+05,      /* I = 46 */
(PID.TID 0000.0001)                 2.990534687500000E+05,      /* I = 47 */
(PID.TID 0000.0001)                 3.007409062500000E+05,      /* I = 48 */
(PID.TID 0000.0001)                 3.013031562500000E+05,      /* I = 49 */
(PID.TID 0000.0001)                 3.007409062500000E+05,      /* I = 50 */
(PID.TID 0000.0001)                 2.990534687500000E+05,      /* I = 51 */
(PID.TID 0000.0001)                 2.962371875000000E+05,      /* I = 52 */
(PID.TID 0000.0001)                 2.922845000000000E+05,      /* I = 53 */
(PID.TID 0000.0001)                 2.871811250000000E+05,      /* I = 54 */
(PID.TID 0000.0001)                 2.809019375000000E+05,      /* I = 55 */
(PID.TID 0000.0001)                 2.734046562500000E+05,      /* I = 56 */
(PID.TID 0000.0001)                 2.646201562500000E+05,      /* I = 57 */
(PID.TID 0000.0001)                 2.544372968750000E+05,      /* I = 58 */
(PID.TID 0000.0001)                 2.426774375000000E+05,      /* I = 59 */
(PID.TID 0000.0001)                 2.290479843750000E+05,      /* I = 60 */
(PID.TID 0000.0001)                 2.130490000000000E+05,      /* I = 61 */
(PID.TID 0000.0001)                 1.937548125000000E+05,      /* I = 62 */
(PID.TID 0000.0001)                 1.691744843750000E+05,      /* I = 63 */
(PID.TID 0000.0001)                 1.333130781250000E+05,      /* I = 64 */
(PID.TID 0000.0001)                 8.015229687500000E+04,      /* I = 65 */
(PID.TID 0000.0001)                 1.333130781250000E+05,      /* I = 66 */
(PID.TID 0000.0001)                 1.691744843750000E+05,      /* I = 67 */
(PID.TID 0000.0001)                 1.937548125000000E+05,      /* I = 68 */
(PID.TID 0000.0001)                 2.130490000000000E+05,      /* I = 69 */
(PID.TID 0000.0001)                 2.290479843750000E+05,      /* I = 70 */
(PID.TID 0000.0001)                 2.426774375000000E+05,      /* I = 71 */
(PID.TID 0000.0001)                 2.544372968750000E+05,      /* I = 72 */
(PID.TID 0000.0001)                 2.646201562500000E+05,      /* I = 73 */
(PID.TID 0000.0001)                 2.734046562500000E+05,      /* I = 74 */
(PID.TID 0000.0001)                 2.809019375000000E+05,      /* I = 75 */
(PID.TID 0000.0001)                 2.871811250000000E+05,      /* I = 76 */
(PID.TID 0000.0001)                 2.922845000000000E+05,      /* I = 77 */
(PID.TID 0000.0001)                 2.962371875000000E+05,      /* I = 78 */
(PID.TID 0000.0001)                 2.990534687500000E+05,      /* I = 79 */
(PID.TID 0000.0001)                 3.007409062500000E+05,      /* I = 80 */
(PID.TID 0000.0001)                 3.013031562500000E+05,      /* I = 81 */
(PID.TID 0000.0001)                 3.007409062500000E+05,      /* I = 82 */
(PID.TID 0000.0001)                 2.990534687500000E+05,      /* I = 83 */
(PID.TID 0000.0001)                 2.962371875000000E+05,      /* I = 84 */
(PID.TID 0000.0001)                 2.922845000000000E+05,      /* I = 85 */
(PID.TID 0000.0001)                 2.871811250000000E+05,      /* I = 86 */
(PID.TID 0000.0001)                 2.809019375000000E+05,      /* I = 87 */
(PID.TID 0000.0001)                 2.734046562500000E+05,      /* I = 88 */
(PID.TID 0000.0001)                 2.646201562500000E+05,      /* I = 89 */
(PID.TID 0000.0001)                 2.544372968750000E+05,      /* I = 90 */
(PID.TID 0000.0001)                 2.426774375000000E+05,      /* I = 91 */
(PID.TID 0000.0001)                 2.290479843750000E+05,      /* I = 92 */
(PID.TID 0000.0001)                 2.130490000000000E+05,      /* I = 93 */
(PID.TID 0000.0001)                 1.937548125000000E+05,      /* I = 94 */
(PID.TID 0000.0001)                 1.691744843750000E+05,      /* I = 95 */
(PID.TID 0000.0001)                 1.333130781250000E+05,      /* I = 96 */
(PID.TID 0000.0001)                 8.015229687500000E+04,      /* I = 97 */
(PID.TID 0000.0001)                 1.333130781250000E+05,      /* I = 98 */
(PID.TID 0000.0001)                 1.691744843750000E+05,      /* I = 99 */
(PID.TID 0000.0001)                 1.937548125000000E+05,      /* I =100 */
(PID.TID 0000.0001)                 2.130490000000000E+05,      /* I =101 */
(PID.TID 0000.0001)                 2.290479843750000E+05,      /* I =102 */
(PID.TID 0000.0001)                 2.426774375000000E+05,      /* I =103 */
(PID.TID 0000.0001)                 2.544372968750000E+05,      /* I =104 */
(PID.TID 0000.0001)                 2.646201562500000E+05,      /* I =105 */
(PID.TID 0000.0001)                 2.734046562500000E+05,      /* I =106 */
(PID.TID 0000.0001)                 2.809019375000000E+05,      /* I =107 */
(PID.TID 0000.0001)                 2.871811250000000E+05,      /* I =108 */
(PID.TID 0000.0001)                 2.922845000000000E+05,      /* I =109 */
(PID.TID 0000.0001)                 2.962371875000000E+05,      /* I =110 */
(PID.TID 0000.0001)                 2.990534687500000E+05,      /* I =111 */
(PID.TID 0000.0001)                 3.007409062500000E+05,      /* I =112 */
(PID.TID 0000.0001)                 3.013031562500000E+05,      /* I =113 */
(PID.TID 0000.0001)                 3.007409062500000E+05,      /* I =114 */
(PID.TID 0000.0001)                 2.990534687500000E+05,      /* I =115 */
(PID.TID 0000.0001)                 2.962371875000000E+05,      /* I =116 */
(PID.TID 0000.0001)                 2.922845000000000E+05,      /* I =117 */
(PID.TID 0000.0001)                 2.871811250000000E+05,      /* I =118 */
(PID.TID 0000.0001)                 2.809019375000000E+05,      /* I =119 */
(PID.TID 0000.0001)                 2.734046562500000E+05,      /* I =120 */
(PID.TID 0000.0001)                 2.646201562500000E+05,      /* I =121 */
(PID.TID 0000.0001)                 2.544372968750000E+05,      /* I =122 */
(PID.TID 0000.0001)                 2.426774375000000E+05,      /* I =123 */
(PID.TID 0000.0001)                 2.290479843750000E+05,      /* I =124 */
(PID.TID 0000.0001)                 2.130490000000000E+05,      /* I =125 */
(PID.TID 0000.0001)                 1.937548125000000E+05,      /* I =126 */
(PID.TID 0000.0001)                 1.691744843750000E+05,      /* I =127 */
(PID.TID 0000.0001)                 1.333130781250000E+05,      /* I =128 */
(PID.TID 0000.0001)                 8.015229687500000E+04,      /* I =129 */
(PID.TID 0000.0001)                 1.333130781250000E+05,      /* I =130 */
(PID.TID 0000.0001)                 1.691744843750000E+05,      /* I =131 */
(PID.TID 0000.0001)                 1.937548125000000E+05,      /* I =132 */
(PID.TID 0000.0001)                 2.130490000000000E+05,      /* I =133 */
(PID.TID 0000.0001)                 2.290479843750000E+05,      /* I =134 */
(PID.TID 0000.0001)                 2.426774375000000E+05,      /* I =135 */
(PID.TID 0000.0001)                 2.544372968750000E+05,      /* I =136 */
(PID.TID 0000.0001)                 2.646201562500000E+05,      /* I =137 */
(PID.TID 0000.0001)                 2.734046562500000E+05,      /* I =138 */
(PID.TID 0000.0001)                 2.809019375000000E+05,      /* I =139 */
(PID.TID 0000.0001)                 2.871811250000000E+05,      /* I =140 */
(PID.TID 0000.0001)                 2.922845000000000E+05,      /* I =141 */
(PID.TID 0000.0001)                 2.962371875000000E+05,      /* I =142 */
(PID.TID 0000.0001)                 2.990534687500000E+05,      /* I =143 */
(PID.TID 0000.0001)                 3.007409062500000E+05,      /* I =144 */
(PID.TID 0000.0001)                 3.013031562500000E+05,      /* I =145 */
(PID.TID 0000.0001)                 3.007409062500000E+05,      /* I =146 */
(PID.TID 0000.0001)                 2.990534687500000E+05,      /* I =147 */
(PID.TID 0000.0001)                 2.962371875000000E+05,      /* I =148 */
(PID.TID 0000.0001)                 2.922845000000000E+05,      /* I =149 */
(PID.TID 0000.0001)                 2.871811250000000E+05,      /* I =150 */
(PID.TID 0000.0001)                 2.809019375000000E+05,      /* I =151 */
(PID.TID 0000.0001)                 2.734046562500000E+05,      /* I =152 */
(PID.TID 0000.0001)                 2.646201562500000E+05,      /* I =153 */
(PID.TID 0000.0001)                 2.544372968750000E+05,      /* I =154 */
(PID.TID 0000.0001)                 2.426774375000000E+05,      /* I =155 */
(PID.TID 0000.0001)                 2.290479843750000E+05,      /* I =156 */
(PID.TID 0000.0001)                 2.130490000000000E+05,      /* I =157 */
(PID.TID 0000.0001)                 1.937548125000000E+05,      /* I =158 */
(PID.TID 0000.0001)                 1.691744843750000E+05,      /* I =159 */
(PID.TID 0000.0001)                 1.333130781250000E+05,      /* I =160 */
(PID.TID 0000.0001)                 8.015229687500000E+04,      /* I =161 */
(PID.TID 0000.0001)                 1.333130781250000E+05,      /* I =162 */
(PID.TID 0000.0001)                 1.691744843750000E+05,      /* I =163 */
(PID.TID 0000.0001)                 1.937548125000000E+05,      /* I =164 */
(PID.TID 0000.0001)                 2.130490000000000E+05,      /* I =165 */
(PID.TID 0000.0001)                 2.290479843750000E+05,      /* I =166 */
(PID.TID 0000.0001)                 2.426774375000000E+05,      /* I =167 */
(PID.TID 0000.0001)                 2.544372968750000E+05,      /* I =168 */
(PID.TID 0000.0001)                 2.646201562500000E+05,      /* I =169 */
(PID.TID 0000.0001)                 2.734046562500000E+05,      /* I =170 */
(PID.TID 0000.0001)                 2.809019375000000E+05,      /* I =171 */
(PID.TID 0000.0001)                 2.871811250000000E+05,      /* I =172 */
(PID.TID 0000.0001)                 2.922845000000000E+05,      /* I =173 */
(PID.TID 0000.0001)                 2.962371875000000E+05,      /* I =174 */
(PID.TID 0000.0001)                 2.990534687500000E+05,      /* I =175 */
(PID.TID 0000.0001)                 3.007409062500000E+05,      /* I =176 */
(PID.TID 0000.0001)                 3.013031562500000E+05,      /* I =177 */
(PID.TID 0000.0001)                 3.007409062500000E+05,      /* I =178 */
(PID.TID 0000.0001)                 2.990534687500000E+05,      /* I =179 */
(PID.TID 0000.0001)                 2.962371875000000E+05,      /* I =180 */
(PID.TID 0000.0001)                 2.922845000000000E+05,      /* I =181 */
(PID.TID 0000.0001)                 2.871811250000000E+05,      /* I =182 */
(PID.TID 0000.0001)                 2.809019375000000E+05,      /* I =183 */
(PID.TID 0000.0001)                 2.734046562500000E+05,      /* I =184 */
(PID.TID 0000.0001)                 2.646201562500000E+05,      /* I =185 */
(PID.TID 0000.0001)                 2.544372968750000E+05,      /* I =186 */
(PID.TID 0000.0001)                 2.426774375000000E+05,      /* I =187 */
(PID.TID 0000.0001)                 2.290479843750000E+05,      /* I =188 */
(PID.TID 0000.0001)                 2.130490000000000E+05,      /* I =189 */
(PID.TID 0000.0001)                 1.937548125000000E+05,      /* I =190 */
(PID.TID 0000.0001)                 1.691744843750000E+05,      /* I =191 */
(PID.TID 0000.0001)                 1.333130781250000E+05       /* I =192 */
(PID.TID 0000.0001)     ;
(PID.TID 0000.0001) dxV =  /* dxV(1,:,1,:) ( units: m ) */
(PID.TID 0000.0001)                 8.015229687500000E+04,      /* J =  1 */
(PID.TID 0000.0001)                 1.363686562500000E+05,      /* J =  2 */
(PID.TID 0000.0001)                 1.701434531250000E+05,      /* J =  3 */
(PID.TID 0000.0001)                 1.942512343750000E+05,      /* J =  4 */
(PID.TID 0000.0001)                 2.133596562500000E+05,      /* J =  5 */
(PID.TID 0000.0001)                 2.292657656250000E+05,      /* J =  6 */
(PID.TID 0000.0001)                 2.428420937500000E+05,      /* J =  7 */
(PID.TID 0000.0001)                 2.545689531250000E+05,      /* J =  8 */
(PID.TID 0000.0001)                 2.647301250000000E+05,      /* J =  9 */
(PID.TID 0000.0001)                 2.734999062500000E+05,      /* J = 10 */
(PID.TID 0000.0001)                 2.809869687500000E+05,      /* J = 11 */
(PID.TID 0000.0001)                 2.872589687500000E+05,      /* J = 12 */
(PID.TID 0000.0001)                 2.923573437500000E+05,      /* J = 13 */
(PID.TID 0000.0001)                 2.963066250000000E+05,      /* J = 14 */
(PID.TID 0000.0001)                 2.991206875000000E+05,      /* J = 15 */
(PID.TID 0000.0001)                 3.008068750000000E+05,      /* J = 16 */
(PID.TID 0000.0001)                 3.013686250000000E+05,      /* J = 17 */
(PID.TID 0000.0001)                 3.008068750000000E+05,      /* J = 18 */
(PID.TID 0000.0001)                 2.991206875000000E+05,      /* J = 19 */
(PID.TID 0000.0001)                 2.963066250000000E+05,      /* J = 20 */
(PID.TID 0000.0001)                 2.923573437500000E+05,      /* J = 21 */
(PID.TID 0000.0001)                 2.872589687500000E+05,      /* J = 22 */
(PID.TID 0000.0001)                 2.809869687500000E+05,      /* J = 23 */
(PID.TID 0000.0001)                 2.734999062500000E+05,      /* J = 24 */
(PID.TID 0000.0001)                 2.647301250000000E+05,      /* J = 25 */
(PID.TID 0000.0001)                 2.545689531250000E+05,      /* J = 26 */
(PID.TID 0000.0001)                 2.428420937500000E+05,      /* J = 27 */
(PID.TID 0000.0001)                 2.292657656250000E+05,      /* J = 28 */
(PID.TID 0000.0001)                 2.133596562500000E+05,      /* J = 29 */
(PID.TID 0000.0001)                 1.942512343750000E+05,      /* J = 30 */
(PID.TID 0000.0001)                 1.701434531250000E+05,      /* J = 31 */
(PID.TID 0000.0001)                 1.363686562500000E+05       /* J = 32 */
(PID.TID 0000.0001)     ;
(PID.TID 0000.0001) dyU =  /* dyU(:,1,:,1) ( units: m ) */
(PID.TID 0000.0001)                 8.015229687500000E+04,      /* I =  1 */
(PID.TID 0000.0001)                 1.363686562500000E+05,      /* I =  2 */
(PID.TID 0000.0001)                 1.701434531250000E+05,      /* I =  3 */
(PID.TID 0000.0001)                 1.942512343750000E+05,      /* I =  4 */
(PID.TID 0000.0001)                 2.133596562500000E+05,      /* I =  5 */
(PID.TID 0000.0001)                 2.292657656250000E+05,      /* I =  6 */
(PID.TID 0000.0001)                 2.428420937500000E+05,      /* I =  7 */
(PID.TID 0000.0001)                 2.545689531250000E+05,      /* I =  8 */
(PID.TID 0000.0001)                 2.647301250000000E+05,      /* I =  9 */
(PID.TID 0000.0001)                 2.734999062500000E+05,      /* I = 10 */
(PID.TID 0000.0001)                 2.809869687500000E+05,      /* I = 11 */
(PID.TID 0000.0001)                 2.872589687500000E+05,      /* I = 12 */
(PID.TID 0000.0001)                 2.923573437500000E+05,      /* I = 13 */
(PID.TID 0000.0001)                 2.963066250000000E+05,      /* I = 14 */
(PID.TID 0000.0001)                 2.991206875000000E+05,      /* I = 15 */
(PID.TID 0000.0001)                 3.008068750000000E+05,      /* I = 16 */
(PID.TID 0000.0001)                 3.013686250000000E+05,      /* I = 17 */
(PID.TID 0000.0001)                 3.008068750000000E+05,      /* I = 18 */
(PID.TID 0000.0001)                 2.991206875000000E+05,      /* I = 19 */
(PID.TID 0000.0001)                 2.963066250000000E+05,      /* I = 20 */
(PID.TID 0000.0001)                 2.923573437500000E+05,      /* I = 21 */
(PID.TID 0000.0001)                 2.872589687500000E+05,      /* I = 22 */
(PID.TID 0000.0001)                 2.809869687500000E+05,      /* I = 23 */
(PID.TID 0000.0001)                 2.734999062500000E+05,      /* I = 24 */
(PID.TID 0000.0001)                 2.647301250000000E+05,      /* I = 25 */
(PID.TID 0000.0001)                 2.545689531250000E+05,      /* I = 26 */
(PID.TID 0000.0001)                 2.428420937500000E+05,      /* I = 27 */
(PID.TID 0000.0001)                 2.292657656250000E+05,      /* I = 28 */
(PID.TID 0000.0001)                 2.133596562500000E+05,      /* I = 29 */
(PID.TID 0000.0001)                 1.942512343750000E+05,      /* I = 30 */
(PID.TID 0000.0001)                 1.701434531250000E+05,      /* I = 31 */
(PID.TID 0000.0001)                 1.363686562500000E+05,      /* I = 32 */
(PID.TID 0000.0001)                 8.015229687500000E+04,      /* I = 33 */
(PID.TID 0000.0001)                 1.363686562500000E+05,      /* I = 34 */
(PID.TID 0000.0001)                 1.701434531250000E+05,      /* I = 35 */
(PID.TID 0000.0001)                 1.942512343750000E+05,      /* I = 36 */
(PID.TID 0000.0001)                 2.133596562500000E+05,      /* I = 37 */
(PID.TID 0000.0001)                 2.292657656250000E+05,      /* I = 38 */
(PID.TID 0000.0001)                 2.428420937500000E+05,      /* I = 39 */
(PID.TID 0000.0001)                 2.545689531250000E+05,      /* I = 40 */
(PID.TID 0000.0001)                 2.647301250000000E+05,      /* I = 41 */
(PID.TID 0000.0001)                 2.734999062500000E+05,      /* I = 42 */
(PID.TID 0000.0001)                 2.809869687500000E+05,      /* I = 43 */
(PID.TID 0000.0001)                 2.872589687500000E+05,      /* I = 44 */
(PID.TID 0000.0001)                 2.923573437500000E+05,      /* I = 45 */
(PID.TID 0000.0001)                 2.963066250000000E+05,      /* I = 46 */
(PID.TID 0000.0001)                 2.991206875000000E+05,      /* I = 47 */
(PID.TID 0000.0001)                 3.008068750000000E+05,      /* I = 48 */
(PID.TID 0000.0001)                 3.013686250000000E+05,      /* I = 49 */
(PID.TID 0000.0001)                 3.008068750000000E+05,      /* I = 50 */
(PID.TID 0000.0001)                 2.991206875000000E+05,      /* I = 51 */
(PID.TID 0000.0001)                 2.963066250000000E+05,      /* I = 52 */
(PID.TID 0000.0001)                 2.923573437500000E+05,      /* I = 53 */
(PID.TID 0000.0001)                 2.872589687500000E+05,      /* I = 54 */
(PID.TID 0000.0001)                 2.809869687500000E+05,      /* I = 55 */
(PID.TID 0000.0001)                 2.734999062500000E+05,      /* I = 56 */
(PID.TID 0000.0001)                 2.647301250000000E+05,      /* I = 57 */
(PID.TID 0000.0001)                 2.545689531250000E+05,      /* I = 58 */
(PID.TID 0000.0001)                 2.428420937500000E+05,      /* I = 59 */
(PID.TID 0000.0001)                 2.292657656250000E+05,      /* I = 60 */
(PID.TID 0000.0001)                 2.133596562500000E+05,      /* I = 61 */
(PID.TID 0000.0001)                 1.942512343750000E+05,      /* I = 62 */
(PID.TID 0000.0001)                 1.701434531250000E+05,      /* I = 63 */
(PID.TID 0000.0001)                 1.363686562500000E+05,      /* I = 64 */
(PID.TID 0000.0001)                 8.015229687500000E+04,      /* I = 65 */
(PID.TID 0000.0001)                 1.363686562500000E+05,      /* I = 66 */
(PID.TID 0000.0001)                 1.701434531250000E+05,      /* I = 67 */
(PID.TID 0000.0001)                 1.942512343750000E+05,      /* I = 68 */
(PID.TID 0000.0001)                 2.133596562500000E+05,      /* I = 69 */
(PID.TID 0000.0001)                 2.292657656250000E+05,      /* I = 70 */
(PID.TID 0000.0001)                 2.428420937500000E+05,      /* I = 71 */
(PID.TID 0000.0001)                 2.545689531250000E+05,      /* I = 72 */
(PID.TID 0000.0001)                 2.647301250000000E+05,      /* I = 73 */
(PID.TID 0000.0001)                 2.734999062500000E+05,      /* I = 74 */
(PID.TID 0000.0001)                 2.809869687500000E+05,      /* I = 75 */
(PID.TID 0000.0001)                 2.872589687500000E+05,      /* I = 76 */
(PID.TID 0000.0001)                 2.923573437500000E+05,      /* I = 77 */
(PID.TID 0000.0001)                 2.963066250000000E+05,      /* I = 78 */
(PID.TID 0000.0001)                 2.991206875000000E+05,      /* I = 79 */
(PID.TID 0000.0001)                 3.008068750000000E+05,      /* I = 80 */
(PID.TID 0000.0001)                 3.013686250000000E+05,      /* I = 81 */
(PID.TID 0000.0001)                 3.008068750000000E+05,      /* I = 82 */
(PID.TID 0000.0001)                 2.991206875000000E+05,      /* I = 83 */
(PID.TID 0000.0001)                 2.963066250000000E+05,      /* I = 84 */
(PID.TID 0000.0001)                 2.923573437500000E+05,      /* I = 85 */
(PID.TID 0000.0001)                 2.872589687500000E+05,      /* I = 86 */
(PID.TID 0000.0001)                 2.809869687500000E+05,      /* I = 87 */
(PID.TID 0000.0001)                 2.734999062500000E+05,      /* I = 88 */
(PID.TID 0000.0001)                 2.647301250000000E+05,      /* I = 89 */
(PID.TID 0000.0001)                 2.545689531250000E+05,      /* I = 90 */
(PID.TID 0000.0001)                 2.428420937500000E+05,      /* I = 91 */
(PID.TID 0000.0001)                 2.292657656250000E+05,      /* I = 92 */
(PID.TID 0000.0001)                 2.133596562500000E+05,      /* I = 93 */
(PID.TID 0000.0001)                 1.942512343750000E+05,      /* I = 94 */
(PID.TID 0000.0001)                 1.701434531250000E+05,      /* I = 95 */
(PID.TID 0000.0001)                 1.363686562500000E+05,      /* I = 96 */
(PID.TID 0000.0001)                 8.015229687500000E+04,      /* I = 97 */
(PID.TID 0000.0001)                 1.363686562500000E+05,      /* I = 98 */
(PID.TID 0000.0001)                 1.701434531250000E+05,      /* I = 99 */
(PID.TID 0000.0001)                 1.942512343750000E+05,      /* I =100 */
(PID.TID 0000.0001)                 2.133596562500000E+05,      /* I =101 */
(PID.TID 0000.0001)                 2.292657656250000E+05,      /* I =102 */
(PID.TID 0000.0001)                 2.428420937500000E+05,      /* I =103 */
(PID.TID 0000.0001)                 2.545689531250000E+05,      /* I =104 */
(PID.TID 0000.0001)                 2.647301250000000E+05,      /* I =105 */
(PID.TID 0000.0001)                 2.734999062500000E+05,      /* I =106 */
(PID.TID 0000.0001)                 2.809869687500000E+05,      /* I =107 */
(PID.TID 0000.0001)                 2.872589687500000E+05,      /* I =108 */
(PID.TID 0000.0001)                 2.923573437500000E+05,      /* I =109 */
(PID.TID 0000.0001)                 2.963066250000000E+05,      /* I =110 */
(PID.TID 0000.0001)                 2.991206875000000E+05,      /* I =111 */
(PID.TID 0000.0001)                 3.008068750000000E+05,      /* I =112 */
(PID.TID 0000.0001)                 3.013686250000000E+05,      /* I =113 */
(PID.TID 0000.0001)                 3.008068750000000E+05,      /* I =114 */
(PID.TID 0000.0001)                 2.991206875000000E+05,      /* I =115 */
(PID.TID 0000.0001)                 2.963066250000000E+05,      /* I =116 */
(PID.TID 0000.0001)                 2.923573437500000E+05,      /* I =117 */
(PID.TID 0000.0001)                 2.872589687500000E+05,      /* I =118 */
(PID.TID 0000.0001)                 2.809869687500000E+05,      /* I =119 */
(PID.TID 0000.0001)                 2.734999062500000E+05,      /* I =120 */
(PID.TID 0000.0001)                 2.647301250000000E+05,      /* I =121 */
(PID.TID 0000.0001)                 2.545689531250000E+05,      /* I =122 */
(PID.TID 0000.0001)                 2.428420937500000E+05,      /* I =123 */
(PID.TID 0000.0001)                 2.292657656250000E+05,      /* I =124 */
(PID.TID 0000.0001)                 2.133596562500000E+05,      /* I =125 */
(PID.TID 0000.0001)                 1.942512343750000E+05,      /* I =126 */
(PID.TID 0000.0001)                 1.701434531250000E+05,      /* I =127 */
(PID.TID 0000.0001)                 1.363686562500000E+05,      /* I =128 */
(PID.TID 0000.0001)                 8.015229687500000E+04,      /* I =129 */
(PID.TID 0000.0001)                 1.363686562500000E+05,      /* I =130 */
(PID.TID 0000.0001)                 1.701434531250000E+05,      /* I =131 */
(PID.TID 0000.0001)                 1.942512343750000E+05,      /* I =132 */
(PID.TID 0000.0001)                 2.133596562500000E+05,      /* I =133 */
(PID.TID 0000.0001)                 2.292657656250000E+05,      /* I =134 */
(PID.TID 0000.0001)                 2.428420937500000E+05,      /* I =135 */
(PID.TID 0000.0001)                 2.545689531250000E+05,      /* I =136 */
(PID.TID 0000.0001)                 2.647301250000000E+05,      /* I =137 */
(PID.TID 0000.0001)                 2.734999062500000E+05,      /* I =138 */
(PID.TID 0000.0001)                 2.809869687500000E+05,      /* I =139 */
(PID.TID 0000.0001)                 2.872589687500000E+05,      /* I =140 */
(PID.TID 0000.0001)                 2.923573437500000E+05,      /* I =141 */
(PID.TID 0000.0001)                 2.963066250000000E+05,      /* I =142 */
(PID.TID 0000.0001)                 2.991206875000000E+05,      /* I =143 */
(PID.TID 0000.0001)                 3.008068750000000E+05,      /* I =144 */
(PID.TID 0000.0001)                 3.013686250000000E+05,      /* I =145 */
(PID.TID 0000.0001)                 3.008068750000000E+05,      /* I =146 */
(PID.TID 0000.0001)                 2.991206875000000E+05,      /* I =147 */
(PID.TID 0000.0001)                 2.963066250000000E+05,      /* I =148 */
(PID.TID 0000.0001)                 2.923573437500000E+05,      /* I =149 */
(PID.TID 0000.0001)                 2.872589687500000E+05,      /* I =150 */
(PID.TID 0000.0001)                 2.809869687500000E+05,      /* I =151 */
(PID.TID 0000.0001)                 2.734999062500000E+05,      /* I =152 */
(PID.TID 0000.0001)                 2.647301250000000E+05,      /* I =153 */
(PID.TID 0000.0001)                 2.545689531250000E+05,      /* I =154 */
(PID.TID 0000.0001)                 2.428420937500000E+05,      /* I =155 */
(PID.TID 0000.0001)                 2.292657656250000E+05,      /* I =156 */
(PID.TID 0000.0001)                 2.133596562500000E+05,      /* I =157 */
(PID.TID 0000.0001)                 1.942512343750000E+05,      /* I =158 */
(PID.TID 0000.0001)                 1.701434531250000E+05,      /* I =159 */
(PID.TID 0000.0001)                 1.363686562500000E+05,      /* I =160 */
(PID.TID 0000.0001)                 8.015229687500000E+04,      /* I =161 */
(PID.TID 0000.0001)                 1.363686562500000E+05,      /* I =162 */
(PID.TID 0000.0001)                 1.701434531250000E+05,      /* I =163 */
(PID.TID 0000.0001)                 1.942512343750000E+05,      /* I =164 */
(PID.TID 0000.0001)                 2.133596562500000E+05,      /* I =165 */
(PID.TID 0000.0001)                 2.292657656250000E+05,      /* I =166 */
(PID.TID 0000.0001)                 2.428420937500000E+05,      /* I =167 */
(PID.TID 0000.0001)                 2.545689531250000E+05,      /* I =168 */
(PID.TID 0000.0001)                 2.647301250000000E+05,      /* I =169 */
(PID.TID 0000.0001)                 2.734999062500000E+05,      /* I =170 */
(PID.TID 0000.0001)                 2.809869687500000E+05,      /* I =171 */
(PID.TID 0000.0001)                 2.872589687500000E+05,      /* I =172 */
(PID.TID 0000.0001)                 2.923573437500000E+05,      /* I =173 */
(PID.TID 0000.0001)                 2.963066250000000E+05,      /* I =174 */
(PID.TID 0000.0001)                 2.991206875000000E+05,      /* I =175 */
(PID.TID 0000.0001)                 3.008068750000000E+05,      /* I =176 */
(PID.TID 0000.0001)                 3.013686250000000E+05,      /* I =177 */
(PID.TID 0000.0001)                 3.008068750000000E+05,      /* I =178 */
(PID.TID 0000.0001)                 2.991206875000000E+05,      /* I =179 */
(PID.TID 0000.0001)                 2.963066250000000E+05,      /* I =180 */
(PID.TID 0000.0001)                 2.923573437500000E+05,      /* I =181 */
(PID.TID 0000.0001)                 2.872589687500000E+05,      /* I =182 */
(PID.TID 0000.0001)                 2.809869687500000E+05,      /* I =183 */
(PID.TID 0000.0001)                 2.734999062500000E+05,      /* I =184 */
(PID.TID 0000.0001)                 2.647301250000000E+05,      /* I =185 */
(PID.TID 0000.0001)                 2.545689531250000E+05,      /* I =186 */
(PID.TID 0000.0001)                 2.428420937500000E+05,      /* I =187 */
(PID.TID 0000.0001)                 2.292657656250000E+05,      /* I =188 */
(PID.TID 0000.0001)                 2.133596562500000E+05,      /* I =189 */
(PID.TID 0000.0001)                 1.942512343750000E+05,      /* I =190 */
(PID.TID 0000.0001)                 1.701434531250000E+05,      /* I =191 */
(PID.TID 0000.0001)                 1.363686562500000E+05       /* I =192 */
(PID.TID 0000.0001)     ;
(PID.TID 0000.0001) dyU =  /* dyU(1,:,1,:) ( units: m ) */
(PID.TID 0000.0001)                 8.015229687500000E+04,      /* J =  1 */
(PID.TID 0000.0001)                 1.333130781250000E+05,      /* J =  2 */
(PID.TID 0000.0001)                 1.691744843750000E+05,      /* J =  3 */
(PID.TID 0000.0001)                 1.937548125000000E+05,      /* J =  4 */
(PID.TID 0000.0001)                 2.130490000000000E+05,      /* J =  5 */
(PID.TID 0000.0001)                 2.290479843750000E+05,      /* J =  6 */
(PID.TID 0000.0001)                 2.426774375000000E+05,      /* J =  7 */
(PID.TID 0000.0001)                 2.544372968750000E+05,      /* J =  8 */
(PID.TID 0000.0001)                 2.646201562500000E+05,      /* J =  9 */
(PID.TID 0000.0001)                 2.734046562500000E+05,      /* J = 10 */
(PID.TID 0000.0001)                 2.809019375000000E+05,      /* J = 11 */
(PID.TID 0000.0001)                 2.871811250000000E+05,      /* J = 12 */
(PID.TID 0000.0001)                 2.922845000000000E+05,      /* J = 13 */
(PID.TID 0000.0001)                 2.962371875000000E+05,      /* J = 14 */
(PID.TID 0000.0001)                 2.990534687500000E+05,      /* J = 15 */
(PID.TID 0000.0001)                 3.007409062500000E+05,      /* J = 16 */
(PID.TID 0000.0001)                 3.013031562500000E+05,      /* J = 17 */
(PID.TID 0000.0001)                 3.007409062500000E+05,      /* J = 18 */
(PID.TID 0000.0001)                 2.990534687500000E+05,      /* J = 19 */
(PID.TID 0000.0001)                 2.962371875000000E+05,      /* J = 20 */
(PID.TID 0000.0001)                 2.922845000000000E+05,      /* J = 21 */
(PID.TID 0000.0001)                 2.871811250000000E+05,      /* J = 22 */
(PID.TID 0000.0001)                 2.809019375000000E+05,      /* J = 23 */
(PID.TID 0000.0001)                 2.734046562500000E+05,      /* J = 24 */
(PID.TID 0000.0001)                 2.646201562500000E+05,      /* J = 25 */
(PID.TID 0000.0001)                 2.544372968750000E+05,      /* J = 26 */
(PID.TID 0000.0001)                 2.426774375000000E+05,      /* J = 27 */
(PID.TID 0000.0001)                 2.290479843750000E+05,      /* J = 28 */
(PID.TID 0000.0001)                 2.130490000000000E+05,      /* J = 29 */
(PID.TID 0000.0001)                 1.937548125000000E+05,      /* J = 30 */
(PID.TID 0000.0001)                 1.691744843750000E+05,      /* J = 31 */
(PID.TID 0000.0001)                 1.333130781250000E+05       /* J = 32 */
(PID.TID 0000.0001)     ;
(PID.TID 0000.0001) rA  =  /* rA (:,1,:,1) ( units: m^2 ) */
(PID.TID 0000.0001)                 1.483193753600000E+10,      /* I =  1 */
(PID.TID 0000.0001)                 2.476789350400000E+10,      /* I =  2 */
(PID.TID 0000.0001)                 3.387112448000000E+10,      /* I =  3 */
(PID.TID 0000.0001)                 4.197302681600000E+10,      /* I =  4 */
(PID.TID 0000.0001)                 4.929378304000000E+10,      /* I =  5 */
(PID.TID 0000.0001)                 5.596406988800000E+10,      /* I =  6 */
(PID.TID 0000.0001)                 6.205077094400000E+10,      /* I =  7 */
(PID.TID 0000.0001)                 6.758266880000000E+10,      /* I =  8 */
(PID.TID 0000.0001)                 7.256535859200000E+10,      /* I =  9 */
(PID.TID 0000.0001)                 7.699024281600000E+10,      /* I = 10 */
(PID.TID 0000.0001)                 8.084038451200000E+10,      /* I = 11 */
(PID.TID 0000.0001)                 8.409466470400000E+10,      /* I = 12 */
(PID.TID 0000.0001)                 8.673102233600000E+10,      /* I = 13 */
(PID.TID 0000.0001)                 8.872885452800000E+10,      /* I = 14 */
(PID.TID 0000.0001)                 9.007103180800000E+10,      /* I = 15 */
(PID.TID 0000.0001)     2 @  9.074531532800000E+10,             /* I = 16: 17 */
(PID.TID 0000.0001)                 9.007103180800000E+10,      /* I = 18 */
(PID.TID 0000.0001)                 8.872885452800000E+10,      /* I = 19 */
(PID.TID 0000.0001)                 8.673102233600000E+10,      /* I = 20 */
(PID.TID 0000.0001)                 8.409466470400000E+10,      /* I = 21 */
(PID.TID 0000.0001)                 8.084038451200000E+10,      /* I = 22 */
(PID.TID 0000.0001)                 7.699024281600000E+10,      /* I = 23 */
(PID.TID 0000.0001)                 7.256535859200000E+10,      /* I = 24 */
(PID.TID 0000.0001)                 6.758266880000000E+10,      /* I = 25 */
(PID.TID 0000.0001)                 6.205077094400000E+10,      /* I = 26 */
(PID.TID 0000.0001)                 5.596406988800000E+10,      /* I = 27 */
(PID.TID 0000.0001)                 4.929378304000000E+10,      /* I = 28 */
(PID.TID 0000.0001)                 4.197302681600000E+10,      /* I = 29 */
(PID.TID 0000.0001)                 3.387112448000000E+10,      /* I = 30 */
(PID.TID 0000.0001)                 2.476789350400000E+10,      /* I = 31 */
(PID.TID 0000.0001)     2 @  1.483193753600000E+10,             /* I = 32: 33 */
(PID.TID 0000.0001)                 2.476789350400000E+10,      /* I = 34 */
(PID.TID 0000.0001)                 3.387112448000000E+10,      /* I = 35 */
(PID.TID 0000.0001)                 4.197302681600000E+10,      /* I = 36 */
(PID.TID 0000.0001)                 4.929378304000000E+10,      /* I = 37 */
(PID.TID 0000.0001)                 5.596406988800000E+10,      /* I = 38 */
(PID.TID 0000.0001)                 6.205077094400000E+10,      /* I = 39 */
(PID.TID 0000.0001)                 6.758266880000000E+10,      /* I = 40 */
(PID.TID 0000.0001)                 7.256535859200000E+10,      /* I = 41 */
(PID.TID 0000.0001)                 7.699024281600000E+10,      /* I = 42 */
(PID.TID 0000.0001)                 8.084038451200000E+10,      /* I = 43 */
(PID.TID 0000.0001)                 8.409466470400000E+10,      /* I = 44 */
(PID.TID 0000.0001)                 8.673102233600000E+10,      /* I = 45 */
(PID.TID 0000.0001)                 8.872885452800000E+10,      /* I = 46 */
(PID.TID 0000.0001)                 9.007103180800000E+10,      /* I = 47 */
(PID.TID 0000.0001)     2 @  9.074531532800000E+10,             /* I = 48: 49 */
(PID.TID 0000.0001)                 9.007103180800000E+10,      /* I = 50 */
(PID.TID 0000.0001)                 8.872885452800000E+10,      /* I = 51 */
(PID.TID 0000.0001)                 8.673102233600000E+10,      /* I = 52 */
(PID.TID 0000.0001)                 8.409466470400000E+10,      /* I = 53 */
(PID.TID 0000.0001)                 8.084038451200000E+10,      /* I = 54 */
(PID.TID 0000.0001)                 7.699024281600000E+10,      /* I = 55 */
(PID.TID 0000.0001)                 7.256535859200000E+10,      /* I = 56 */
(PID.TID 0000.0001)                 6.758266880000000E+10,      /* I = 57 */
(PID.TID 0000.0001)                 6.205077094400000E+10,      /* I = 58 */
(PID.TID 0000.0001)                 5.596406988800000E+10,      /* I = 59 */
(PID.TID 0000.0001)                 4.929378304000000E+10,      /* I = 60 */
(PID.TID 0000.0001)                 4.197302681600000E+10,      /* I = 61 */
(PID.TID 0000.0001)                 3.387112448000000E+10,      /* I = 62 */
(PID.TID 0000.0001)                 2.476789350400000E+10,      /* I = 63 */
(PID.TID 0000.0001)     2 @  1.483193753600000E+10,             /* I = 64: 65 */
(PID.TID 0000.0001)                 2.476789350400000E+10,      /* I = 66 */
(PID.TID 0000.0001)                 3.387112448000000E+10,      /* I = 67 */
(PID.TID 0000.0001)                 4.197302681600000E+10,      /* I = 68 */
(PID.TID 0000.0001)                 4.929378304000000E+10,      /* I = 69 */
(PID.TID 0000.0001)                 5.596406988800000E+10,      /* I = 70 */
(PID.TID 0000.0001)                 6.205077094400000E+10,      /* I = 71 */
(PID.TID 0000.0001)                 6.758266880000000E+10,      /* I = 72 */
(PID.TID 0000.0001)                 7.256535859200000E+10,      /* I = 73 */
(PID.TID 0000.0001)                 7.699024281600000E+10,      /* I = 74 */
(PID.TID 0000.0001)                 8.084038451200000E+10,      /* I = 75 */
(PID.TID 0000.0001)                 8.409466470400000E+10,      /* I = 76 */
(PID.TID 0000.0001)                 8.673102233600000E+10,      /* I = 77 */
(PID.TID 0000.0001)                 8.872885452800000E+10,      /* I = 78 */
(PID.TID 0000.0001)                 9.007103180800000E+10,      /* I = 79 */
(PID.TID 0000.0001)     2 @  9.074531532800000E+10,             /* I = 80: 81 */
(PID.TID 0000.0001)                 9.007103180800000E+10,      /* I = 82 */
(PID.TID 0000.0001)                 8.872885452800000E+10,      /* I = 83 */
(PID.TID 0000.0001)                 8.673102233600000E+10,      /* I = 84 */
(PID.TID 0000.0001)                 8.409466470400000E+10,      /* I = 85 */
(PID.TID 0000.0001)                 8.084038451200000E+10,      /* I = 86 */
(PID.TID 0000.0001)                 7.699024281600000E+10,      /* I = 87 */
(PID.TID 0000.0001)                 7.256535859200000E+10,      /* I = 88 */
(PID.TID 0000.0001)                 6.758266880000000E+10,      /* I = 89 */
(PID.TID 0000.0001)                 6.205077094400000E+10,      /* I = 90 */
(PID.TID 0000.0001)                 5.596406988800000E+10,      /* I = 91 */
(PID.TID 0000.0001)                 4.929378304000000E+10,      /* I = 92 */
(PID.TID 0000.0001)                 4.197302681600000E+10,      /* I = 93 */
(PID.TID 0000.0001)                 3.387112448000000E+10,      /* I = 94 */
(PID.TID 0000.0001)                 2.476789350400000E+10,      /* I = 95 */
(PID.TID 0000.0001)     2 @  1.483193753600000E+10,             /* I = 96: 97 */
(PID.TID 0000.0001)                 2.476789350400000E+10,      /* I = 98 */
(PID.TID 0000.0001)                 3.387112448000000E+10,      /* I = 99 */
(PID.TID 0000.0001)                 4.197302681600000E+10,      /* I =100 */
(PID.TID 0000.0001)                 4.929378304000000E+10,      /* I =101 */
(PID.TID 0000.0001)                 5.596406988800000E+10,      /* I =102 */
(PID.TID 0000.0001)                 6.205077094400000E+10,      /* I =103 */
(PID.TID 0000.0001)                 6.758266880000000E+10,      /* I =104 */
(PID.TID 0000.0001)                 7.256535859200000E+10,      /* I =105 */
(PID.TID 0000.0001)                 7.699024281600000E+10,      /* I =106 */
(PID.TID 0000.0001)                 8.084038451200000E+10,      /* I =107 */
(PID.TID 0000.0001)                 8.409466470400000E+10,      /* I =108 */
(PID.TID 0000.0001)                 8.673102233600000E+10,      /* I =109 */
(PID.TID 0000.0001)                 8.872885452800000E+10,      /* I =110 */
(PID.TID 0000.0001)                 9.007103180800000E+10,      /* I =111 */
(PID.TID 0000.0001)     2 @  9.074531532800000E+10,             /* I =112:113 */
(PID.TID 0000.0001)                 9.007103180800000E+10,      /* I =114 */
(PID.TID 0000.0001)                 8.872885452800000E+10,      /* I =115 */
(PID.TID 0000.0001)                 8.673102233600000E+10,      /* I =116 */
(PID.TID 0000.0001)                 8.409466470400000E+10,      /* I =117 */
(PID.TID 0000.0001)                 8.084038451200000E+10,      /* I =118 */
(PID.TID 0000.0001)                 7.699024281600000E+10,      /* I =119 */
(PID.TID 0000.0001)                 7.256535859200000E+10,      /* I =120 */
(PID.TID 0000.0001)                 6.758266880000000E+10,      /* I =121 */
(PID.TID 0000.0001)                 6.205077094400000E+10,      /* I =122 */
(PID.TID 0000.0001)                 5.596406988800000E+10,      /* I =123 */
(PID.TID 0000.0001)                 4.929378304000000E+10,      /* I =124 */
(PID.TID 0000.0001)                 4.197302681600000E+10,      /* I =125 */
(PID.TID 0000.0001)                 3.387112448000000E+10,      /* I =126 */
(PID.TID 0000.0001)                 2.476789350400000E+10,      /* I =127 */
(PID.TID 0000.0001)     2 @  1.483193753600000E+10,             /* I =128:129 */
(PID.TID 0000.0001)                 2.476789350400000E+10,      /* I =130 */
(PID.TID 0000.0001)                 3.387112448000000E+10,      /* I =131 */
(PID.TID 0000.0001)                 4.197302681600000E+10,      /* I =132 */
(PID.TID 0000.0001)                 4.929378304000000E+10,      /* I =133 */
(PID.TID 0000.0001)                 5.596406988800000E+10,      /* I =134 */
(PID.TID 0000.0001)                 6.205077094400000E+10,      /* I =135 */
(PID.TID 0000.0001)                 6.758266880000000E+10,      /* I =136 */
(PID.TID 0000.0001)                 7.256535859200000E+10,      /* I =137 */
(PID.TID 0000.0001)                 7.699024281600000E+10,      /* I =138 */
(PID.TID 0000.0001)                 8.084038451200000E+10,      /* I =139 */
(PID.TID 0000.0001)                 8.409466470400000E+10,      /* I =140 */
(PID.TID 0000.0001)                 8.673102233600000E+10,      /* I =141 */
(PID.TID 0000.0001)                 8.872885452800000E+10,      /* I =142 */
(PID.TID 0000.0001)                 9.007103180800000E+10,      /* I =143 */
(PID.TID 0000.0001)     2 @  9.074531532800000E+10,             /* I =144:145 */
(PID.TID 0000.0001)                 9.007103180800000E+10,      /* I =146 */
(PID.TID 0000.0001)                 8.872885452800000E+10,      /* I =147 */
(PID.TID 0000.0001)                 8.673102233600000E+10,      /* I =148 */
(PID.TID 0000.0001)                 8.409466470400000E+10,      /* I =149 */
(PID.TID 0000.0001)                 8.084038451200000E+10,      /* I =150 */
(PID.TID 0000.0001)                 7.699024281600000E+10,      /* I =151 */
(PID.TID 0000.0001)                 7.256535859200000E+10,      /* I =152 */
(PID.TID 0000.0001)                 6.758266880000000E+10,      /* I =153 */
(PID.TID 0000.0001)                 6.205077094400000E+10,      /* I =154 */
(PID.TID 0000.0001)                 5.596406988800000E+10,      /* I =155 */
(PID.TID 0000.0001)                 4.929378304000000E+10,      /* I =156 */
(PID.TID 0000.0001)                 4.197302681600000E+10,      /* I =157 */
(PID.TID 0000.0001)                 3.387112448000000E+10,      /* I =158 */
(PID.TID 0000.0001)                 2.476789350400000E+10,      /* I =159 */
(PID.TID 0000.0001)     2 @  1.483193753600000E+10,             /* I =160:161 */
(PID.TID 0000.0001)                 2.476789350400000E+10,      /* I =162 */
(PID.TID 0000.0001)                 3.387112448000000E+10,      /* I =163 */
(PID.TID 0000.0001)                 4.197302681600000E+10,      /* I =164 */
(PID.TID 0000.0001)                 4.929378304000000E+10,      /* I =165 */
(PID.TID 0000.0001)                 5.596406988800000E+10,      /* I =166 */
(PID.TID 0000.0001)                 6.205077094400000E+10,      /* I =167 */
(PID.TID 0000.0001)                 6.758266880000000E+10,      /* I =168 */
(PID.TID 0000.0001)                 7.256535859200000E+10,      /* I =169 */
(PID.TID 0000.0001)                 7.699024281600000E+10,      /* I =170 */
(PID.TID 0000.0001)                 8.084038451200000E+10,      /* I =171 */
(PID.TID 0000.0001)                 8.409466470400000E+10,      /* I =172 */
(PID.TID 0000.0001)                 8.673102233600000E+10,      /* I =173 */
(PID.TID 0000.0001)                 8.872885452800000E+10,      /* I =174 */
(PID.TID 0000.0001)                 9.007103180800000E+10,      /* I =175 */
(PID.TID 0000.0001)     2 @  9.074531532800000E+10,             /* I =176:177 */
(PID.TID 0000.0001)                 9.007103180800000E+10,      /* I =178 */
(PID.TID 0000.0001)                 8.872885452800000E+10,      /* I =179 */
(PID.TID 0000.0001)                 8.673102233600000E+10,      /* I =180 */
(PID.TID 0000.0001)                 8.409466470400000E+10,      /* I =181 */
(PID.TID 0000.0001)                 8.084038451200000E+10,      /* I =182 */
(PID.TID 0000.0001)                 7.699024281600000E+10,      /* I =183 */
(PID.TID 0000.0001)                 7.256535859200000E+10,      /* I =184 */
(PID.TID 0000.0001)                 6.758266880000000E+10,      /* I =185 */
(PID.TID 0000.0001)                 6.205077094400000E+10,      /* I =186 */
(PID.TID 0000.0001)                 5.596406988800000E+10,      /* I =187 */
(PID.TID 0000.0001)                 4.929378304000000E+10,      /* I =188 */
(PID.TID 0000.0001)                 4.197302681600000E+10,      /* I =189 */
(PID.TID 0000.0001)                 3.387112448000000E+10,      /* I =190 */
(PID.TID 0000.0001)                 2.476789350400000E+10,      /* I =191 */
(PID.TID 0000.0001)                 1.483193753600000E+10       /* I =192 */
(PID.TID 0000.0001)     ;
(PID.TID 0000.0001) rA  =  /* rA (1,:,1,:) ( units: m^2 ) */
(PID.TID 0000.0001)                 1.483193753600000E+10,      /* J =  1 */
(PID.TID 0000.0001)                 2.476789350400000E+10,      /* J =  2 */
(PID.TID 0000.0001)                 3.387112448000000E+10,      /* J =  3 */
(PID.TID 0000.0001)                 4.197302681600000E+10,      /* J =  4 */
(PID.TID 0000.0001)                 4.929378304000000E+10,      /* J =  5 */
(PID.TID 0000.0001)                 5.596406988800000E+10,      /* J =  6 */
(PID.TID 0000.0001)                 6.205077094400000E+10,      /* J =  7 */
(PID.TID 0000.0001)                 6.758266880000000E+10,      /* J =  8 */
(PID.TID 0000.0001)                 7.256535859200000E+10,      /* J =  9 */
(PID.TID 0000.0001)                 7.699024281600000E+10,      /* J = 10 */
(PID.TID 0000.0001)                 8.084038451200000E+10,      /* J = 11 */
(PID.TID 0000.0001)                 8.409466470400000E+10,      /* J = 12 */
(PID.TID 0000.0001)                 8.673102233600000E+10,      /* J = 13 */
(PID.TID 0000.0001)                 8.872885452800000E+10,      /* J = 14 */
(PID.TID 0000.0001)                 9.007103180800000E+10,      /* J = 15 */
(PID.TID 0000.0001)     2 @  9.074531532800000E+10,             /* J = 16: 17 */
(PID.TID 0000.0001)                 9.007103180800000E+10,      /* J = 18 */
(PID.TID 0000.0001)                 8.872885452800000E+10,      /* J = 19 */
(PID.TID 0000.0001)                 8.673102233600000E+10,      /* J = 20 */
(PID.TID 0000.0001)                 8.409466470400000E+10,      /* J = 21 */
(PID.TID 0000.0001)                 8.084038451200000E+10,      /* J = 22 */
(PID.TID 0000.0001)                 7.699024281600000E+10,      /* J = 23 */
(PID.TID 0000.0001)                 7.256535859200000E+10,      /* J = 24 */
(PID.TID 0000.0001)                 6.758266880000000E+10,      /* J = 25 */
(PID.TID 0000.0001)                 6.205077094400000E+10,      /* J = 26 */
(PID.TID 0000.0001)                 5.596406988800000E+10,      /* J = 27 */
(PID.TID 0000.0001)                 4.929378304000000E+10,      /* J = 28 */
(PID.TID 0000.0001)                 4.197302681600000E+10,      /* J = 29 */
(PID.TID 0000.0001)                 3.387112448000000E+10,      /* J = 30 */
(PID.TID 0000.0001)                 2.476789350400000E+10,      /* J = 31 */
(PID.TID 0000.0001)                 1.483193753600000E+10       /* J = 32 */
(PID.TID 0000.0001)     ;
(PID.TID 0000.0001) rAw =  /* rAw(:,1,:,1) ( units: m^2 ) */
(PID.TID 0000.0001)                 1.241518080000000E+10,      /* I =  1 */
(PID.TID 0000.0001)                 1.979783987200000E+10,      /* I =  2 */
(PID.TID 0000.0001)                 2.946081587200000E+10,      /* I =  3 */
(PID.TID 0000.0001)                 3.803135180800000E+10,      /* I =  4 */
(PID.TID 0000.0001)                 4.572098969600000E+10,      /* I =  5 */
(PID.TID 0000.0001)                 5.270492774400000E+10,      /* I =  6 */
(PID.TID 0000.0001)                 5.907789004800000E+10,      /* I =  7 */
(PID.TID 0000.0001)                 6.488530124800000E+10,      /* I =  8 */
(PID.TID 0000.0001)                 7.014295142400000E+10,      /* I =  9 */
(PID.TID 0000.0001)                 7.484845260800000E+10,      /* I = 10 */
(PID.TID 0000.0001)                 7.898841907200000E+10,      /* I = 11 */
(PID.TID 0000.0001)                 8.254339481600000E+10,      /* I = 12 */
(PID.TID 0000.0001)                 8.549143347200000E+10,      /* I = 13 */
(PID.TID 0000.0001)                 8.781092454400000E+10,      /* I = 14 */
(PID.TID 0000.0001)                 8.948279705600000E+10,      /* I = 15 */
(PID.TID 0000.0001)                 9.049219891200000E+10,      /* I = 16 */
(PID.TID 0000.0001)                 9.082975846400000E+10,      /* I = 17 */
(PID.TID 0000.0001)                 9.049219891200000E+10,      /* I = 18 */
(PID.TID 0000.0001)                 8.948279705600000E+10,      /* I = 19 */
(PID.TID 0000.0001)                 8.781092454400000E+10,      /* I = 20 */
(PID.TID 0000.0001)                 8.549143347200000E+10,      /* I = 21 */
(PID.TID 0000.0001)                 8.254339481600000E+10,      /* I = 22 */
(PID.TID 0000.0001)                 7.898841907200000E+10,      /* I = 23 */
(PID.TID 0000.0001)                 7.484845260800000E+10,      /* I = 24 */
(PID.TID 0000.0001)                 7.014295142400000E+10,      /* I = 25 */
(PID.TID 0000.0001)                 6.488530124800000E+10,      /* I = 26 */
(PID.TID 0000.0001)                 5.907789004800000E+10,      /* I = 27 */
(PID.TID 0000.0001)                 5.270492774400000E+10,      /* I = 28 */
(PID.TID 0000.0001)                 4.572098969600000E+10,      /* I = 29 */
(PID.TID 0000.0001)                 3.803135180800000E+10,      /* I = 30 */
(PID.TID 0000.0001)                 2.946081587200000E+10,      /* I = 31 */
(PID.TID 0000.0001)                 1.979783987200000E+10,      /* I = 32 */
(PID.TID 0000.0001)                 1.241518080000000E+10,      /* I = 33 */
(PID.TID 0000.0001)                 1.979783987200000E+10,      /* I = 34 */
(PID.TID 0000.0001)                 2.946081587200000E+10,      /* I = 35 */
(PID.TID 0000.0001)                 3.803135180800000E+10,      /* I = 36 */
(PID.TID 0000.0001)                 4.572098969600000E+10,      /* I = 37 */
(PID.TID 0000.0001)                 5.270492774400000E+10,      /* I = 38 */
(PID.TID 0000.0001)                 5.907789004800000E+10,      /* I = 39 */
(PID.TID 0000.0001)                 6.488530124800000E+10,      /* I = 40 */
(PID.TID 0000.0001)                 7.014295142400000E+10,      /* I = 41 */
(PID.TID 0000.0001)                 7.484845260800000E+10,      /* I = 42 */
(PID.TID 0000.0001)                 7.898841907200000E+10,      /* I = 43 */
(PID.TID 0000.0001)                 8.254339481600000E+10,      /* I = 44 */
(PID.TID 0000.0001)                 8.549143347200000E+10,      /* I = 45 */
(PID.TID 0000.0001)                 8.781092454400000E+10,      /* I = 46 */
(PID.TID 0000.0001)                 8.948279705600000E+10,      /* I = 47 */
(PID.TID 0000.0001)                 9.049219891200000E+10,      /* I = 48 */
(PID.TID 0000.0001)                 9.082975846400000E+10,      /* I = 49 */
(PID.TID 0000.0001)                 9.049219891200000E+10,      /* I = 50 */
(PID.TID 0000.0001)                 8.948279705600000E+10,      /* I = 51 */
(PID.TID 0000.0001)                 8.781092454400000E+10,      /* I = 52 */
(PID.TID 0000.0001)                 8.549143347200000E+10,      /* I = 53 */
(PID.TID 0000.0001)                 8.254339481600000E+10,      /* I = 54 */
(PID.TID 0000.0001)                 7.898841907200000E+10,      /* I = 55 */
(PID.TID 0000.0001)                 7.484845260800000E+10,      /* I = 56 */
(PID.TID 0000.0001)                 7.014295142400000E+10,      /* I = 57 */
(PID.TID 0000.0001)                 6.488530124800000E+10,      /* I = 58 */
(PID.TID 0000.0001)                 5.907789004800000E+10,      /* I = 59 */
(PID.TID 0000.0001)                 5.270492774400000E+10,      /* I = 60 */
(PID.TID 0000.0001)                 4.572098969600000E+10,      /* I = 61 */
(PID.TID 0000.0001)                 3.803135180800000E+10,      /* I = 62 */
(PID.TID 0000.0001)                 2.946081587200000E+10,      /* I = 63 */
(PID.TID 0000.0001)                 1.979783987200000E+10,      /* I = 64 */
(PID.TID 0000.0001)                 1.241518080000000E+10,      /* I = 65 */
(PID.TID 0000.0001)                 1.979783987200000E+10,      /* I = 66 */
(PID.TID 0000.0001)                 2.946081587200000E+10,      /* I = 67 */
(PID.TID 0000.0001)                 3.803135180800000E+10,      /* I = 68 */
(PID.TID 0000.0001)                 4.572098969600000E+10,      /* I = 69 */
(PID.TID 0000.0001)                 5.270492774400000E+10,      /* I = 70 */
(PID.TID 0000.0001)                 5.907789004800000E+10,      /* I = 71 */
(PID.TID 0000.0001)                 6.488530124800000E+10,      /* I = 72 */
(PID.TID 0000.0001)                 7.014295142400000E+10,      /* I = 73 */
(PID.TID 0000.0001)                 7.484845260800000E+10,      /* I = 74 */
(PID.TID 0000.0001)                 7.898841907200000E+10,      /* I = 75 */
(PID.TID 0000.0001)                 8.254339481600000E+10,      /* I = 76 */
(PID.TID 0000.0001)                 8.549143347200000E+10,      /* I = 77 */
(PID.TID 0000.0001)                 8.781092454400000E+10,      /* I = 78 */
(PID.TID 0000.0001)                 8.948279705600000E+10,      /* I = 79 */
(PID.TID 0000.0001)                 9.049219891200000E+10,      /* I = 80 */
(PID.TID 0000.0001)                 9.082975846400000E+10,      /* I = 81 */
(PID.TID 0000.0001)                 9.049219891200000E+10,      /* I = 82 */
(PID.TID 0000.0001)                 8.948279705600000E+10,      /* I = 83 */
(PID.TID 0000.0001)                 8.781092454400000E+10,      /* I = 84 */
(PID.TID 0000.0001)                 8.549143347200000E+10,      /* I = 85 */
(PID.TID 0000.0001)                 8.254339481600000E+10,      /* I = 86 */
(PID.TID 0000.0001)                 7.898841907200000E+10,      /* I = 87 */
(PID.TID 0000.0001)                 7.484845260800000E+10,      /* I = 88 */
(PID.TID 0000.0001)                 7.014295142400000E+10,      /* I = 89 */
(PID.TID 0000.0001)                 6.488530124800000E+10,      /* I = 90 */
(PID.TID 0000.0001)                 5.907789004800000E+10,      /* I = 91 */
(PID.TID 0000.0001)                 5.270492774400000E+10,      /* I = 92 */
(PID.TID 0000.0001)                 4.572098969600000E+10,      /* I = 93 */
(PID.TID 0000.0001)                 3.803135180800000E+10,      /* I = 94 */
(PID.TID 0000.0001)                 2.946081587200000E+10,      /* I = 95 */
(PID.TID 0000.0001)                 1.979783987200000E+10,      /* I = 96 */
(PID.TID 0000.0001)                 1.241518080000000E+10,      /* I = 97 */
(PID.TID 0000.0001)                 1.979783987200000E+10,      /* I = 98 */
(PID.TID 0000.0001)                 2.946081587200000E+10,      /* I = 99 */
(PID.TID 0000.0001)                 3.803135180800000E+10,      /* I =100 */
(PID.TID 0000.0001)                 4.572098969600000E+10,      /* I =101 */
(PID.TID 0000.0001)                 5.270492774400000E+10,      /* I =102 */
(PID.TID 0000.0001)                 5.907789004800000E+10,      /* I =103 */
(PID.TID 0000.0001)                 6.488530124800000E+10,      /* I =104 */
(PID.TID 0000.0001)                 7.014295142400000E+10,      /* I =105 */
(PID.TID 0000.0001)                 7.484845260800000E+10,      /* I =106 */
(PID.TID 0000.0001)                 7.898841907200000E+10,      /* I =107 */
(PID.TID 0000.0001)                 8.254339481600000E+10,      /* I =108 */
(PID.TID 0000.0001)                 8.549143347200000E+10,      /* I =109 */
(PID.TID 0000.0001)                 8.781092454400000E+10,      /* I =110 */
(PID.TID 0000.0001)                 8.948279705600000E+10,      /* I =111 */
(PID.TID 0000.0001)                 9.049219891200000E+10,      /* I =112 */
(PID.TID 0000.0001)                 9.082975846400000E+10,      /* I =113 */
(PID.TID 0000.0001)                 9.049219891200000E+10,      /* I =114 */
(PID.TID 0000.0001)                 8.948279705600000E+10,      /* I =115 */
(PID.TID 0000.0001)                 8.781092454400000E+10,      /* I =116 */
(PID.TID 0000.0001)                 8.549143347200000E+10,      /* I =117 */
(PID.TID 0000.0001)                 8.254339481600000E+10,      /* I =118 */
(PID.TID 0000.0001)                 7.898841907200000E+10,      /* I =119 */
(PID.TID 0000.0001)                 7.484845260800000E+10,      /* I =120 */
(PID.TID 0000.0001)                 7.014295142400000E+10,      /* I =121 */
(PID.TID 0000.0001)                 6.488530124800000E+10,      /* I =122 */
(PID.TID 0000.0001)                 5.907789004800000E+10,      /* I =123 */
(PID.TID 0000.0001)                 5.270492774400000E+10,      /* I =124 */
(PID.TID 0000.0001)                 4.572098969600000E+10,      /* I =125 */
(PID.TID 0000.0001)                 3.803135180800000E+10,      /* I =126 */
(PID.TID 0000.0001)                 2.946081587200000E+10,      /* I =127 */
(PID.TID 0000.0001)                 1.979783987200000E+10,      /* I =128 */
(PID.TID 0000.0001)                 1.241518080000000E+10,      /* I =129 */
(PID.TID 0000.0001)                 1.979783987200000E+10,      /* I =130 */
(PID.TID 0000.0001)                 2.946081587200000E+10,      /* I =131 */
(PID.TID 0000.0001)                 3.803135180800000E+10,      /* I =132 */
(PID.TID 0000.0001)                 4.572098969600000E+10,      /* I =133 */
(PID.TID 0000.0001)                 5.270492774400000E+10,      /* I =134 */
(PID.TID 0000.0001)                 5.907789004800000E+10,      /* I =135 */
(PID.TID 0000.0001)                 6.488530124800000E+10,      /* I =136 */
(PID.TID 0000.0001)                 7.014295142400000E+10,      /* I =137 */
(PID.TID 0000.0001)                 7.484845260800000E+10,      /* I =138 */
(PID.TID 0000.0001)                 7.898841907200000E+10,      /* I =139 */
(PID.TID 0000.0001)                 8.254339481600000E+10,      /* I =140 */
(PID.TID 0000.0001)                 8.549143347200000E+10,      /* I =141 */
(PID.TID 0000.0001)                 8.781092454400000E+10,      /* I =142 */
(PID.TID 0000.0001)                 8.948279705600000E+10,      /* I =143 */
(PID.TID 0000.0001)                 9.049219891200000E+10,      /* I =144 */
(PID.TID 0000.0001)                 9.082975846400000E+10,      /* I =145 */
(PID.TID 0000.0001)                 9.049219891200000E+10,      /* I =146 */
(PID.TID 0000.0001)                 8.948279705600000E+10,      /* I =147 */
(PID.TID 0000.0001)                 8.781092454400000E+10,      /* I =148 */
(PID.TID 0000.0001)                 8.549143347200000E+10,      /* I =149 */
(PID.TID 0000.0001)                 8.254339481600000E+10,      /* I =150 */
(PID.TID 0000.0001)                 7.898841907200000E+10,      /* I =151 */
(PID.TID 0000.0001)                 7.484845260800000E+10,      /* I =152 */
(PID.TID 0000.0001)                 7.014295142400000E+10,      /* I =153 */
(PID.TID 0000.0001)                 6.488530124800000E+10,      /* I =154 */
(PID.TID 0000.0001)                 5.907789004800000E+10,      /* I =155 */
(PID.TID 0000.0001)                 5.270492774400000E+10,      /* I =156 */
(PID.TID 0000.0001)                 4.572098969600000E+10,      /* I =157 */
(PID.TID 0000.0001)                 3.803135180800000E+10,      /* I =158 */
(PID.TID 0000.0001)                 2.946081587200000E+10,      /* I =159 */
(PID.TID 0000.0001)                 1.979783987200000E+10,      /* I =160 */
(PID.TID 0000.0001)                 1.241518080000000E+10,      /* I =161 */
(PID.TID 0000.0001)                 1.979783987200000E+10,      /* I =162 */
(PID.TID 0000.0001)                 2.946081587200000E+10,      /* I =163 */
(PID.TID 0000.0001)                 3.803135180800000E+10,      /* I =164 */
(PID.TID 0000.0001)                 4.572098969600000E+10,      /* I =165 */
(PID.TID 0000.0001)                 5.270492774400000E+10,      /* I =166 */
(PID.TID 0000.0001)                 5.907789004800000E+10,      /* I =167 */
(PID.TID 0000.0001)                 6.488530124800000E+10,      /* I =168 */
(PID.TID 0000.0001)                 7.014295142400000E+10,      /* I =169 */
(PID.TID 0000.0001)                 7.484845260800000E+10,      /* I =170 */
(PID.TID 0000.0001)                 7.898841907200000E+10,      /* I =171 */
(PID.TID 0000.0001)                 8.254339481600000E+10,      /* I =172 */
(PID.TID 0000.0001)                 8.549143347200000E+10,      /* I =173 */
(PID.TID 0000.0001)                 8.781092454400000E+10,      /* I =174 */
(PID.TID 0000.0001)                 8.948279705600000E+10,      /* I =175 */
(PID.TID 0000.0001)                 9.049219891200000E+10,      /* I =176 */
(PID.TID 0000.0001)                 9.082975846400000E+10,      /* I =177 */
(PID.TID 0000.0001)                 9.049219891200000E+10,      /* I =178 */
(PID.TID 0000.0001)                 8.948279705600000E+10,      /* I =179 */
(PID.TID 0000.0001)                 8.781092454400000E+10,      /* I =180 */
(PID.TID 0000.0001)                 8.549143347200000E+10,      /* I =181 */
(PID.TID 0000.0001)                 8.254339481600000E+10,      /* I =182 */
(PID.TID 0000.0001)                 7.898841907200000E+10,      /* I =183 */
(PID.TID 0000.0001)                 7.484845260800000E+10,      /* I =184 */
(PID.TID 0000.0001)                 7.014295142400000E+10,      /* I =185 */
(PID.TID 0000.0001)                 6.488530124800000E+10,      /* I =186 */
(PID.TID 0000.0001)                 5.907789004800000E+10,      /* I =187 */
(PID.TID 0000.0001)                 5.270492774400000E+10,      /* I =188 */
(PID.TID 0000.0001)                 4.572098969600000E+10,      /* I =189 */
(PID.TID 0000.0001)                 3.803135180800000E+10,      /* I =190 */
(PID.TID 0000.0001)                 2.946081587200000E+10,      /* I =191 */
(PID.TID 0000.0001)                 1.979783987200000E+10       /* I =192 */
(PID.TID 0000.0001)     ;
(PID.TID 0000.0001) rAw =  /* rAw(1,:,1,:) ( units: m^2 ) */
(PID.TID 0000.0001)                 1.241518080000000E+10,      /* J =  1 */
(PID.TID 0000.0001)                 2.393793945600000E+10,      /* J =  2 */
(PID.TID 0000.0001)                 3.343760998400000E+10,      /* J =  3 */
(PID.TID 0000.0001)                 4.169613312000000E+10,      /* J =  4 */
(PID.TID 0000.0001)                 4.909775257600000E+10,      /* J =  5 */
(PID.TID 0000.0001)                 5.581660979200000E+10,      /* J =  6 */
(PID.TID 0000.0001)                 6.193540300800000E+10,      /* J =  7 */
(PID.TID 0000.0001)                 6.748988211200000E+10,      /* J =  8 */
(PID.TID 0000.0001)                 7.248914022400000E+10,      /* J =  9 */
(PID.TID 0000.0001)                 7.692650905600000E+10,      /* J = 10 */
(PID.TID 0000.0001)                 8.078616166400000E+10,      /* J = 11 */
(PID.TID 0000.0001)                 8.404769177600000E+10,      /* J = 12 */
(PID.TID 0000.0001)                 8.668945612800000E+10,      /* J = 13 */
(PID.TID 0000.0001)                 8.869115494400000E+10,      /* J = 14 */
(PID.TID 0000.0001)                 9.003581440000000E+10,      /* J = 15 */
(PID.TID 0000.0001)     2 @  9.071131852800000E+10,             /* J = 16: 17 */
(PID.TID 0000.0001)                 9.003581440000000E+10,      /* J = 18 */
(PID.TID 0000.0001)                 8.869115494400000E+10,      /* J = 19 */
(PID.TID 0000.0001)                 8.668945612800000E+10,      /* J = 20 */
(PID.TID 0000.0001)                 8.404769177600000E+10,      /* J = 21 */
(PID.TID 0000.0001)                 8.078616166400000E+10,      /* J = 22 */
(PID.TID 0000.0001)                 7.692650905600000E+10,      /* J = 23 */
(PID.TID 0000.0001)                 7.248914022400000E+10,      /* J = 24 */
(PID.TID 0000.0001)                 6.748988211200000E+10,      /* J = 25 */
(PID.TID 0000.0001)                 6.193540300800000E+10,      /* J = 26 */
(PID.TID 0000.0001)                 5.581660979200000E+10,      /* J = 27 */
(PID.TID 0000.0001)                 4.909775257600000E+10,      /* J = 28 */
(PID.TID 0000.0001)                 4.169613312000000E+10,      /* J = 29 */
(PID.TID 0000.0001)                 3.343760998400000E+10,      /* J = 30 */
(PID.TID 0000.0001)                 2.393793945600000E+10,      /* J = 31 */
(PID.TID 0000.0001)                 1.241518080000000E+10       /* J = 32 */
(PID.TID 0000.0001)     ;
(PID.TID 0000.0001) rAs =  /* rAs(:,1,:,1) ( units: m^2 ) */
(PID.TID 0000.0001)                 1.241518080000000E+10,      /* I =  1 */
(PID.TID 0000.0001)                 2.393793945600000E+10,      /* I =  2 */
(PID.TID 0000.0001)                 3.343760998400000E+10,      /* I =  3 */
(PID.TID 0000.0001)                 4.169613312000000E+10,      /* I =  4 */
(PID.TID 0000.0001)                 4.909775257600000E+10,      /* I =  5 */
(PID.TID 0000.0001)                 5.581660979200000E+10,      /* I =  6 */
(PID.TID 0000.0001)                 6.193540300800000E+10,      /* I =  7 */
(PID.TID 0000.0001)                 6.748988211200000E+10,      /* I =  8 */
(PID.TID 0000.0001)                 7.248914022400000E+10,      /* I =  9 */
(PID.TID 0000.0001)                 7.692650905600000E+10,      /* I = 10 */
(PID.TID 0000.0001)                 8.078616166400000E+10,      /* I = 11 */
(PID.TID 0000.0001)                 8.404769177600000E+10,      /* I = 12 */
(PID.TID 0000.0001)                 8.668945612800000E+10,      /* I = 13 */
(PID.TID 0000.0001)                 8.869115494400000E+10,      /* I = 14 */
(PID.TID 0000.0001)                 9.003581440000000E+10,      /* I = 15 */
(PID.TID 0000.0001)     2 @  9.071131852800000E+10,             /* I = 16: 17 */
(PID.TID 0000.0001)                 9.003581440000000E+10,      /* I = 18 */
(PID.TID 0000.0001)                 8.869115494400000E+10,      /* I = 19 */
(PID.TID 0000.0001)                 8.668945612800000E+10,      /* I = 20 */
(PID.TID 0000.0001)                 8.404769177600000E+10,      /* I = 21 */
(PID.TID 0000.0001)                 8.078616166400000E+10,      /* I = 22 */
(PID.TID 0000.0001)                 7.692650905600000E+10,      /* I = 23 */
(PID.TID 0000.0001)                 7.248914022400000E+10,      /* I = 24 */
(PID.TID 0000.0001)                 6.748988211200000E+10,      /* I = 25 */
(PID.TID 0000.0001)                 6.193540300800000E+10,      /* I = 26 */
(PID.TID 0000.0001)                 5.581660979200000E+10,      /* I = 27 */
(PID.TID 0000.0001)                 4.909775257600000E+10,      /* I = 28 */
(PID.TID 0000.0001)                 4.169613312000000E+10,      /* I = 29 */
(PID.TID 0000.0001)                 3.343760998400000E+10,      /* I = 30 */
(PID.TID 0000.0001)                 2.393793945600000E+10,      /* I = 31 */
(PID.TID 0000.0001)     2 @  1.241518080000000E+10,             /* I = 32: 33 */
(PID.TID 0000.0001)                 2.393793945600000E+10,      /* I = 34 */
(PID.TID 0000.0001)                 3.343760998400000E+10,      /* I = 35 */
(PID.TID 0000.0001)                 4.169613312000000E+10,      /* I = 36 */
(PID.TID 0000.0001)                 4.909775257600000E+10,      /* I = 37 */
(PID.TID 0000.0001)                 5.581660979200000E+10,      /* I = 38 */
(PID.TID 0000.0001)                 6.193540300800000E+10,      /* I = 39 */
(PID.TID 0000.0001)                 6.748988211200000E+10,      /* I = 40 */
(PID.TID 0000.0001)                 7.248914022400000E+10,      /* I = 41 */
(PID.TID 0000.0001)                 7.692650905600000E+10,      /* I = 42 */
(PID.TID 0000.0001)                 8.078616166400000E+10,      /* I = 43 */
(PID.TID 0000.0001)                 8.404769177600000E+10,      /* I = 44 */
(PID.TID 0000.0001)                 8.668945612800000E+10,      /* I = 45 */
(PID.TID 0000.0001)                 8.869115494400000E+10,      /* I = 46 */
(PID.TID 0000.0001)                 9.003581440000000E+10,      /* I = 47 */
(PID.TID 0000.0001)     2 @  9.071131852800000E+10,             /* I = 48: 49 */
(PID.TID 0000.0001)                 9.003581440000000E+10,      /* I = 50 */
(PID.TID 0000.0001)                 8.869115494400000E+10,      /* I = 51 */
(PID.TID 0000.0001)                 8.668945612800000E+10,      /* I = 52 */
(PID.TID 0000.0001)                 8.404769177600000E+10,      /* I = 53 */
(PID.TID 0000.0001)                 8.078616166400000E+10,      /* I = 54 */
(PID.TID 0000.0001)                 7.692650905600000E+10,      /* I = 55 */
(PID.TID 0000.0001)                 7.248914022400000E+10,      /* I = 56 */
(PID.TID 0000.0001)                 6.748988211200000E+10,      /* I = 57 */
(PID.TID 0000.0001)                 6.193540300800000E+10,      /* I = 58 */
(PID.TID 0000.0001)                 5.581660979200000E+10,      /* I = 59 */
(PID.TID 0000.0001)                 4.909775257600000E+10,      /* I = 60 */
(PID.TID 0000.0001)                 4.169613312000000E+10,      /* I = 61 */
(PID.TID 0000.0001)                 3.343760998400000E+10,      /* I = 62 */
(PID.TID 0000.0001)                 2.393793945600000E+10,      /* I = 63 */
(PID.TID 0000.0001)     2 @  1.241518080000000E+10,             /* I = 64: 65 */
(PID.TID 0000.0001)                 2.393793945600000E+10,      /* I = 66 */
(PID.TID 0000.0001)                 3.343760998400000E+10,      /* I = 67 */
(PID.TID 0000.0001)                 4.169613312000000E+10,      /* I = 68 */
(PID.TID 0000.0001)                 4.909775257600000E+10,      /* I = 69 */
(PID.TID 0000.0001)                 5.581660979200000E+10,      /* I = 70 */
(PID.TID 0000.0001)                 6.193540300800000E+10,      /* I = 71 */
(PID.TID 0000.0001)                 6.748988211200000E+10,      /* I = 72 */
(PID.TID 0000.0001)                 7.248914022400000E+10,      /* I = 73 */
(PID.TID 0000.0001)                 7.692650905600000E+10,      /* I = 74 */
(PID.TID 0000.0001)                 8.078616166400000E+10,      /* I = 75 */
(PID.TID 0000.0001)                 8.404769177600000E+10,      /* I = 76 */
(PID.TID 0000.0001)                 8.668945612800000E+10,      /* I = 77 */
(PID.TID 0000.0001)                 8.869115494400000E+10,      /* I = 78 */
(PID.TID 0000.0001)                 9.003581440000000E+10,      /* I = 79 */
(PID.TID 0000.0001)     2 @  9.071131852800000E+10,             /* I = 80: 81 */
(PID.TID 0000.0001)                 9.003581440000000E+10,      /* I = 82 */
(PID.TID 0000.0001)                 8.869115494400000E+10,      /* I = 83 */
(PID.TID 0000.0001)                 8.668945612800000E+10,      /* I = 84 */
(PID.TID 0000.0001)                 8.404769177600000E+10,      /* I = 85 */
(PID.TID 0000.0001)                 8.078616166400000E+10,      /* I = 86 */
(PID.TID 0000.0001)                 7.692650905600000E+10,      /* I = 87 */
(PID.TID 0000.0001)                 7.248914022400000E+10,      /* I = 88 */
(PID.TID 0000.0001)                 6.748988211200000E+10,      /* I = 89 */
(PID.TID 0000.0001)                 6.193540300800000E+10,      /* I = 90 */
(PID.TID 0000.0001)                 5.581660979200000E+10,      /* I = 91 */
(PID.TID 0000.0001)                 4.909775257600000E+10,      /* I = 92 */
(PID.TID 0000.0001)                 4.169613312000000E+10,      /* I = 93 */
(PID.TID 0000.0001)                 3.343760998400000E+10,      /* I = 94 */
(PID.TID 0000.0001)                 2.393793945600000E+10,      /* I = 95 */
(PID.TID 0000.0001)     2 @  1.241518080000000E+10,             /* I = 96: 97 */
(PID.TID 0000.0001)                 2.393793945600000E+10,      /* I = 98 */
(PID.TID 0000.0001)                 3.343760998400000E+10,      /* I = 99 */
(PID.TID 0000.0001)                 4.169613312000000E+10,      /* I =100 */
(PID.TID 0000.0001)                 4.909775257600000E+10,      /* I =101 */
(PID.TID 0000.0001)                 5.581660979200000E+10,      /* I =102 */
(PID.TID 0000.0001)                 6.193540300800000E+10,      /* I =103 */
(PID.TID 0000.0001)                 6.748988211200000E+10,      /* I =104 */
(PID.TID 0000.0001)                 7.248914022400000E+10,      /* I =105 */
(PID.TID 0000.0001)                 7.692650905600000E+10,      /* I =106 */
(PID.TID 0000.0001)                 8.078616166400000E+10,      /* I =107 */
(PID.TID 0000.0001)                 8.404769177600000E+10,      /* I =108 */
(PID.TID 0000.0001)                 8.668945612800000E+10,      /* I =109 */
(PID.TID 0000.0001)                 8.869115494400000E+10,      /* I =110 */
(PID.TID 0000.0001)                 9.003581440000000E+10,      /* I =111 */
(PID.TID 0000.0001)     2 @  9.071131852800000E+10,             /* I =112:113 */
(PID.TID 0000.0001)                 9.003581440000000E+10,      /* I =114 */
(PID.TID 0000.0001)                 8.869115494400000E+10,      /* I =115 */
(PID.TID 0000.0001)                 8.668945612800000E+10,      /* I =116 */
(PID.TID 0000.0001)                 8.404769177600000E+10,      /* I =117 */
(PID.TID 0000.0001)                 8.078616166400000E+10,      /* I =118 */
(PID.TID 0000.0001)                 7.692650905600000E+10,      /* I =119 */
(PID.TID 0000.0001)                 7.248914022400000E+10,      /* I =120 */
(PID.TID 0000.0001)                 6.748988211200000E+10,      /* I =121 */
(PID.TID 0000.0001)                 6.193540300800000E+10,      /* I =122 */
(PID.TID 0000.0001)                 5.581660979200000E+10,      /* I =123 */
(PID.TID 0000.0001)                 4.909775257600000E+10,      /* I =124 */
(PID.TID 0000.0001)                 4.169613312000000E+10,      /* I =125 */
(PID.TID 0000.0001)                 3.343760998400000E+10,      /* I =126 */
(PID.TID 0000.0001)                 2.393793945600000E+10,      /* I =127 */
(PID.TID 0000.0001)     2 @  1.241518080000000E+10,             /* I =128:129 */
(PID.TID 0000.0001)                 2.393793945600000E+10,      /* I =130 */
(PID.TID 0000.0001)                 3.343760998400000E+10,      /* I =131 */
(PID.TID 0000.0001)                 4.169613312000000E+10,      /* I =132 */
(PID.TID 0000.0001)                 4.909775257600000E+10,      /* I =133 */
(PID.TID 0000.0001)                 5.581660979200000E+10,      /* I =134 */
(PID.TID 0000.0001)                 6.193540300800000E+10,      /* I =135 */
(PID.TID 0000.0001)                 6.748988211200000E+10,      /* I =136 */
(PID.TID 0000.0001)                 7.248914022400000E+10,      /* I =137 */
(PID.TID 0000.0001)                 7.692650905600000E+10,      /* I =138 */
(PID.TID 0000.0001)                 8.078616166400000E+10,      /* I =139 */
(PID.TID 0000.0001)                 8.404769177600000E+10,      /* I =140 */
(PID.TID 0000.0001)                 8.668945612800000E+10,      /* I =141 */
(PID.TID 0000.0001)                 8.869115494400000E+10,      /* I =142 */
(PID.TID 0000.0001)                 9.003581440000000E+10,      /* I =143 */
(PID.TID 0000.0001)     2 @  9.071131852800000E+10,             /* I =144:145 */
(PID.TID 0000.0001)                 9.003581440000000E+10,      /* I =146 */
(PID.TID 0000.0001)                 8.869115494400000E+10,      /* I =147 */
(PID.TID 0000.0001)                 8.668945612800000E+10,      /* I =148 */
(PID.TID 0000.0001)                 8.404769177600000E+10,      /* I =149 */
(PID.TID 0000.0001)                 8.078616166400000E+10,      /* I =150 */
(PID.TID 0000.0001)                 7.692650905600000E+10,      /* I =151 */
(PID.TID 0000.0001)                 7.248914022400000E+10,      /* I =152 */
(PID.TID 0000.0001)                 6.748988211200000E+10,      /* I =153 */
(PID.TID 0000.0001)                 6.193540300800000E+10,      /* I =154 */
(PID.TID 0000.0001)                 5.581660979200000E+10,      /* I =155 */
(PID.TID 0000.0001)                 4.909775257600000E+10,      /* I =156 */
(PID.TID 0000.0001)                 4.169613312000000E+10,      /* I =157 */
(PID.TID 0000.0001)                 3.343760998400000E+10,      /* I =158 */
(PID.TID 0000.0001)                 2.393793945600000E+10,      /* I =159 */
(PID.TID 0000.0001)     2 @  1.241518080000000E+10,             /* I =160:161 */
(PID.TID 0000.0001)                 2.393793945600000E+10,      /* I =162 */
(PID.TID 0000.0001)                 3.343760998400000E+10,      /* I =163 */
(PID.TID 0000.0001)                 4.169613312000000E+10,      /* I =164 */
(PID.TID 0000.0001)                 4.909775257600000E+10,      /* I =165 */
(PID.TID 0000.0001)                 5.581660979200000E+10,      /* I =166 */
(PID.TID 0000.0001)                 6.193540300800000E+10,      /* I =167 */
(PID.TID 0000.0001)                 6.748988211200000E+10,      /* I =168 */
(PID.TID 0000.0001)                 7.248914022400000E+10,      /* I =169 */
(PID.TID 0000.0001)                 7.692650905600000E+10,      /* I =170 */
(PID.TID 0000.0001)                 8.078616166400000E+10,      /* I =171 */
(PID.TID 0000.0001)                 8.404769177600000E+10,      /* I =172 */
(PID.TID 0000.0001)                 8.668945612800000E+10,      /* I =173 */
(PID.TID 0000.0001)                 8.869115494400000E+10,      /* I =174 */
(PID.TID 0000.0001)                 9.003581440000000E+10,      /* I =175 */
(PID.TID 0000.0001)     2 @  9.071131852800000E+10,             /* I =176:177 */
(PID.TID 0000.0001)                 9.003581440000000E+10,      /* I =178 */
(PID.TID 0000.0001)                 8.869115494400000E+10,      /* I =179 */
(PID.TID 0000.0001)                 8.668945612800000E+10,      /* I =180 */
(PID.TID 0000.0001)                 8.404769177600000E+10,      /* I =181 */
(PID.TID 0000.0001)                 8.078616166400000E+10,      /* I =182 */
(PID.TID 0000.0001)                 7.692650905600000E+10,      /* I =183 */
(PID.TID 0000.0001)                 7.248914022400000E+10,      /* I =184 */
(PID.TID 0000.0001)                 6.748988211200000E+10,      /* I =185 */
(PID.TID 0000.0001)                 6.193540300800000E+10,      /* I =186 */
(PID.TID 0000.0001)                 5.581660979200000E+10,      /* I =187 */
(PID.TID 0000.0001)                 4.909775257600000E+10,      /* I =188 */
(PID.TID 0000.0001)                 4.169613312000000E+10,      /* I =189 */
(PID.TID 0000.0001)                 3.343760998400000E+10,      /* I =190 */
(PID.TID 0000.0001)                 2.393793945600000E+10,      /* I =191 */
(PID.TID 0000.0001)                 1.241518080000000E+10       /* I =192 */
(PID.TID 0000.0001)     ;
(PID.TID 0000.0001) rAs =  /* rAs(1,:,1,:) ( units: m^2 ) */
(PID.TID 0000.0001)                 1.241518080000000E+10,      /* J =  1 */
(PID.TID 0000.0001)                 1.979783987200000E+10,      /* J =  2 */
(PID.TID 0000.0001)                 2.946081587200000E+10,      /* J =  3 */
(PID.TID 0000.0001)                 3.803135180800000E+10,      /* J =  4 */
(PID.TID 0000.0001)                 4.572098969600000E+10,      /* J =  5 */
(PID.TID 0000.0001)                 5.270492774400000E+10,      /* J =  6 */
(PID.TID 0000.0001)                 5.907789004800000E+10,      /* J =  7 */
(PID.TID 0000.0001)                 6.488530124800000E+10,      /* J =  8 */
(PID.TID 0000.0001)                 7.014295142400000E+10,      /* J =  9 */
(PID.TID 0000.0001)                 7.484845260800000E+10,      /* J = 10 */
(PID.TID 0000.0001)                 7.898841907200000E+10,      /* J = 11 */
(PID.TID 0000.0001)                 8.254339481600000E+10,      /* J = 12 */
(PID.TID 0000.0001)                 8.549143347200000E+10,      /* J = 13 */
(PID.TID 0000.0001)                 8.781092454400000E+10,      /* J = 14 */
(PID.TID 0000.0001)                 8.948279705600000E+10,      /* J = 15 */
(PID.TID 0000.0001)                 9.049219891200000E+10,      /* J = 16 */
(PID.TID 0000.0001)                 9.082975846400000E+10,      /* J = 17 */
(PID.TID 0000.0001)                 9.049219891200000E+10,      /* J = 18 */
(PID.TID 0000.0001)                 8.948279705600000E+10,      /* J = 19 */
(PID.TID 0000.0001)                 8.781092454400000E+10,      /* J = 20 */
(PID.TID 0000.0001)                 8.549143347200000E+10,      /* J = 21 */
(PID.TID 0000.0001)                 8.254339481600000E+10,      /* J = 22 */
(PID.TID 0000.0001)                 7.898841907200000E+10,      /* J = 23 */
(PID.TID 0000.0001)                 7.484845260800000E+10,      /* J = 24 */
(PID.TID 0000.0001)                 7.014295142400000E+10,      /* J = 25 */
(PID.TID 0000.0001)                 6.488530124800000E+10,      /* J = 26 */
(PID.TID 0000.0001)                 5.907789004800000E+10,      /* J = 27 */
(PID.TID 0000.0001)                 5.270492774400000E+10,      /* J = 28 */
(PID.TID 0000.0001)                 4.572098969600000E+10,      /* J = 29 */
(PID.TID 0000.0001)                 3.803135180800000E+10,      /* J = 30 */
(PID.TID 0000.0001)                 2.946081587200000E+10,      /* J = 31 */
(PID.TID 0000.0001)                 1.979783987200000E+10       /* J = 32 */
(PID.TID 0000.0001)     ;
(PID.TID 0000.0001) globalArea = /* Integrated horizontal Area (m^2) */
(PID.TID 0000.0001)                 5.099043628646400E+14
(PID.TID 0000.0001)     ;
(PID.TID 0000.0001) // =======================================================
(PID.TID 0000.0001) // End of Model config. summary
(PID.TID 0000.0001) // =======================================================
(PID.TID 0000.0001) 
(PID.TID 0000.0001) == Packages configuration : Check & print summary ==
(PID.TID 0000.0001) 
(PID.TID 0000.0001) GAD_CHECK: #define ALLOW_GENERIC_ADVDIFF
(PID.TID 0000.0001) // =======================================================
(PID.TID 0000.0001) // CONFIG_CHECK : Normal End
(PID.TID 0000.0001) // =======================================================
(PID.TID 0000.0001) 
(PID.TID 0000.0001) // =======================================================
(PID.TID 0000.0001) // Field Initial Temperature at iteration          1
(PID.TID 0000.0001) // CMIN =          3.000000000000000E+02
(PID.TID 0000.0001) // CMAX =          3.000000000000000E+02
(PID.TID 0000.0001) // CINT =          0.000000000000000E+00
(PID.TID 0000.0001) // SYMBOLS (CMIN->CMAX): -abcdefghijklmnopqrstuvwxyz+
(PID.TID 0000.0001) //                  0.0: .
(PID.TID 0000.0001) // RANGE I (Lo:Hi:Step):(   1: 192:   1)
(PID.TID 0000.0001) // RANGE J (Lo:Hi:Step):(  32:   1:  -1)
(PID.TID 0000.0001) // RANGE K (Lo:Hi:Step):(   1:   1:   1)
(PID.TID 0000.0001) // =======================================================
(PID.TID 0000.0001) // =======================================================
(PID.TID 0000.0001) // END OF FIELD                                          =
(PID.TID 0000.0001) // =======================================================
(PID.TID 0000.0001) 
(PID.TID 0000.0001)  MDS_READ_FIELD: opening global file: S.init
(PID.TID 0000.0001) // =======================================================
(PID.TID 0000.0001) // Field Initial Salinity at iteration          1
(PID.TID 0000.0001) // CMIN =          1.904418288867227E-05
(PID.TID 0000.0001) // CMAX =          9.696425854136990E-01
(PID.TID 0000.0001) // CINT =          3.591198300854853E-02
(PID.TID 0000.0001) // SYMBOLS (CMIN->CMAX): -abcdefghijklmnopqrstuvwxyz+
(PID.TID 0000.0001) //                  0.0: .
(PID.TID 0000.0001) // RANGE I (Lo:Hi:Step):(   1: 192:   1)
(PID.TID 0000.0001) // RANGE J (Lo:Hi:Step):(  32:   1:  -1)
(PID.TID 0000.0001) // RANGE K (Lo:Hi:Step):(   1:   1:   1)
(PID.TID 0000.0001) // =======================================================
(PID.TID 0000.0001) K =   1
(PID.TID 0000.0001)                I=10      I=20      I=30      I=40      I=50      I=60      I=70      I=80      I=90      I=100     I=110     I=120     I=130     I=140     I=150     I=160     I=170     I=180     I=190
(PID.TID 0000.0001) |--J--|123456789|123456789|123456789|123456789|123456789|123456789|123456789|123456789|123456789|123456789|123456789|123456789|123456789|123456789|123456789|123456789|123456789|123456789|123456789|12
(PID.TID 0000.0001)     32 .........................................-aflrx++xrlfa-.........................................................................................................................................
(PID.TID 0000.0001)     31 ..........................................adjpuxxupjda..........................................................................................................................................
(PID.TID 0000.0001)     30 ..........................................-cglprrplgc-..........................................................................................................................................
(PID.TID 0000.0001)     29 ...........................................acgjkkjgca...........................................................................................................................................
(PID.TID 0000.0001)     28 ...........................................-abdeedba-...........................................................................................................................................
(PID.TID 0000.0001)     27 .............................................-aaaa-.............................................................................................................................................
(PID.TID 0000.0001)     26 ................................................................................................................................................................................................
(PID.TID 0000.0001)     25 ................................................................................................................................................................................................
(PID.TID 0000.0001)     24 ................................................................................................................................................................................................
(PID.TID 0000.0001)     23 ................................................................................................................................................................................................
(PID.TID 0000.0001)     22 ................................................................................................................................................................................................
(PID.TID 0000.0001)     21 ................................................................................................................................................................................................
(PID.TID 0000.0001)     20 ................................................................................................................................................................................................
(PID.TID 0000.0001)     19 ................................................................................................................................................................................................
(PID.TID 0000.0001)     18 ................................................................................................................................................................................................
(PID.TID 0000.0001)     17 ................................................................................................................................................................................................
(PID.TID 0000.0001)     16 ................................................................................................................................................................................................
(PID.TID 0000.0001)     15 ................................................................................................................................................................................................
(PID.TID 0000.0001)     14 ................................................................................................................................................................................................
(PID.TID 0000.0001)     13 ................................................................................................................................................................................................
(PID.TID 0000.0001)     12 ................................................................................................................................................................................................
(PID.TID 0000.0001)     11 ................................................................................................................................................................................................
(PID.TID 0000.0001)     10 ................................................................................................................................................................................................
(PID.TID 0000.0001)      9 ................................................................................................................................................................................................
(PID.TID 0000.0001)      8 ................................................................................................................................................................................................
(PID.TID 0000.0001)      7 ................................................................................................................................................................................................
(PID.TID 0000.0001)      6 .............................................................................-aaaa-.............................................................................................................
(PID.TID 0000.0001)      5 ...........................................................................-abdeedba-...........................................................................................................
(PID.TID 0000.0001)      4 ...........................................................................acgjkkjgca...........................................................................................................
(PID.TID 0000.0001)      3 ..........................................................................-cglprrplgc-..........................................................................................................
(PID.TID 0000.0001)      2 ..........................................................................adjpuxxupjda..........................................................................................................
(PID.TID 0000.0001)      1 .........................................................................-aflrx++xrlfa-.........................................................................................................
(PID.TID 0000.0001) // =======================================================
(PID.TID 0000.0001) // END OF FIELD                                          =
(PID.TID 0000.0001) // =======================================================
(PID.TID 0000.0001) 
(PID.TID 0000.0001) Start initial hydrostatic pressure computation
(PID.TID 0000.0001) Pressure is predetermined for buoyancyRelation ATMOSPHERIC
(PID.TID 0000.0001) 
(PID.TID 0000.0001)  write diagnostics summary to file ioUnit:      6
Iter.Nb:         0 ; Time(s):  0.0000000000000E+00
------------------------------------------------------------------------
2D/3D diagnostics: Number of lists:     1
------------------------------------------------------------------------
listId=    1 ; file name: s_Diag
 nFlds, nActive,       freq     &     phase        , nLev               
    2  |    2  |     21600.000000         0.000000 |   1
 levels:   1
 diag# | name   |   ipt  |  iMate | kLev|   count |   mate.C|           
    27 |SALT    |      1 |      0 |   1 |       0 |
    33 |SALTSQ  |      2 |      0 |   1 |       0 |
------------------------------------------------------------------------
Global & Regional Statistics diagnostics: Number of lists:     1
------------------------------------------------------------------------
listId=   1 ; file name: dynStDiag
 nFlds, nActive,       freq     &     phase        |                    
    4  |    4  |    -21600.000000         0.000000 |
 Regions:   0
 diag# | name   |   ipt  |  iMate |    Volume   |   mate-Vol. |         
    23 |ETAN    |      1 |      0 | 0.00000E+00 |
   134 |momKE   |      2 |      0 | 0.00000E+00 |
    27 |SALT    |      3 |      0 | 0.00000E+00 |
    33 |SALTSQ  |      4 |      0 | 0.00000E+00 |
------------------------------------------------------------------------
(PID.TID 0000.0001) // =======================================================
(PID.TID 0000.0001) // Model current state
(PID.TID 0000.0001) // =======================================================
(PID.TID 0000.0001) 
(PID.TID 0000.0001) // =======================================================
(PID.TID 0000.0001) // Begin MONITOR dynamic field statistics
(PID.TID 0000.0001) // =======================================================
(PID.TID 0000.0001) %MON time_tsnumber                =                     0
(PID.TID 0000.0001) %MON time_secondsf                =   0.0000000000000E+00
(PID.TID 0000.0001) %MON dynstat_eta_max              =  -1.0837811100434E+01
(PID.TID 0000.0001) %MON dynstat_eta_min              =  -1.9347767468462E+04
(PID.TID 0000.0001) %MON dynstat_eta_mean             =  -6.4575938338076E+03
(PID.TID 0000.0001) %MON dynstat_eta_sd               =   5.7754112468955E+03
(PID.TID 0000.0001) %MON dynstat_eta_del2             =   1.5273208570017E+01
(PID.TID 0000.0001) %MON dynstat_uvel_max             =   3.8588910511801E+01
(PID.TID 0000.0001) %MON dynstat_uvel_min             =  -2.6640794669410E+01
(PID.TID 0000.0001) %MON dynstat_uvel_mean            =   1.1767582170597E+01
(PID.TID 0000.0001) %MON dynstat_uvel_sd              =   1.8925013776372E+01
(PID.TID 0000.0001) %MON dynstat_uvel_del2            =   3.3977200976164E-02
(PID.TID 0000.0001) %MON dynstat_vvel_max             =   3.8588910511801E+01
(PID.TID 0000.0001) %MON dynstat_vvel_min             =  -2.6640794669410E+01
(PID.TID 0000.0001) %MON dynstat_vvel_mean            =   1.1767582170597E+01
(PID.TID 0000.0001) %MON dynstat_vvel_sd              =   1.8925013776372E+01
(PID.TID 0000.0001) %MON dynstat_vvel_del2            =   3.3977200976164E-02
(PID.TID 0000.0001) %MON dynstat_wvel_max             =   1.3520185216490E-06
(PID.TID 0000.0001) %MON dynstat_wvel_min             =  -1.3520185216490E-06
(PID.TID 0000.0001) %MON dynstat_wvel_mean            =   4.7879692028473E-18
(PID.TID 0000.0001) %MON dynstat_wvel_sd              =   3.1834070561210E-07
(PID.TID 0000.0001) %MON dynstat_wvel_del2            =   3.2311469011748E-07
(PID.TID 0000.0001) %MON dynstat_theta_max            =   3.0000000000000E+02
(PID.TID 0000.0001) %MON dynstat_theta_min            =   3.0000000000000E+02
(PID.TID 0000.0001) %MON dynstat_theta_mean           =   3.0000000000000E+02
(PID.TID 0000.0001) %MON dynstat_theta_sd             =   0.0000000000000E+00
(PID.TID 0000.0001) %MON dynstat_theta_del2           =   0.0000000000000E+00
(PID.TID 0000.0001) %MON dynstat_salt_max             =   9.6964258541370E-01
(PID.TID 0000.0001) %MON dynstat_salt_min             =   0.0000000000000E+00
(PID.TID 0000.0001) %MON dynstat_salt_mean            =   6.6909333002429E-03
(PID.TID 0000.0001) %MON dynstat_salt_sd              =   6.1908066970320E-02
(PID.TID 0000.0001) %MON dynstat_salt_del2            =   4.5398302203466E-04
(PID.TID 0000.0001) %MON advcfl_uvel_max              =   3.4060578853654E-01
(PID.TID 0000.0001) %MON advcfl_vvel_max              =   3.4060578853654E-01
(PID.TID 0000.0001) %MON advcfl_wvel_max              =   3.2448443699860E-08
(PID.TID 0000.0001) %MON advcfl_W_hf_max              =   0.0000000000000E+00
(PID.TID 0000.0001) %MON pe_b_mean                    =   3.7527946564980E+02
(PID.TID 0000.0001) %MON ke_max                       =   7.4488928548597E+02
(PID.TID 0000.0001) %MON ke_mean                      =   4.9660672081479E+02
(PID.TID 0000.0001) %MON ke_vol                       =   5.0990436286464E+19
(PID.TID 0000.0001) %MON vort_r_min                   =  -1.2114775456615E-05
(PID.TID 0000.0001) %MON vort_r_max                   =   1.2114775456615E-05
(PID.TID 0000.0001) %MON vort_a_mean                  =   0.0000000000000E+00
(PID.TID 0000.0001) %MON vort_a_sd                    =   9.0967809233301E-05
(PID.TID 0000.0001) %MON vort_p_mean                  =   0.0000000000000E+00
(PID.TID 0000.0001) %MON vort_p_sd                    =   9.0967809233301E-05
(PID.TID 0000.0001) %MON surfExpan_theta_mean         =   1.4363903832469E-15
(PID.TID 0000.0001) %MON surfExpan_salt_mean          =   8.5621870514298E-27
(PID.TID 0000.0001) %MON surfExpan_Heat_mean          =   1.2059480368388E-13
(PID.TID 0000.0001) %MON En_Budget_T2PE_mean          =   0.0000000000000E+00
(PID.TID 0000.0001) // =======================================================
(PID.TID 0000.0001) // End MONITOR dynamic field statistics
(PID.TID 0000.0001) // =======================================================
 cg2d: Sum(rhs),rhsMax =   1.60256485104922E+03  1.41158599102567E+04
(PID.TID 0000.0001)                    cg2d_init_res =    7.67601613979653E-02
(PID.TID 0000.0001)                       cg2d_iters =    26
(PID.TID 0000.0001)                         cg2d_res =    4.50177151408637E-13
(PID.TID 0000.0001) // =======================================================
(PID.TID 0000.0001) // Begin MONITOR dynamic field statistics
(PID.TID 0000.0001) // =======================================================
(PID.TID 0000.0001) %MON time_tsnumber                =                     1
(PID.TID 0000.0001) %MON time_secondsf                =   1.2000000000000E+03
(PID.TID 0000.0001) %MON dynstat_eta_max              =  -1.5947279876680E+01
(PID.TID 0000.0001) %MON dynstat_eta_min              =  -1.9337100859752E+04
(PID.TID 0000.0001) %MON dynstat_eta_mean             =  -6.4575936958592E+03
(PID.TID 0000.0001) %MON dynstat_eta_sd               =   5.7707250898033E+03
(PID.TID 0000.0001) %MON dynstat_eta_del2             =   1.5464154402056E+01
(PID.TID 0000.0001) %MON dynstat_uvel_max             =   3.8588910071966E+01
(PID.TID 0000.0001) %MON dynstat_uvel_min             =  -2.6659581858646E+01
(PID.TID 0000.0001) %MON dynstat_uvel_mean            =   1.1767582166770E+01
(PID.TID 0000.0001) %MON dynstat_uvel_sd              =   1.8925150214995E+01
(PID.TID 0000.0001) %MON dynstat_uvel_del2            =   3.3955261848934E-02
(PID.TID 0000.0001) %MON dynstat_vvel_max             =   3.8588910062663E+01
(PID.TID 0000.0001) %MON dynstat_vvel_min             =  -2.6659587869545E+01
(PID.TID 0000.0001) %MON dynstat_vvel_mean            =   1.1767582176546E+01
(PID.TID 0000.0001) %MON dynstat_vvel_sd              =   1.8925150226443E+01
(PID.TID 0000.0001) %MON dynstat_vvel_del2            =   3.3955267229867E-02
(PID.TID 0000.0001) %MON dynstat_wvel_max             =   4.9481922469386E-02
(PID.TID 0000.0001) %MON dynstat_wvel_min             =  -3.2090301729218E-02
(PID.TID 0000.0001) %MON dynstat_wvel_mean            =  -2.6146126421489E-13
(PID.TID 0000.0001) %MON dynstat_wvel_sd              =   4.0536689915551E-03
(PID.TID 0000.0001) %MON dynstat_wvel_del2            =   2.3948970576248E-04
(PID.TID 0000.0001) %MON dynstat_theta_max            =   3.0000000000000E+02
(PID.TID 0000.0001) %MON dynstat_theta_min            =   3.0000000000000E+02
(PID.TID 0000.0001) %MON dynstat_theta_mean           =   3.0000000000000E+02
(PID.TID 0000.0001) %MON dynstat_theta_sd             =   0.0000000000000E+00
(PID.TID 0000.0001) %MON dynstat_theta_del2           =   0.0000000000000E+00
(PID.TID 0000.0001) %MON dynstat_salt_max             =   9.7589236169202E-01
(PID.TID 0000.0001) %MON dynstat_salt_min             =  -3.2231628324401E-03
(PID.TID 0000.0001) %MON dynstat_salt_mean            =   6.6909333002429E-03
(PID.TID 0000.0001) %MON dynstat_salt_sd              =   6.1938184516641E-02
(PID.TID 0000.0001) %MON dynstat_salt_del2            =   4.5624446350024E-04
(PID.TID 0000.0001) %MON advcfl_uvel_max              =   3.4060581039424E-01
(PID.TID 0000.0001) %MON advcfl_vvel_max              =   3.4060580630789E-01
(PID.TID 0000.0001) %MON advcfl_wvel_max              =   1.1875661092648E-03
(PID.TID 0000.0001) %MON advcfl_W_hf_max              =   0.0000000000000E+00
(PID.TID 0000.0001) %MON pe_b_mean                    =   3.7500892169876E+02
(PID.TID 0000.0001) %MON ke_max                       =   7.4488941279826E+02
(PID.TID 0000.0001) %MON ke_mean                      =   4.9661188456109E+02
(PID.TID 0000.0001) %MON ke_vol                       =   5.0990436286464E+19
(PID.TID 0000.0001) %MON vort_r_min                   =  -1.2114775456615E-05
(PID.TID 0000.0001) %MON vort_r_max                   =   1.2114775456615E-05
(PID.TID 0000.0001) %MON vort_a_mean                  =   0.0000000000000E+00
(PID.TID 0000.0001) %MON vort_a_sd                    =   9.0967810028540E-05
(PID.TID 0000.0001) %MON vort_p_mean                  =   0.0000000000000E+00
(PID.TID 0000.0001) %MON vort_p_sd                    =   9.0967810028540E-05
(PID.TID 0000.0001) %MON surfExpan_theta_mean         =  -1.1993456166256E-11
(PID.TID 0000.0001) %MON surfExpan_salt_mean          =   1.4401315544052E-05
(PID.TID 0000.0001) %MON surfExpan_Heat_mean          =  -1.0070238032484E-09
(PID.TID 0000.0001) %MON En_Budget_T2PE_mean          =   0.0000000000000E+00
(PID.TID 0000.0001) // =======================================================
(PID.TID 0000.0001) // End MONITOR dynamic field statistics
(PID.TID 0000.0001) // =======================================================
 Compute Stats, Diag. #     23  ETAN      vol(   0 ): 5.099E+14  Parms: SM      M1      
 Compute Stats, Diag. #    134  momKE     vol(   0 ): 5.099E+19  Parms: SM      MR      
 Compute Stats, Diag. #     27  SALT      vol(   0 ): 5.099E+19  Parms: SM      MR      
 Compute Stats, Diag. #     33  SALTSQ    vol(   0 ): 5.099E+19  Parms: SM P    MR      
 cg2d: Sum(rhs),rhsMax =   1.60430971509295E+03  1.41005070520025E+04
(PID.TID 0000.0001)                    cg2d_init_res =    3.19770661613987E-02
(PID.TID 0000.0001)                       cg2d_iters =    24
(PID.TID 0000.0001)                         cg2d_res =    6.33605861883092E-13
(PID.TID 0000.0001) // =======================================================
(PID.TID 0000.0001) // Begin MONITOR dynamic field statistics
(PID.TID 0000.0001) // =======================================================
(PID.TID 0000.0001) %MON time_tsnumber                =                     2
(PID.TID 0000.0001) %MON time_secondsf                =   2.4000000000000E+03
(PID.TID 0000.0001) %MON dynstat_eta_max              =  -2.5948815235709E+01
(PID.TID 0000.0001) %MON dynstat_eta_min              =  -1.9316221194957E+04
(PID.TID 0000.0001) %MON dynstat_eta_mean             =  -6.4575935579123E+03
(PID.TID 0000.0001) %MON dynstat_eta_sd               =   5.7615478863783E+03
(PID.TID 0000.0001) %MON dynstat_eta_del2             =   1.5447926070747E+01
(PID.TID 0000.0001) %MON dynstat_uvel_max             =   3.8588963999166E+01
(PID.TID 0000.0001) %MON dynstat_uvel_min             =  -2.6722519927623E+01
(PID.TID 0000.0001) %MON dynstat_uvel_mean            =   1.1771061402563E+01
(PID.TID 0000.0001) %MON dynstat_uvel_sd              =   1.8934798064881E+01
(PID.TID 0000.0001) %MON dynstat_uvel_del2            =   3.3968659153559E-02
(PID.TID 0000.0001) %MON dynstat_vvel_max             =   3.8588963973960E+01
(PID.TID 0000.0001) %MON dynstat_vvel_min             =  -2.6722513260309E+01
(PID.TID 0000.0001) %MON dynstat_vvel_mean            =   1.1771061418952E+01
(PID.TID 0000.0001) %MON dynstat_vvel_sd              =   1.8934798089406E+01
(PID.TID 0000.0001) %MON dynstat_vvel_del2            =   3.3968670489803E-02
(PID.TID 0000.0001) %MON dynstat_wvel_max             =   1.7404126250544E-02
(PID.TID 0000.0001) %MON dynstat_wvel_min             =  -8.4969329095069E-03
(PID.TID 0000.0001) %MON dynstat_wvel_mean            =  -1.2875010385828E-13
(PID.TID 0000.0001) %MON dynstat_wvel_sd              =   7.6538603758302E-03
(PID.TID 0000.0001) %MON dynstat_wvel_del2            =   3.6928800264201E-05
(PID.TID 0000.0001) %MON dynstat_theta_max            =   3.0000000000000E+02
(PID.TID 0000.0001) %MON dynstat_theta_min            =   3.0000000000000E+02
(PID.TID 0000.0001) %MON dynstat_theta_mean           =   3.0000000000000E+02
(PID.TID 0000.0001) %MON dynstat_theta_sd             =   0.0000000000000E+00
(PID.TID 0000.0001) %MON dynstat_theta_del2           =   0.0000000000000E+00
(PID.TID 0000.0001) %MON dynstat_salt_max             =   9.8019964580634E-01
(PID.TID 0000.0001) %MON dynstat_salt_min             =  -5.3534791473678E-03
(PID.TID 0000.0001) %MON dynstat_salt_mean            =   6.6906567948011E-03
(PID.TID 0000.0001) %MON dynstat_salt_sd              =   6.1931076844734E-02
(PID.TID 0000.0001) %MON dynstat_salt_del2            =   4.5663027327243E-04
(PID.TID 0000.0001) %MON advcfl_uvel_max              =   3.4092910829648E-01
(PID.TID 0000.0001) %MON advcfl_vvel_max              =   3.4092909900683E-01
(PID.TID 0000.0001) %MON advcfl_wvel_max              =   4.1769901946109E-04
(PID.TID 0000.0001) %MON advcfl_W_hf_max              =   0.0000000000000E+00
(PID.TID 0000.0001) %MON pe_b_mean                    =   3.7447974271645E+02
(PID.TID 0000.0001) %MON ke_max                       =   7.4489162957669E+02
(PID.TID 0000.0001) %MON ke_mean                      =   4.9705898585884E+02
(PID.TID 0000.0001) %MON ke_vol                       =   5.0990436286464E+19
(PID.TID 0000.0001) %MON vort_r_min                   =  -1.2141629759162E-05
(PID.TID 0000.0001) %MON vort_r_max                   =   1.2141629759166E-05
(PID.TID 0000.0001) %MON vort_a_mean                  =  -1.4708107282061E-20
(PID.TID 0000.0001) %MON vort_a_sd                    =   9.0970854835256E-05
(PID.TID 0000.0001) %MON vort_p_mean                  =  -1.4708107282061E-20
(PID.TID 0000.0001) %MON vort_p_sd                    =   9.0970854835256E-05
(PID.TID 0000.0001) %MON surfExpan_theta_mean         =  -1.3326028359173E-12
(PID.TID 0000.0001) %MON surfExpan_salt_mean          =   2.8142584253298E-05
(PID.TID 0000.0001) %MON surfExpan_Heat_mean          =  -1.1173409065522E-10
(PID.TID 0000.0001) %MON En_Budget_T2PE_mean          =   0.0000000000000E+00
(PID.TID 0000.0001) // =======================================================
(PID.TID 0000.0001) // End MONITOR dynamic field statistics
(PID.TID 0000.0001) // =======================================================
 cg2d: Sum(rhs),rhsMax =   1.60678057204712E+03  1.40788234321263E+04
(PID.TID 0000.0001)                    cg2d_init_res =    4.57310104396313E-02
(PID.TID 0000.0001)                       cg2d_iters =    23
(PID.TID 0000.0001)                         cg2d_res =    9.13489627546595E-13
(PID.TID 0000.0001) // =======================================================
(PID.TID 0000.0001) // Begin MONITOR dynamic field statistics
(PID.TID 0000.0001) // =======================================================
(PID.TID 0000.0001) %MON time_tsnumber                =                     3
(PID.TID 0000.0001) %MON time_secondsf                =   3.6000000000000E+03
(PID.TID 0000.0001) %MON dynstat_eta_max              =  -4.0519217866509E+01
(PID.TID 0000.0001) %MON dynstat_eta_min              =  -1.9286710482283E+04
(PID.TID 0000.0001) %MON dynstat_eta_mean             =  -6.4575934199679E+03
(PID.TID 0000.0001) %MON dynstat_eta_sd               =   5.7483448944391E+03
(PID.TID 0000.0001) %MON dynstat_eta_del2             =   1.5409561411395E+01
(PID.TID 0000.0001) %MON dynstat_uvel_max             =   3.8589083390590E+01
(PID.TID 0000.0001) %MON dynstat_uvel_min             =  -2.6801239928187E+01
(PID.TID 0000.0001) %MON dynstat_uvel_mean            =   1.1776575446333E+01
(PID.TID 0000.0001) %MON dynstat_uvel_sd              =   1.8950027808624E+01
(PID.TID 0000.0001) %MON dynstat_uvel_del2            =   3.3993882495941E-02
(PID.TID 0000.0001) %MON dynstat_vvel_max             =   3.8589083314864E+01
(PID.TID 0000.0001) %MON dynstat_vvel_min             =  -2.6801233549293E+01
(PID.TID 0000.0001) %MON dynstat_vvel_mean            =   1.1776575470404E+01
(PID.TID 0000.0001) %MON dynstat_vvel_sd              =   1.8950027839422E+01
(PID.TID 0000.0001) %MON dynstat_vvel_del2            =   3.3993903824749E-02
(PID.TID 0000.0001) %MON dynstat_wvel_max             =   2.4596873931161E-02
(PID.TID 0000.0001) %MON dynstat_wvel_min             =  -1.2371077070692E-02
(PID.TID 0000.0001) %MON dynstat_wvel_mean            =  -3.3274506264476E-13
(PID.TID 0000.0001) %MON dynstat_wvel_sd              =   1.1005403507861E-02
(PID.TID 0000.0001) %MON dynstat_wvel_del2            =   3.5951462222612E-05
(PID.TID 0000.0001) %MON dynstat_theta_max            =   3.0000000000000E+02
(PID.TID 0000.0001) %MON dynstat_theta_min            =   3.0000000000000E+02
(PID.TID 0000.0001) %MON dynstat_theta_mean           =   3.0000000000000E+02
(PID.TID 0000.0001) %MON dynstat_theta_sd             =   0.0000000000000E+00
(PID.TID 0000.0001) %MON dynstat_theta_del2           =   0.0000000000000E+00
(PID.TID 0000.0001) %MON dynstat_salt_max             =   9.8325696544843E-01
(PID.TID 0000.0001) %MON dynstat_salt_min             =  -6.9024784520612E-03
(PID.TID 0000.0001) %MON dynstat_salt_mean            =   6.6902201463563E-03
(PID.TID 0000.0001) %MON dynstat_salt_sd              =   6.1923116377129E-02
(PID.TID 0000.0001) %MON dynstat_salt_del2            =   4.5720160356880E-04
(PID.TID 0000.0001) %MON advcfl_uvel_max              =   3.4141059784235E-01
(PID.TID 0000.0001) %MON advcfl_vvel_max              =   3.4141058378985E-01
(PID.TID 0000.0001) %MON advcfl_wvel_max              =   5.9032495943501E-04
(PID.TID 0000.0001) %MON advcfl_W_hf_max              =   0.0000000000000E+00
(PID.TID 0000.0001) %MON pe_b_mean                    =   3.7371990870196E+02
(PID.TID 0000.0001) %MON ke_max                       =   7.4489501866544E+02
(PID.TID 0000.0001) %MON ke_mean                      =   4.9776570878279E+02
(PID.TID 0000.0001) %MON ke_vol                       =   5.0990436286464E+19
(PID.TID 0000.0001) %MON vort_r_min                   =  -1.2184132452178E-05
(PID.TID 0000.0001) %MON vort_r_max                   =   1.2184132452223E-05
(PID.TID 0000.0001) %MON vort_a_mean                  =  -4.9027024273537E-21
(PID.TID 0000.0001) %MON vort_a_sd                    =   9.0975677350592E-05
(PID.TID 0000.0001) %MON vort_p_mean                  =  -4.9027024273537E-21
(PID.TID 0000.0001) %MON vort_p_sd                    =   9.0975677350592E-05
(PID.TID 0000.0001) %MON surfExpan_theta_mean         =  -8.9352540041111E-12
(PID.TID 0000.0001) %MON surfExpan_salt_mean          =   4.1405199134452E-05
(PID.TID 0000.0001) %MON surfExpan_Heat_mean          =  -7.5012047795484E-10
(PID.TID 0000.0001) %MON En_Budget_T2PE_mean          =   0.0000000000000E+00
(PID.TID 0000.0001) // =======================================================
(PID.TID 0000.0001) // End MONITOR dynamic field statistics
(PID.TID 0000.0001) // =======================================================
 cg2d: Sum(rhs),rhsMax =   1.60982396130897E+03  1.40522069670242E+04
(PID.TID 0000.0001)                    cg2d_init_res =    5.77175335696353E-02
(PID.TID 0000.0001)                       cg2d_iters =    23
(PID.TID 0000.0001)                         cg2d_res =    9.87177249406404E-13
(PID.TID 0000.0001) // =======================================================
(PID.TID 0000.0001) // Begin MONITOR dynamic field statistics
(PID.TID 0000.0001) // =======================================================
(PID.TID 0000.0001) %MON time_tsnumber                =                     4
(PID.TID 0000.0001) %MON time_secondsf                =   4.8000000000000E+03
(PID.TID 0000.0001) %MON dynstat_eta_max              =  -5.9236548050591E+01
(PID.TID 0000.0001) %MON dynstat_eta_min              =  -1.9250443917527E+04
(PID.TID 0000.0001) %MON dynstat_eta_mean             =  -6.4575932820286E+03
(PID.TID 0000.0001) %MON dynstat_eta_sd               =   5.7316929867825E+03
(PID.TID 0000.0001) %MON dynstat_eta_del2             =   1.5366060661350E+01
(PID.TID 0000.0001) %MON dynstat_uvel_max             =   3.8589339444251E+01
(PID.TID 0000.0001) %MON dynstat_uvel_min             =  -2.6889832321622E+01
(PID.TID 0000.0001) %MON dynstat_uvel_mean            =   1.1783886318844E+01
(PID.TID 0000.0001) %MON dynstat_uvel_sd              =   1.8969950946203E+01
(PID.TID 0000.0001) %MON dynstat_uvel_del2            =   3.4033049722117E-02
(PID.TID 0000.0001) %MON dynstat_vvel_max             =   3.8589339375298E+01
(PID.TID 0000.0001) %MON dynstat_vvel_min             =  -2.6889829044801E+01
(PID.TID 0000.0001) %MON dynstat_vvel_mean            =   1.1783886352979E+01
(PID.TID 0000.0001) %MON dynstat_vvel_sd              =   1.8969950972970E+01
(PID.TID 0000.0001) %MON dynstat_vvel_del2            =   3.4033072044527E-02
(PID.TID 0000.0001) %MON dynstat_wvel_max             =   3.0226481247778E-02
(PID.TID 0000.0001) %MON dynstat_wvel_min             =  -1.5871525531336E-02
(PID.TID 0000.0001) %MON dynstat_wvel_mean            =  -6.4206298716102E-13
(PID.TID 0000.0001) %MON dynstat_wvel_sd              =   1.3879700573657E-02
(PID.TID 0000.0001) %MON dynstat_wvel_del2            =   4.0792470849023E-05
(PID.TID 0000.0001) %MON dynstat_theta_max            =   3.0000000000000E+02
(PID.TID 0000.0001) %MON dynstat_theta_min            =   3.0000000000000E+02
(PID.TID 0000.0001) %MON dynstat_theta_mean           =   3.0000000000000E+02
(PID.TID 0000.0001) %MON dynstat_theta_sd             =   0.0000000000000E+00
(PID.TID 0000.0001) %MON dynstat_theta_del2           =   0.0000000000000E+00
(PID.TID 0000.0001) %MON dynstat_salt_max             =   9.8505366483046E-01
(PID.TID 0000.0001) %MON dynstat_salt_min             =  -7.9061905119938E-03
(PID.TID 0000.0001) %MON dynstat_salt_mean            =   6.6896277927269E-03
(PID.TID 0000.0001) %MON dynstat_salt_sd              =   6.1914489499408E-02
(PID.TID 0000.0001) %MON dynstat_salt_del2            =   4.5872543665452E-04
(PID.TID 0000.0001) %MON advcfl_uvel_max              =   3.4205952730344E-01
(PID.TID 0000.0001) %MON advcfl_vvel_max              =   3.4205951129201E-01
(PID.TID 0000.0001) %MON advcfl_wvel_max              =   7.2543553162062E-04
(PID.TID 0000.0001) %MON advcfl_W_hf_max              =   0.0000000000000E+00
(PID.TID 0000.0001) %MON pe_b_mean                    =   3.7276407714268E+02
(PID.TID 0000.0001) %MON ke_max                       =   7.4489919960425E+02
(PID.TID 0000.0001) %MON ke_mean                      =   4.9869331293147E+02
(PID.TID 0000.0001) %MON ke_vol                       =   5.0990436286464E+19
(PID.TID 0000.0001) %MON vort_r_min                   =  -1.2238746302680E-05
(PID.TID 0000.0001) %MON vort_r_max                   =   1.2238746302968E-05
(PID.TID 0000.0001) %MON vort_a_mean                  =   1.7159458495738E-20
(PID.TID 0000.0001) %MON vort_a_sd                    =   9.0982024198717E-05
(PID.TID 0000.0001) %MON vort_p_mean                  =   1.7159458495738E-20
(PID.TID 0000.0001) %MON vort_p_sd                    =   9.0982024198717E-05
(PID.TID 0000.0001) %MON surfExpan_theta_mean         =   1.7865237412017E-11
(PID.TID 0000.0001) %MON surfExpan_salt_mean          =   5.3906960830646E-05
(PID.TID 0000.0001) %MON surfExpan_Heat_mean          =   1.5000618333551E-09
(PID.TID 0000.0001) %MON En_Budget_T2PE_mean          =   0.0000000000000E+00
(PID.TID 0000.0001) // =======================================================
(PID.TID 0000.0001) // End MONITOR dynamic field statistics
(PID.TID 0000.0001) // =======================================================
 cg2d: Sum(rhs),rhsMax =   1.61326423720891E+03  1.40222404239916E+04
(PID.TID 0000.0001)                    cg2d_init_res =    6.74173553235467E-02
(PID.TID 0000.0001)                       cg2d_iters =    24
(PID.TID 0000.0001)                         cg2d_res =    3.90881567396316E-13
(PID.TID 0000.0001) // =======================================================
(PID.TID 0000.0001) // Begin MONITOR dynamic field statistics
(PID.TID 0000.0001) // =======================================================
(PID.TID 0000.0001) %MON time_tsnumber                =                     5
(PID.TID 0000.0001) %MON time_secondsf                =   6.0000000000000E+03
(PID.TID 0000.0001) %MON dynstat_eta_max              =  -8.1587399961772E+01
(PID.TID 0000.0001) %MON dynstat_eta_min              =  -1.9209546564491E+04
(PID.TID 0000.0001) %MON dynstat_eta_mean             =  -6.4575931440985E+03
(PID.TID 0000.0001) %MON dynstat_eta_sd               =   5.7122775250015E+03
(PID.TID 0000.0001) %MON dynstat_eta_del2             =   1.5315091065827E+01
(PID.TID 0000.0001) %MON dynstat_uvel_max             =   3.8589773345512E+01
(PID.TID 0000.0001) %MON dynstat_uvel_min             =  -2.6982699080705E+01
(PID.TID 0000.0001) %MON dynstat_uvel_mean            =   1.1792732315207E+01
(PID.TID 0000.0001) %MON dynstat_uvel_sd              =   1.8993661149740E+01
(PID.TID 0000.0001) %MON dynstat_uvel_del2            =   3.4084560643331E-02
(PID.TID 0000.0001) %MON dynstat_vvel_max             =   3.8589773309445E+01
(PID.TID 0000.0001) %MON dynstat_vvel_min             =  -2.6982696277721E+01
(PID.TID 0000.0001) %MON dynstat_vvel_mean            =   1.1792732359475E+01
(PID.TID 0000.0001) %MON dynstat_vvel_sd              =   1.8993661160527E+01
(PID.TID 0000.0001) %MON dynstat_vvel_del2            =   3.4084586890716E-02
(PID.TID 0000.0001) %MON dynstat_wvel_max             =   3.4085488114528E-02
(PID.TID 0000.0001) %MON dynstat_wvel_min             =  -1.8907590582072E-02
(PID.TID 0000.0001) %MON dynstat_wvel_mean            =  -1.1367496325946E-12
(PID.TID 0000.0001) %MON dynstat_wvel_sd              =   1.6192812220984E-02
(PID.TID 0000.0001) %MON dynstat_wvel_del2            =   4.6825233096370E-05
(PID.TID 0000.0001) %MON dynstat_theta_max            =   3.0000000000000E+02
(PID.TID 0000.0001) %MON dynstat_theta_min            =   3.0000000000000E+02
(PID.TID 0000.0001) %MON dynstat_theta_mean           =   3.0000000000000E+02
(PID.TID 0000.0001) %MON dynstat_theta_sd             =   0.0000000000000E+00
(PID.TID 0000.0001) %MON dynstat_theta_del2           =   0.0000000000000E+00
(PID.TID 0000.0001) %MON dynstat_salt_max             =   9.8557117211028E-01
(PID.TID 0000.0001) %MON dynstat_salt_min             =  -8.9955626828097E-03
(PID.TID 0000.0001) %MON dynstat_salt_mean            =   6.6888908959876E-03
(PID.TID 0000.0001) %MON dynstat_salt_sd              =   6.1905208120057E-02
(PID.TID 0000.0001) %MON dynstat_salt_del2            =   4.6052472853106E-04
(PID.TID 0000.0001) %MON advcfl_uvel_max              =   3.4284563663694E-01
(PID.TID 0000.0001) %MON advcfl_vvel_max              =   3.4284562071941E-01
(PID.TID 0000.0001) %MON advcfl_wvel_max              =   8.1805169408294E-04
(PID.TID 0000.0001) %MON advcfl_W_hf_max              =   0.0000000000000E+00
(PID.TID 0000.0001) %MON pe_b_mean                    =   3.7165311837717E+02
(PID.TID 0000.0001) %MON ke_max                       =   7.4490369521866E+02
(PID.TID 0000.0001) %MON ke_mean                      =   4.9980184118459E+02
(PID.TID 0000.0001) %MON ke_vol                       =   5.0990436286464E+19
(PID.TID 0000.0001) %MON vort_r_min                   =  -1.2302249835762E-05
(PID.TID 0000.0001) %MON vort_r_max                   =   1.2302249836991E-05
(PID.TID 0000.0001) %MON vort_a_mean                  =   3.9221619418830E-20
(PID.TID 0000.0001) %MON vort_a_sd                    =   9.0989635331853E-05
(PID.TID 0000.0001) %MON vort_p_mean                  =   3.9221619418830E-20
(PID.TID 0000.0001) %MON vort_p_sd                    =   9.0989635331853E-05
(PID.TID 0000.0001) %MON surfExpan_theta_mean         =   8.9984889013747E-11
(PID.TID 0000.0001) %MON surfExpan_salt_mean          =   6.5342428868735E-05
(PID.TID 0000.0001) %MON surfExpan_Heat_mean          =   7.5550694906051E-09
(PID.TID 0000.0001) %MON En_Budget_T2PE_mean          =   0.0000000000000E+00
(PID.TID 0000.0001) // =======================================================
(PID.TID 0000.0001) // End MONITOR dynamic field statistics
(PID.TID 0000.0001) // =======================================================
 cg2d: Sum(rhs),rhsMax =   1.61691447498237E+03  1.39905844547707E+04
(PID.TID 0000.0001)                    cg2d_init_res =    7.45567837108686E-02
(PID.TID 0000.0001)                       cg2d_iters =    24
(PID.TID 0000.0001)                         cg2d_res =    3.96874802765931E-13
(PID.TID 0000.0001) // =======================================================
(PID.TID 0000.0001) // Begin MONITOR dynamic field statistics
(PID.TID 0000.0001) // =======================================================
(PID.TID 0000.0001) %MON time_tsnumber                =                     6
(PID.TID 0000.0001) %MON time_secondsf                =   7.2000000000000E+03
(PID.TID 0000.0001) %MON dynstat_eta_max              =  -1.0697222333490E+02
(PID.TID 0000.0001) %MON dynstat_eta_min              =  -1.9166255311251E+04
(PID.TID 0000.0001) %MON dynstat_eta_mean             =  -6.4575930061825E+03
(PID.TID 0000.0001) %MON dynstat_eta_sd               =   5.6908655027182E+03
(PID.TID 0000.0001) %MON dynstat_eta_del2             =   1.5257543302303E+01
(PID.TID 0000.0001) %MON dynstat_uvel_max             =   3.8590373464165E+01
(PID.TID 0000.0001) %MON dynstat_uvel_min             =  -2.7075918197564E+01
(PID.TID 0000.0001) %MON dynstat_uvel_mean            =   1.1802801579513E+01
(PID.TID 0000.0001) %MON dynstat_uvel_sd              =   1.9020126682660E+01
(PID.TID 0000.0001) %MON dynstat_uvel_del2            =   3.4145882613520E-02
(PID.TID 0000.0001) %MON dynstat_vvel_max             =   3.8590373437923E+01
(PID.TID 0000.0001) %MON dynstat_vvel_min             =  -2.7075916295146E+01
(PID.TID 0000.0001) %MON dynstat_vvel_mean            =   1.1802801632204E+01
(PID.TID 0000.0001) %MON dynstat_vvel_sd              =   1.9020126664565E+01
(PID.TID 0000.0001) %MON dynstat_vvel_del2            =   3.4145911183523E-02
(PID.TID 0000.0001) %MON dynstat_wvel_max             =   3.6080461304942E-02
(PID.TID 0000.0001) %MON dynstat_wvel_min             =  -2.1393488445200E-02
(PID.TID 0000.0001) %MON dynstat_wvel_mean            =  -1.8993164714037E-12
(PID.TID 0000.0001) %MON dynstat_wvel_sd              =   1.7886256974225E-02
(PID.TID 0000.0001) %MON dynstat_wvel_del2            =   5.2572308453901E-05
(PID.TID 0000.0001) %MON dynstat_theta_max            =   3.0000000000000E+02
(PID.TID 0000.0001) %MON dynstat_theta_min            =   3.0000000000000E+02
(PID.TID 0000.0001) %MON dynstat_theta_mean           =   3.0000000000000E+02
(PID.TID 0000.0001) %MON dynstat_theta_sd             =   0.0000000000000E+00
(PID.TID 0000.0001) %MON dynstat_theta_del2           =   0.0000000000000E+00
(PID.TID 0000.0001) %MON dynstat_salt_max             =   9.8479139730808E-01
(PID.TID 0000.0001) %MON dynstat_salt_min             =  -1.0969896289556E-02
(PID.TID 0000.0001) %MON dynstat_salt_mean            =   6.6880244508359E-03
(PID.TID 0000.0001) %MON dynstat_salt_sd              =   6.1895325981769E-02
(PID.TID 0000.0001) %MON dynstat_salt_del2            =   4.6237259860179E-04
(PID.TID 0000.0001) %MON advcfl_uvel_max              =   3.4374048826109E-01
(PID.TID 0000.0001) %MON advcfl_vvel_max              =   3.4374047373212E-01
(PID.TID 0000.0001) %MON advcfl_wvel_max              =   8.6593104944335E-04
(PID.TID 0000.0001) %MON advcfl_W_hf_max              =   0.0000000000000E+00
(PID.TID 0000.0001) %MON pe_b_mean                    =   3.7043228771007E+02
(PID.TID 0000.0001) %MON ke_max                       =   7.4491166662382E+02
(PID.TID 0000.0001) %MON ke_mean                      =   5.0104530931065E+02
(PID.TID 0000.0001) %MON ke_vol                       =   5.0990436286464E+19
(PID.TID 0000.0001) %MON vort_r_min                   =  -1.2371069834165E-05
(PID.TID 0000.0001) %MON vort_r_max                   =   1.2371069838096E-05
(PID.TID 0000.0001) %MON vort_a_mean                  =   1.4708107282061E-20
(PID.TID 0000.0001) %MON vort_a_sd                    =   9.0998207007458E-05
(PID.TID 0000.0001) %MON vort_p_mean                  =   1.4708107282061E-20
(PID.TID 0000.0001) %MON vort_p_sd                    =   9.0998207007458E-05
(PID.TID 0000.0001) %MON surfExpan_theta_mean         =   2.0153681255573E-10
(PID.TID 0000.0001) %MON surfExpan_salt_mean          =   7.5371465524634E-05
(PID.TID 0000.0001) %MON surfExpan_Heat_mean          =   1.6920351517826E-08
(PID.TID 0000.0001) %MON En_Budget_T2PE_mean          =   0.0000000000000E+00
(PID.TID 0000.0001) // =======================================================
(PID.TID 0000.0001) // End MONITOR dynamic field statistics
(PID.TID 0000.0001) // =======================================================
 cg2d: Sum(rhs),rhsMax =   1.62058822154274E+03  1.39588685975413E+04
(PID.TID 0000.0001)                    cg2d_init_res =    7.89853903944421E-02
(PID.TID 0000.0001)                       cg2d_iters =    24
(PID.TID 0000.0001)                         cg2d_res =    3.87921966842127E-13
(PID.TID 0000.0001) // =======================================================
(PID.TID 0000.0001) // Begin MONITOR dynamic field statistics
(PID.TID 0000.0001) // =======================================================
(PID.TID 0000.0001) %MON time_tsnumber                =                     7
(PID.TID 0000.0001) %MON time_secondsf                =   8.4000000000000E+03
(PID.TID 0000.0001) %MON dynstat_eta_max              =  -1.3470529058115E+02
(PID.TID 0000.0001) %MON dynstat_eta_min              =  -1.9122773852898E+04
(PID.TID 0000.0001) %MON dynstat_eta_mean             =  -6.4575928682866E+03
(PID.TID 0000.0001) %MON dynstat_eta_sd               =   5.6682749263716E+03
(PID.TID 0000.0001) %MON dynstat_eta_del2             =   1.5195294548963E+01
(PID.TID 0000.0001) %MON dynstat_uvel_max             =   3.8591075963086E+01
(PID.TID 0000.0001) %MON dynstat_uvel_min             =  -2.7166280717959E+01
(PID.TID 0000.0001) %MON dynstat_uvel_mean            =   1.1813744926754E+01
(PID.TID 0000.0001) %MON dynstat_uvel_sd              =   1.9048255674140E+01
(PID.TID 0000.0001) %MON dynstat_uvel_del2            =   3.4214188292536E-02
(PID.TID 0000.0001) %MON dynstat_vvel_max             =   3.8591075986631E+01
(PID.TID 0000.0001) %MON dynstat_vvel_min             =  -2.7166279895847E+01
(PID.TID 0000.0001) %MON dynstat_vvel_mean            =   1.1813744986196E+01
(PID.TID 0000.0001) %MON dynstat_vvel_sd              =   1.9048255614427E+01
(PID.TID 0000.0001) %MON dynstat_vvel_del2            =   3.4214217182634E-02
(PID.TID 0000.0001) %MON dynstat_wvel_max             =   3.6238933206139E-02
(PID.TID 0000.0001) %MON dynstat_wvel_min             =  -2.3251993324798E-02
(PID.TID 0000.0001) %MON dynstat_wvel_mean            =  -2.9320955487338E-12
(PID.TID 0000.0001) %MON dynstat_wvel_sd              =   1.8927508917176E-02
(PID.TID 0000.0001) %MON dynstat_wvel_del2            =   5.7450053116494E-05
(PID.TID 0000.0001) %MON dynstat_theta_max            =   3.0000000000000E+02
(PID.TID 0000.0001) %MON dynstat_theta_min            =   3.0000000000000E+02
(PID.TID 0000.0001) %MON dynstat_theta_mean           =   3.0000000000000E+02
(PID.TID 0000.0001) %MON dynstat_theta_sd             =   0.0000000000000E+00
(PID.TID 0000.0001) %MON dynstat_theta_del2           =   0.0000000000000E+00
(PID.TID 0000.0001) %MON dynstat_salt_max             =   9.8269756571616E-01
(PID.TID 0000.0001) %MON dynstat_salt_min             =  -1.2376939323086E-02
(PID.TID 0000.0001) %MON dynstat_salt_mean            =   6.6870477834429E-03
(PID.TID 0000.0001) %MON dynstat_salt_sd              =   6.1884917932169E-02
(PID.TID 0000.0001) %MON dynstat_salt_del2            =   4.6522821123317E-04
(PID.TID 0000.0001) %MON advcfl_uvel_max              =   3.4471297911726E-01
(PID.TID 0000.0001) %MON advcfl_vvel_max              =   3.4471296051985E-01
(PID.TID 0000.0001) %MON advcfl_wvel_max              =   8.6973437497600E-04
(PID.TID 0000.0001) %MON advcfl_W_hf_max              =   0.0000000000000E+00
(PID.TID 0000.0001) %MON pe_b_mean                    =   3.6914923116176E+02
(PID.TID 0000.0001) %MON ke_max                       =   7.4492140375153E+02
(PID.TID 0000.0001) %MON ke_mean                      =   5.0237438698022E+02
(PID.TID 0000.0001) %MON ke_vol                       =   5.0990436286464E+19
(PID.TID 0000.0001) %MON vort_r_min                   =  -1.2441580635479E-05
(PID.TID 0000.0001) %MON vort_r_max                   =   1.2441580645505E-05
(PID.TID 0000.0001) %MON vort_a_mean                  =  -3.1867565777799E-20
(PID.TID 0000.0001) %MON vort_a_sd                    =   9.1007408325339E-05
(PID.TID 0000.0001) %MON vort_p_mean                  =  -3.1867565777799E-20
(PID.TID 0000.0001) %MON vort_p_sd                    =   9.1007408325339E-05
(PID.TID 0000.0001) %MON surfExpan_theta_mean         =   3.4037485779676E-10
(PID.TID 0000.0001) %MON surfExpan_salt_mean          =   8.3627183909829E-05
(PID.TID 0000.0001) %MON surfExpan_Heat_mean          =   2.8576700579440E-08
(PID.TID 0000.0001) %MON En_Budget_T2PE_mean          =   0.0000000000000E+00
(PID.TID 0000.0001) // =======================================================
(PID.TID 0000.0001) // End MONITOR dynamic field statistics
(PID.TID 0000.0001) // =======================================================
 cg2d: Sum(rhs),rhsMax =   1.62411039403213E+03  1.39285960087949E+04
(PID.TID 0000.0001)                    cg2d_init_res =    8.06542493821638E-02
(PID.TID 0000.0001)                       cg2d_iters =    24
(PID.TID 0000.0001)                         cg2d_res =    3.82174204625214E-13
(PID.TID 0000.0001) // =======================================================
(PID.TID 0000.0001) // Begin MONITOR dynamic field statistics
(PID.TID 0000.0001) // =======================================================
(PID.TID 0000.0001) %MON time_tsnumber                =                     8
(PID.TID 0000.0001) %MON time_secondsf                =   9.6000000000000E+03
(PID.TID 0000.0001) %MON dynstat_eta_max              =  -1.6401108180092E+02
(PID.TID 0000.0001) %MON dynstat_eta_min              =  -1.9081144794437E+04
(PID.TID 0000.0001) %MON dynstat_eta_mean             =  -6.4575927304169E+03
(PID.TID 0000.0001) %MON dynstat_eta_sd               =   5.6453433727118E+03
(PID.TID 0000.0001) %MON dynstat_eta_del2             =   1.5130846939475E+01
(PID.TID 0000.0001) %MON dynstat_uvel_max             =   3.8591830817781E+01
(PID.TID 0000.0001) %MON dynstat_uvel_min             =  -2.7250758704261E+01
(PID.TID 0000.0001) %MON dynstat_uvel_mean            =   1.1825186728388E+01
(PID.TID 0000.0001) %MON dynstat_uvel_sd              =   1.9076946787602E+01
(PID.TID 0000.0001) %MON dynstat_uvel_del2            =   3.4286265455549E-02
(PID.TID 0000.0001) %MON dynstat_vvel_max             =   3.8591831029966E+01
(PID.TID 0000.0001) %MON dynstat_vvel_min             =  -2.7250758954358E+01
(PID.TID 0000.0001) %MON dynstat_vvel_mean            =   1.1825186793782E+01
(PID.TID 0000.0001) %MON dynstat_vvel_sd              =   1.9076946675525E+01
(PID.TID 0000.0001) %MON dynstat_vvel_del2            =   3.4286295089183E-02
(PID.TID 0000.0001) %MON dynstat_wvel_max             =   3.4695208031934E-02
(PID.TID 0000.0001) %MON dynstat_wvel_min             =  -2.4421773961714E-02
(PID.TID 0000.0001) %MON dynstat_wvel_mean            =  -4.1592621362136E-12
(PID.TID 0000.0001) %MON dynstat_wvel_sd              =   1.9308512754790E-02
(PID.TID 0000.0001) %MON dynstat_wvel_del2            =   6.1095442203941E-05
(PID.TID 0000.0001) %MON dynstat_theta_max            =   3.0000000000000E+02
(PID.TID 0000.0001) %MON dynstat_theta_min            =   3.0000000000000E+02
(PID.TID 0000.0001) %MON dynstat_theta_mean           =   3.0000000000000E+02
(PID.TID 0000.0001) %MON dynstat_theta_sd             =   0.0000000000000E+00
(PID.TID 0000.0001) %MON dynstat_theta_del2           =   0.0000000000000E+00
(PID.TID 0000.0001) %MON dynstat_salt_max             =   9.7927563491996E-01
(PID.TID 0000.0001) %MON dynstat_salt_min             =  -1.3254371761786E-02
(PID.TID 0000.0001) %MON dynstat_salt_mean            =   6.6859848152170E-03
(PID.TID 0000.0001) %MON dynstat_salt_sd              =   6.1874081638606E-02
(PID.TID 0000.0001) %MON dynstat_salt_del2            =   4.6852939129644E-04
(PID.TID 0000.0001) %MON advcfl_uvel_max              =   3.4572971951428E-01
(PID.TID 0000.0001) %MON advcfl_vvel_max              =   3.4572969109067E-01
(PID.TID 0000.0001) %MON advcfl_wvel_max              =   8.3268497173104E-04
(PID.TID 0000.0001) %MON advcfl_W_hf_max              =   0.0000000000000E+00
(PID.TID 0000.0001) %MON pe_b_mean                    =   3.6785202803488E+02
(PID.TID 0000.0001) %MON ke_max                       =   7.4493170647026E+02
(PID.TID 0000.0001) %MON ke_mean                      =   5.0373851378767E+02
(PID.TID 0000.0001) %MON ke_vol                       =   5.0990436286464E+19
(PID.TID 0000.0001) %MON vort_r_min                   =  -1.2510339255107E-05
(PID.TID 0000.0001) %MON vort_r_max                   =   1.2510339276264E-05
(PID.TID 0000.0001) %MON vort_a_mean                  =  -2.9416214564122E-20
(PID.TID 0000.0001) %MON vort_a_sd                    =   9.1016894539254E-05
(PID.TID 0000.0001) %MON vort_p_mean                  =  -2.9416214564122E-20
(PID.TID 0000.0001) %MON vort_p_sd                    =   9.1016894539254E-05
(PID.TID 0000.0001) %MON surfExpan_theta_mean         =   4.9208762127538E-10
(PID.TID 0000.0001) %MON surfExpan_salt_mean          =   8.9736435106476E-05
(PID.TID 0000.0001) %MON surfExpan_Heat_mean          =   4.1314348530731E-08
(PID.TID 0000.0001) %MON En_Budget_T2PE_mean          =   0.0000000000000E+00
(PID.TID 0000.0001) // =======================================================
(PID.TID 0000.0001) // End MONITOR dynamic field statistics
(PID.TID 0000.0001) // =======================================================
 cg2d: Sum(rhs),rhsMax =   1.62732669621903E+03  1.39010667751734E+04
(PID.TID 0000.0001)                    cg2d_init_res =    7.96101894935431E-02
(PID.TID 0000.0001)                       cg2d_iters =    24
(PID.TID 0000.0001)                         cg2d_res =    3.81850122324182E-13
(PID.TID 0000.0001) // =======================================================
(PID.TID 0000.0001) // Begin MONITOR dynamic field statistics
(PID.TID 0000.0001) // =======================================================
(PID.TID 0000.0001) %MON time_tsnumber                =                     9
(PID.TID 0000.0001) %MON time_secondsf                =   1.0800000000000E+04
(PID.TID 0000.0001) %MON dynstat_eta_max              =  -1.9402344687470E+02
(PID.TID 0000.0001) %MON dynstat_eta_min              =  -1.9043145899793E+04
(PID.TID 0000.0001) %MON dynstat_eta_mean             =  -6.4575925925799E+03
(PID.TID 0000.0001) %MON dynstat_eta_sd               =   5.6228968065724E+03
(PID.TID 0000.0001) %MON dynstat_eta_del2             =   1.5066412699943E+01
(PID.TID 0000.0001) %MON dynstat_uvel_max             =   3.8592493282577E+01
(PID.TID 0000.0001) %MON dynstat_uvel_min             =  -2.7327904040210E+01
(PID.TID 0000.0001) %MON dynstat_uvel_mean            =   1.1836736783218E+01
(PID.TID 0000.0001) %MON dynstat_uvel_sd              =   1.9105134095011E+01
(PID.TID 0000.0001) %MON dynstat_uvel_del2            =   3.4359399241983E-02
(PID.TID 0000.0001) %MON dynstat_vvel_max             =   3.8592493664155E+01
(PID.TID 0000.0001) %MON dynstat_vvel_min             =  -2.7327904443088E+01
(PID.TID 0000.0001) %MON dynstat_vvel_mean            =   1.1836736854272E+01
(PID.TID 0000.0001) %MON dynstat_vvel_sd              =   1.9105133923765E+01
(PID.TID 0000.0001) %MON dynstat_vvel_del2            =   3.4359431194257E-02
(PID.TID 0000.0001) %MON dynstat_wvel_max             =   3.1670043798188E-02
(PID.TID 0000.0001) %MON dynstat_wvel_min             =  -2.5010583828595E-02
(PID.TID 0000.0001) %MON dynstat_wvel_mean            =  -5.4606713514695E-12
(PID.TID 0000.0001) %MON dynstat_wvel_sd              =   1.9043454856550E-02
(PID.TID 0000.0001) %MON dynstat_wvel_del2            =   6.3383980009588E-05
(PID.TID 0000.0001) %MON dynstat_theta_max            =   3.0000000000000E+02
(PID.TID 0000.0001) %MON dynstat_theta_min            =   3.0000000000000E+02
(PID.TID 0000.0001) %MON dynstat_theta_mean           =   3.0000000000000E+02
(PID.TID 0000.0001) %MON dynstat_theta_sd             =   0.0000000000000E+00
(PID.TID 0000.0001) %MON dynstat_theta_del2           =   0.0000000000000E+00
(PID.TID 0000.0001) %MON dynstat_salt_max             =   9.7451568239254E-01
(PID.TID 0000.0001) %MON dynstat_salt_min             =  -1.5048287151427E-02
(PID.TID 0000.0001) %MON dynstat_salt_mean            =   6.6848639904416E-03
(PID.TID 0000.0001) %MON dynstat_salt_sd              =   6.1862937471679E-02
(PID.TID 0000.0001) %MON dynstat_salt_del2            =   4.7170147387971E-04
(PID.TID 0000.0001) %MON advcfl_uvel_max              =   3.4675644195625E-01
(PID.TID 0000.0001) %MON advcfl_vvel_max              =   3.4675640610917E-01
(PID.TID 0000.0001) %MON advcfl_wvel_max              =   7.6008103195524E-04
(PID.TID 0000.0001) %MON advcfl_W_hf_max              =   0.0000000000000E+00
(PID.TID 0000.0001) %MON pe_b_mean                    =   3.6658735264310E+02
(PID.TID 0000.0001) %MON ke_max                       =   7.4494375480754E+02
(PID.TID 0000.0001) %MON ke_mean                      =   5.0508785963457E+02
(PID.TID 0000.0001) %MON ke_vol                       =   5.0990436286464E+19
(PID.TID 0000.0001) %MON vort_r_min                   =  -1.2574271843725E-05
(PID.TID 0000.0001) %MON vort_r_max                   =   1.2574271881552E-05
(PID.TID 0000.0001) %MON vort_a_mean                  =  -1.9610809709415E-20
(PID.TID 0000.0001) %MON vort_a_sd                    =   9.1026320093605E-05
(PID.TID 0000.0001) %MON vort_p_mean                  =  -1.9610809709415E-20
(PID.TID 0000.0001) %MON vort_p_sd                    =   9.1026320093605E-05
(PID.TID 0000.0001) %MON surfExpan_theta_mean         =   6.4069588101705E-10
(PID.TID 0000.0001) %MON surfExpan_salt_mean          =   9.3340483474980E-05
(PID.TID 0000.0001) %MON surfExpan_Heat_mean          =   5.3790631085948E-08
(PID.TID 0000.0001) %MON En_Budget_T2PE_mean          =   0.0000000000000E+00
(PID.TID 0000.0001) // =======================================================
(PID.TID 0000.0001) // End MONITOR dynamic field statistics
(PID.TID 0000.0001) // =======================================================
 cg2d: Sum(rhs),rhsMax =   1.63011095248788E+03  1.38773232286731E+04
(PID.TID 0000.0001)                    cg2d_init_res =    7.59871413496949E-02
(PID.TID 0000.0001)                       cg2d_iters =    24
(PID.TID 0000.0001)                         cg2d_res =    3.87557601689415E-13
(PID.TID 0000.0001) // =======================================================
(PID.TID 0000.0001) // Begin MONITOR dynamic field statistics
(PID.TID 0000.0001) // =======================================================
(PID.TID 0000.0001) %MON time_tsnumber                =                    10
(PID.TID 0000.0001) %MON time_secondsf                =   1.2000000000000E+04
(PID.TID 0000.0001) %MON dynstat_eta_max              =  -2.2379641285114E+02
(PID.TID 0000.0001) %MON dynstat_eta_min              =  -1.9010214935342E+04
(PID.TID 0000.0001) %MON dynstat_eta_mean             =  -6.4575924547814E+03
(PID.TID 0000.0001) %MON dynstat_eta_sd               =   5.6017197610364E+03
(PID.TID 0000.0001) %MON dynstat_eta_del2             =   1.5004571313063E+01
(PID.TID 0000.0001) %MON dynstat_uvel_max             =   3.8593056773471E+01
(PID.TID 0000.0001) %MON dynstat_uvel_min             =  -2.7395607639586E+01
(PID.TID 0000.0001) %MON dynstat_uvel_mean            =   1.1848003049150E+01
(PID.TID 0000.0001) %MON dynstat_uvel_sd              =   1.9131825997974E+01
(PID.TID 0000.0001) %MON dynstat_uvel_del2            =   3.4430358980459E-02
(PID.TID 0000.0001) %MON dynstat_vvel_max             =   3.8593057487615E+01
(PID.TID 0000.0001) %MON dynstat_vvel_min             =  -2.7395609043315E+01
(PID.TID 0000.0001) %MON dynstat_vvel_mean            =   1.1848003125279E+01
(PID.TID 0000.0001) %MON dynstat_vvel_sd              =   1.9131825766013E+01
(PID.TID 0000.0001) %MON dynstat_vvel_del2            =   3.4430392651096E-02
(PID.TID 0000.0001) %MON dynstat_wvel_max             =   2.7446776512422E-02
(PID.TID 0000.0001) %MON dynstat_wvel_min             =  -2.4811082344308E-02
(PID.TID 0000.0001) %MON dynstat_wvel_mean            =  -6.6929676851872E-12
(PID.TID 0000.0001) %MON dynstat_wvel_sd              =   1.8166245304359E-02
(PID.TID 0000.0001) %MON dynstat_wvel_del2            =   6.4034587693216E-05
(PID.TID 0000.0001) %MON dynstat_theta_max            =   3.0000000000000E+02
(PID.TID 0000.0001) %MON dynstat_theta_min            =   3.0000000000000E+02
(PID.TID 0000.0001) %MON dynstat_theta_mean           =   3.0000000000000E+02
(PID.TID 0000.0001) %MON dynstat_theta_sd             =   0.0000000000000E+00
(PID.TID 0000.0001) %MON dynstat_theta_del2           =   0.0000000000000E+00
(PID.TID 0000.0001) %MON dynstat_salt_max             =   9.7456747590519E-01
(PID.TID 0000.0001) %MON dynstat_salt_min             =  -1.6730277898587E-02
(PID.TID 0000.0001) %MON dynstat_salt_mean            =   6.6837179544530E-03
(PID.TID 0000.0001) %MON dynstat_salt_sd              =   6.1851627250260E-02
(PID.TID 0000.0001) %MON dynstat_salt_del2            =   4.7365619972867E-04
(PID.TID 0000.0001) %MON advcfl_uvel_max              =   3.4775916824465E-01
(PID.TID 0000.0001) %MON advcfl_vvel_max              =   3.4775912484074E-01
(PID.TID 0000.0001) %MON advcfl_wvel_max              =   6.5872261965741E-04
(PID.TID 0000.0001) %MON advcfl_W_hf_max              =   0.0000000000000E+00
(PID.TID 0000.0001) %MON pe_b_mean                    =   3.6539882266489E+02
(PID.TID 0000.0001) %MON ke_max                       =   7.4495284735197E+02
(PID.TID 0000.0001) %MON ke_mean                      =   5.0637512059783E+02
(PID.TID 0000.0001) %MON ke_vol                       =   5.0990436286464E+19
(PID.TID 0000.0001) %MON vort_r_min                   =  -1.2630816080219E-05
(PID.TID 0000.0001) %MON vort_r_max                   =   1.2630816138322E-05
(PID.TID 0000.0001) %MON vort_a_mean                  =   0.0000000000000E+00
(PID.TID 0000.0001) %MON vort_a_sd                    =   9.1035351335218E-05
(PID.TID 0000.0001) %MON vort_p_mean                  =   0.0000000000000E+00
(PID.TID 0000.0001) %MON vort_p_sd                    =   9.1035351335218E-05
(PID.TID 0000.0001) %MON surfExpan_theta_mean         =   7.7110464948969E-10
(PID.TID 0000.0001) %MON surfExpan_salt_mean          =   9.4119093539225E-05
(PID.TID 0000.0001) %MON surfExpan_Heat_mean          =   6.4739241345469E-08
(PID.TID 0000.0001) %MON En_Budget_T2PE_mean          =   0.0000000000000E+00
(PID.TID 0000.0001) // =======================================================
(PID.TID 0000.0001) // End MONITOR dynamic field statistics
(PID.TID 0000.0001) // =======================================================
 cg2d: Sum(rhs),rhsMax =   1.63236995302112E+03  1.38581184134434E+04
(PID.TID 0000.0001)                    cg2d_init_res =    6.99977762349394E-02
(PID.TID 0000.0001)                       cg2d_iters =    24
(PID.TID 0000.0001)                         cg2d_res =    3.99832982512680E-13
(PID.TID 0000.0001) // =======================================================
(PID.TID 0000.0001) // Begin MONITOR dynamic field statistics
(PID.TID 0000.0001) // =======================================================
(PID.TID 0000.0001) %MON time_tsnumber                =                    11
(PID.TID 0000.0001) %MON time_secondsf                =   1.3200000000000E+04
(PID.TID 0000.0001) %MON dynstat_eta_max              =  -2.5232845072665E+02
(PID.TID 0000.0001) %MON dynstat_eta_min              =  -1.8983404766929E+04
(PID.TID 0000.0001) %MON dynstat_eta_mean             =  -6.4575923170261E+03
(PID.TID 0000.0001) %MON dynstat_eta_sd               =   5.5825279439617E+03
(PID.TID 0000.0001) %MON dynstat_eta_del2             =   1.4947337088117E+01
(PID.TID 0000.0001) %MON dynstat_uvel_max             =   3.8593428124909E+01
(PID.TID 0000.0001) %MON dynstat_uvel_min             =  -2.7451660930307E+01
(PID.TID 0000.0001) %MON dynstat_uvel_mean            =   1.1858604819634E+01
(PID.TID 0000.0001) %MON dynstat_uvel_sd              =   1.9156137082004E+01
(PID.TID 0000.0001) %MON dynstat_uvel_del2            =   3.4496584779726E-02
(PID.TID 0000.0001) %MON dynstat_vvel_max             =   3.8593429059514E+01
(PID.TID 0000.0001) %MON dynstat_vvel_min             =  -2.7451673324316E+01
(PID.TID 0000.0001) %MON dynstat_vvel_mean            =   1.1858604899374E+01
(PID.TID 0000.0001) %MON dynstat_vvel_sd              =   1.9156136793290E+01
(PID.TID 0000.0001) %MON dynstat_vvel_del2            =   3.4496619034984E-02
(PID.TID 0000.0001) %MON dynstat_wvel_max             =   2.2720773242233E-02
(PID.TID 0000.0001) %MON dynstat_wvel_min             =  -2.3779274144849E-02
(PID.TID 0000.0001) %MON dynstat_wvel_mean            =  -7.7082583066312E-12
(PID.TID 0000.0001) %MON dynstat_wvel_sd              =   1.6728275042422E-02
(PID.TID 0000.0001) %MON dynstat_wvel_del2            =   6.3229280093563E-05
(PID.TID 0000.0001) %MON dynstat_theta_max            =   3.0000000000000E+02
(PID.TID 0000.0001) %MON dynstat_theta_min            =   3.0000000000000E+02
(PID.TID 0000.0001) %MON dynstat_theta_mean           =   3.0000000000000E+02
(PID.TID 0000.0001) %MON dynstat_theta_sd             =   0.0000000000000E+00
(PID.TID 0000.0001) %MON dynstat_theta_del2           =   0.0000000000000E+00
(PID.TID 0000.0001) %MON dynstat_salt_max             =   9.7991737047269E-01
(PID.TID 0000.0001) %MON dynstat_salt_min             =  -1.8482559641251E-02
(PID.TID 0000.0001) %MON dynstat_salt_mean            =   6.6825829182130E-03
(PID.TID 0000.0001) %MON dynstat_salt_sd              =   6.1840311660124E-02
(PID.TID 0000.0001) %MON dynstat_salt_del2            =   4.7593179566473E-04
(PID.TID 0000.0001) %MON advcfl_uvel_max              =   3.4870533756642E-01
(PID.TID 0000.0001) %MON advcfl_vvel_max              =   3.4870528747602E-01
(PID.TID 0000.0001) %MON advcfl_wvel_max              =   5.7070256505921E-04
(PID.TID 0000.0001) %MON advcfl_W_hf_max              =   0.0000000000000E+00
(PID.TID 0000.0001) %MON pe_b_mean                    =   3.6432558358962E+02
(PID.TID 0000.0001) %MON ke_max                       =   7.4495892749890E+02
(PID.TID 0000.0001) %MON ke_mean                      =   5.0755709210810E+02
(PID.TID 0000.0001) %MON ke_vol                       =   5.0990436286464E+19
(PID.TID 0000.0001) %MON vort_r_min                   =  -1.2678014871354E-05
(PID.TID 0000.0001) %MON vort_r_max                   =   1.2678014948413E-05
(PID.TID 0000.0001) %MON vort_a_mean                  =   1.7159458495738E-20
(PID.TID 0000.0001) %MON vort_a_sd                    =   9.1043678388295E-05
(PID.TID 0000.0001) %MON vort_p_mean                  =   1.7159458495738E-20
(PID.TID 0000.0001) %MON vort_p_sd                    =   9.1043678388295E-05
(PID.TID 0000.0001) %MON surfExpan_theta_mean         =   8.7118738797284E-10
(PID.TID 0000.0001) %MON surfExpan_salt_mean          =   9.1819953619717E-05
(PID.TID 0000.0001) %MON surfExpan_Heat_mean          =   7.3142264215002E-08
(PID.TID 0000.0001) %MON En_Budget_T2PE_mean          =   0.0000000000000E+00
(PID.TID 0000.0001) // =======================================================
(PID.TID 0000.0001) // End MONITOR dynamic field statistics
(PID.TID 0000.0001) // =======================================================
 cg2d: Sum(rhs),rhsMax =   1.63404565777450E+03  1.38439066945709E+04
(PID.TID 0000.0001)                    cg2d_init_res =    6.19282426185019E-02
(PID.TID 0000.0001)                       cg2d_iters =    24
(PID.TID 0000.0001)                         cg2d_res =    4.12169067398370E-13
(PID.TID 0000.0001) // =======================================================
(PID.TID 0000.0001) // Begin MONITOR dynamic field statistics
(PID.TID 0000.0001) // =======================================================
(PID.TID 0000.0001) %MON time_tsnumber                =                    12
(PID.TID 0000.0001) %MON time_secondsf                =   1.4400000000000E+04
(PID.TID 0000.0001) %MON dynstat_eta_max              =  -2.7860687573181E+02
(PID.TID 0000.0001) %MON dynstat_eta_min              =  -1.8963367854856E+04
(PID.TID 0000.0001) %MON dynstat_eta_mean             =  -6.4575921793168E+03
(PID.TID 0000.0001) %MON dynstat_eta_sd               =   5.5659442587371E+03
(PID.TID 0000.0001) %MON dynstat_eta_del2             =   1.4896798519414E+01
(PID.TID 0000.0001) %MON dynstat_uvel_max             =   3.8593604797499E+01
(PID.TID 0000.0001) %MON dynstat_uvel_min             =  -2.7497041687058E+01
(PID.TID 0000.0001) %MON dynstat_uvel_mean            =   1.1868185872718E+01
(PID.TID 0000.0001) %MON dynstat_uvel_sd              =   1.9177312432105E+01
(PID.TID 0000.0001) %MON dynstat_uvel_del2            =   3.4555329076491E-02
(PID.TID 0000.0001) %MON dynstat_vvel_max             =   3.8593605943142E+01
(PID.TID 0000.0001) %MON dynstat_vvel_min             =  -2.7497054647920E+01
(PID.TID 0000.0001) %MON dynstat_vvel_mean            =   1.1868185953583E+01
(PID.TID 0000.0001) %MON dynstat_vvel_sd              =   1.9177312095329E+01
(PID.TID 0000.0001) %MON dynstat_vvel_del2            =   3.4555364696128E-02
(PID.TID 0000.0001) %MON dynstat_wvel_max             =   1.8629542613870E-02
(PID.TID 0000.0001) %MON dynstat_wvel_min             =  -2.1906128414065E-02
(PID.TID 0000.0001) %MON dynstat_wvel_mean            =  -8.3749034720420E-12
(PID.TID 0000.0001) %MON dynstat_wvel_sd              =   1.4797112929248E-02
(PID.TID 0000.0001) %MON dynstat_wvel_del2            =   6.1536318356964E-05
(PID.TID 0000.0001) %MON dynstat_theta_max            =   3.0000000000000E+02
(PID.TID 0000.0001) %MON dynstat_theta_min            =   3.0000000000000E+02
(PID.TID 0000.0001) %MON dynstat_theta_mean           =   3.0000000000000E+02
(PID.TID 0000.0001) %MON dynstat_theta_sd             =   0.0000000000000E+00
(PID.TID 0000.0001) %MON dynstat_theta_del2           =   0.0000000000000E+00
(PID.TID 0000.0001) %MON dynstat_salt_max             =   9.8391775517090E-01
(PID.TID 0000.0001) %MON dynstat_salt_min             =  -1.9913091550865E-02
(PID.TID 0000.0001) %MON dynstat_salt_mean            =   6.6814976313736E-03
(PID.TID 0000.0001) %MON dynstat_salt_sd              =   6.1829165905620E-02
(PID.TID 0000.0001) %MON dynstat_salt_del2            =   4.7831282516599E-04
(PID.TID 0000.0001) %MON advcfl_uvel_max              =   3.4956489214487E-01
(PID.TID 0000.0001) %MON advcfl_vvel_max              =   3.4956483506447E-01
(PID.TID 0000.0001) %MON advcfl_wvel_max              =   5.2574706865608E-04
(PID.TID 0000.0001) %MON advcfl_W_hf_max              =   0.0000000000000E+00
(PID.TID 0000.0001) %MON pe_b_mean                    =   3.6340116092859E+02
(PID.TID 0000.0001) %MON ke_max                       =   7.4496247352628E+02
(PID.TID 0000.0001) %MON ke_mean                      =   5.0859598000394E+02
(PID.TID 0000.0001) %MON ke_vol                       =   5.0990436286464E+19
(PID.TID 0000.0001) %MON vort_r_min                   =  -1.2714560851391E-05
(PID.TID 0000.0001) %MON vort_r_max                   =   1.2714560939068E-05
(PID.TID 0000.0001) %MON vort_a_mean                  =   7.3540536410306E-21
(PID.TID 0000.0001) %MON vort_a_sd                    =   9.1051025737250E-05
(PID.TID 0000.0001) %MON vort_p_mean                  =   7.3540536410306E-21
(PID.TID 0000.0001) %MON vort_p_sd                    =   9.1051025737250E-05
(PID.TID 0000.0001) %MON surfExpan_theta_mean         =   9.3217541781689E-10
(PID.TID 0000.0001) %MON surfExpan_salt_mean          =   8.6292047829162E-05
(PID.TID 0000.0001) %MON surfExpan_Heat_mean          =   7.8262533615629E-08
(PID.TID 0000.0001) %MON En_Budget_T2PE_mean          =   0.0000000000000E+00
(PID.TID 0000.0001) // =======================================================
(PID.TID 0000.0001) // End MONITOR dynamic field statistics
(PID.TID 0000.0001) // =======================================================
 cg2d: Sum(rhs),rhsMax =   1.63511483277110E+03  1.38348540940724E+04
(PID.TID 0000.0001)                    cg2d_init_res =    5.21413222828736E-02
(PID.TID 0000.0001)                       cg2d_iters =    24
(PID.TID 0000.0001)                         cg2d_res =    4.15716273647013E-13
(PID.TID 0000.0001) // =======================================================
(PID.TID 0000.0001) // Begin MONITOR dynamic field statistics
(PID.TID 0000.0001) // =======================================================
(PID.TID 0000.0001) %MON time_tsnumber                =                    13
(PID.TID 0000.0001) %MON time_secondsf                =   1.5600000000000E+04
(PID.TID 0000.0001) %MON dynstat_eta_max              =  -3.0166761014509E+02
(PID.TID 0000.0001) %MON dynstat_eta_min              =  -1.8950367471649E+04
(PID.TID 0000.0001) %MON dynstat_eta_mean             =  -6.4575920416541E+03
(PID.TID 0000.0001) %MON dynstat_eta_sd               =   5.5524791084953E+03
(PID.TID 0000.0001) %MON dynstat_eta_del2             =   1.4854797508621E+01
(PID.TID 0000.0001) %MON dynstat_uvel_max             =   3.8593618407770E+01
(PID.TID 0000.0001) %MON dynstat_uvel_min             =  -2.7531352561433E+01
(PID.TID 0000.0001) %MON dynstat_uvel_mean            =   1.1876427079860E+01
(PID.TID 0000.0001) %MON dynstat_uvel_sd              =   1.9194744467952E+01
(PID.TID 0000.0001) %MON dynstat_uvel_del2            =   3.4604887284693E-02
(PID.TID 0000.0001) %MON dynstat_vvel_max             =   3.8593619723203E+01
(PID.TID 0000.0001) %MON dynstat_vvel_min             =  -2.7531379056024E+01
(PID.TID 0000.0001) %MON dynstat_vvel_mean            =   1.1876427158583E+01
(PID.TID 0000.0001) %MON dynstat_vvel_sd              =   1.9194744095079E+01
(PID.TID 0000.0001) %MON dynstat_vvel_del2            =   3.4604924640443E-02
(PID.TID 0000.0001) %MON dynstat_wvel_max             =   1.4996312573078E-02
(PID.TID 0000.0001) %MON dynstat_wvel_min             =  -1.9226597978622E-02
(PID.TID 0000.0001) %MON dynstat_wvel_mean            =  -8.5959111896692E-12
(PID.TID 0000.0001) %MON dynstat_wvel_sd              =   1.2457309719990E-02
(PID.TID 0000.0001) %MON dynstat_wvel_del2            =   5.8803568141214E-05
(PID.TID 0000.0001) %MON dynstat_theta_max            =   3.0000000000000E+02
(PID.TID 0000.0001) %MON dynstat_theta_min            =   3.0000000000000E+02
(PID.TID 0000.0001) %MON dynstat_theta_mean           =   3.0000000000000E+02
(PID.TID 0000.0001) %MON dynstat_theta_sd             =   0.0000000000000E+00
(PID.TID 0000.0001) %MON dynstat_theta_del2           =   0.0000000000000E+00
(PID.TID 0000.0001) %MON dynstat_salt_max             =   9.8654318593824E-01
(PID.TID 0000.0001) %MON dynstat_salt_min             =  -2.0689024799346E-02
(PID.TID 0000.0001) %MON dynstat_salt_mean            =   6.6805019264484E-03
(PID.TID 0000.0001) %MON dynstat_salt_sd              =   6.1818373259063E-02
(PID.TID 0000.0001) %MON dynstat_salt_del2            =   4.8022573006241E-04
(PID.TID 0000.0001) %MON advcfl_uvel_max              =   3.5031127776597E-01
(PID.TID 0000.0001) %MON advcfl_vvel_max              =   3.5031121321567E-01
(PID.TID 0000.0001) %MON advcfl_wvel_max              =   4.6143833983001E-04
(PID.TID 0000.0001) %MON advcfl_W_hf_max              =   0.0000000000000E+00
(PID.TID 0000.0001) %MON pe_b_mean                    =   3.6265259583348E+02
(PID.TID 0000.0001) %MON ke_max                       =   7.4496429733861E+02
(PID.TID 0000.0001) %MON ke_mean                      =   5.0946042701229E+02
(PID.TID 0000.0001) %MON ke_vol                       =   5.0990436286464E+19
(PID.TID 0000.0001) %MON vort_r_min                   =  -1.2739794910295E-05
(PID.TID 0000.0001) %MON vort_r_max                   =   1.2739794993487E-05
(PID.TID 0000.0001) %MON vort_a_mean                  =   1.4708107282061E-20
(PID.TID 0000.0001) %MON vort_a_sd                    =   9.1057161141776E-05
(PID.TID 0000.0001) %MON vort_p_mean                  =   1.4708107282061E-20
(PID.TID 0000.0001) %MON vort_p_sd                    =   9.1057161141776E-05
(PID.TID 0000.0001) %MON surfExpan_theta_mean         =   9.4805891105570E-10
(PID.TID 0000.0001) %MON surfExpan_salt_mean          =   7.7518472005632E-05
(PID.TID 0000.0001) %MON surfExpan_Heat_mean          =   7.9596171404074E-08
(PID.TID 0000.0001) %MON En_Budget_T2PE_mean          =   0.0000000000000E+00
(PID.TID 0000.0001) // =======================================================
(PID.TID 0000.0001) // End MONITOR dynamic field statistics
(PID.TID 0000.0001) // =======================================================
 cg2d: Sum(rhs),rhsMax =   1.63558637464923E+03  1.38308651910834E+04
(PID.TID 0000.0001)                    cg2d_init_res =    4.11036625952531E-02
(PID.TID 0000.0001)                       cg2d_iters =    24
(PID.TID 0000.0001)                         cg2d_res =    4.03936651357918E-13
(PID.TID 0000.0001) // =======================================================
(PID.TID 0000.0001) // Begin MONITOR dynamic field statistics
(PID.TID 0000.0001) // =======================================================
(PID.TID 0000.0001) %MON time_tsnumber                =                    14
(PID.TID 0000.0001) %MON time_secondsf                =   1.6800000000000E+04
(PID.TID 0000.0001) %MON dynstat_eta_max              =  -3.2063125577401E+02
(PID.TID 0000.0001) %MON dynstat_eta_min              =  -1.8944311728474E+04
(PID.TID 0000.0001) %MON dynstat_eta_mean             =  -6.4575919040356E+03
(PID.TID 0000.0001) %MON dynstat_eta_sd               =   5.5425156744352E+03
(PID.TID 0000.0001) %MON dynstat_eta_del2             =   1.4822698017277E+01
(PID.TID 0000.0001) %MON dynstat_uvel_max             =   3.8593522900850E+01
(PID.TID 0000.0001) %MON dynstat_uvel_min             =  -2.7555129840148E+01
(PID.TID 0000.0001) %MON dynstat_uvel_mean            =   1.1883057946153E+01
(PID.TID 0000.0001) %MON dynstat_uvel_sd              =   1.9207982759957E+01
(PID.TID 0000.0001) %MON dynstat_uvel_del2            =   3.4644124124172E-02
(PID.TID 0000.0001) %MON dynstat_vvel_max             =   3.8593524331364E+01
(PID.TID 0000.0001) %MON dynstat_vvel_min             =  -2.7555148421483E+01
(PID.TID 0000.0001) %MON dynstat_vvel_mean            =   1.1883058019132E+01
(PID.TID 0000.0001) %MON dynstat_vvel_sd              =   1.9207982364526E+01
(PID.TID 0000.0001) %MON dynstat_vvel_del2            =   3.4644162139518E-02
(PID.TID 0000.0001) %MON dynstat_wvel_max             =   1.1574628645860E-02
(PID.TID 0000.0001) %MON dynstat_wvel_min             =  -1.5816171328992E-02
(PID.TID 0000.0001) %MON dynstat_wvel_mean            =  -8.3195406198743E-12
(PID.TID 0000.0001) %MON dynstat_wvel_sd              =   9.8167966629782E-03
(PID.TID 0000.0001) %MON dynstat_wvel_del2            =   5.4223661570225E-05
(PID.TID 0000.0001) %MON dynstat_theta_max            =   3.0000000000000E+02
(PID.TID 0000.0001) %MON dynstat_theta_min            =   3.0000000000000E+02
(PID.TID 0000.0001) %MON dynstat_theta_mean           =   3.0000000000000E+02
(PID.TID 0000.0001) %MON dynstat_theta_sd             =   0.0000000000000E+00
(PID.TID 0000.0001) %MON dynstat_theta_del2           =   0.0000000000000E+00
(PID.TID 0000.0001) %MON dynstat_salt_max             =   9.8777524450463E-01
(PID.TID 0000.0001) %MON dynstat_salt_min             =  -2.0867916001316E-02
(PID.TID 0000.0001) %MON dynstat_salt_mean            =   6.6796348731977E-03
(PID.TID 0000.0001) %MON dynstat_salt_sd              =   6.1808116550288E-02
(PID.TID 0000.0001) %MON dynstat_salt_del2            =   4.8190573606347E-04
(PID.TID 0000.0001) %MON advcfl_uvel_max              =   3.5092233245481E-01
(PID.TID 0000.0001) %MON advcfl_vvel_max              =   3.5092226050623E-01
(PID.TID 0000.0001) %MON advcfl_wvel_max              =   3.7958810230661E-04
(PID.TID 0000.0001) %MON advcfl_W_hf_max              =   0.0000000000000E+00
(PID.TID 0000.0001) %MON pe_b_mean                    =   3.6209986570178E+02
(PID.TID 0000.0001) %MON ke_max                       =   7.4496534181533E+02
(PID.TID 0000.0001) %MON ke_mean                      =   5.1012624700928E+02
(PID.TID 0000.0001) %MON ke_vol                       =   5.0990436286464E+19
(PID.TID 0000.0001) %MON vort_r_min                   =  -1.2753664390153E-05
(PID.TID 0000.0001) %MON vort_r_max                   =   1.2753664450106E-05
(PID.TID 0000.0001) %MON vort_a_mean                  =  -9.8054048547075E-21
(PID.TID 0000.0001) %MON vort_a_sd                    =   9.1061902601085E-05
(PID.TID 0000.0001) %MON vort_p_mean                  =  -9.8054048547075E-21
(PID.TID 0000.0001) %MON vort_p_sd                    =   9.1061902601085E-05
(PID.TID 0000.0001) %MON surfExpan_theta_mean         =   9.1503243594301E-10
(PID.TID 0000.0001) %MON surfExpan_salt_mean          =   6.5642616615111E-05
(PID.TID 0000.0001) %MON surfExpan_Heat_mean          =   7.6823258300618E-08
(PID.TID 0000.0001) %MON En_Budget_T2PE_mean          =   0.0000000000000E+00
(PID.TID 0000.0001) // =======================================================
(PID.TID 0000.0001) // End MONITOR dynamic field statistics
(PID.TID 0000.0001) // =======================================================
 cg2d: Sum(rhs),rhsMax =   1.63549672883025E+03  1.38316230018920E+04
(PID.TID 0000.0001)                    cg2d_init_res =    2.95022504242213E-02
(PID.TID 0000.0001)                       cg2d_iters =    24
(PID.TID 0000.0001)                         cg2d_res =    3.71744303736664E-13
(PID.TID 0000.0001) // =======================================================
(PID.TID 0000.0001) // Begin MONITOR dynamic field statistics
(PID.TID 0000.0001) // =======================================================
(PID.TID 0000.0001) %MON time_tsnumber                =                    15
(PID.TID 0000.0001) %MON time_secondsf                =   1.8000000000000E+04
(PID.TID 0000.0001) %MON dynstat_eta_max              =  -3.3475436768855E+02
(PID.TID 0000.0001) %MON dynstat_eta_min              =  -1.8944805554877E+04
(PID.TID 0000.0001) %MON dynstat_eta_mean             =  -6.4575917664564E+03
(PID.TID 0000.0001) %MON dynstat_eta_sd               =   5.5363006159343E+03
(PID.TID 0000.0001) %MON dynstat_eta_del2             =   1.4801828464445E+01
(PID.TID 0000.0001) %MON dynstat_uvel_max             =   3.8593381630492E+01
(PID.TID 0000.0001) %MON dynstat_uvel_min             =  -2.7569254163151E+01
(PID.TID 0000.0001) %MON dynstat_uvel_mean            =   1.1887866567280E+01
(PID.TID 0000.0001) %MON dynstat_uvel_sd              =   1.9216737579003E+01
(PID.TID 0000.0001) %MON dynstat_uvel_del2            =   3.4677112026605E-02
(PID.TID 0000.0001) %MON dynstat_vvel_max             =   3.8593383126282E+01
(PID.TID 0000.0001) %MON dynstat_vvel_min             =  -2.7569269760394E+01
(PID.TID 0000.0001) %MON dynstat_vvel_mean            =   1.1887866631083E+01
(PID.TID 0000.0001) %MON dynstat_vvel_sd              =   1.9216737174517E+01
(PID.TID 0000.0001) %MON dynstat_vvel_del2            =   3.4677154585681E-02
(PID.TID 0000.0001) %MON dynstat_wvel_max             =   8.4323048488894E-03
(PID.TID 0000.0001) %MON dynstat_wvel_min             =  -1.1800292914597E-02
(PID.TID 0000.0001) %MON dynstat_wvel_mean            =  -7.5406056921319E-12
(PID.TID 0000.0001) %MON dynstat_wvel_sd              =   7.0337087159094E-03
(PID.TID 0000.0001) %MON dynstat_wvel_del2            =   4.7811930273737E-05
(PID.TID 0000.0001) %MON dynstat_theta_max            =   3.0000000000000E+02
(PID.TID 0000.0001) %MON dynstat_theta_min            =   3.0000000000000E+02
(PID.TID 0000.0001) %MON dynstat_theta_mean           =   3.0000000000000E+02
(PID.TID 0000.0001) %MON dynstat_theta_sd             =   0.0000000000000E+00
(PID.TID 0000.0001) %MON dynstat_theta_del2           =   0.0000000000000E+00
(PID.TID 0000.0001) %MON dynstat_salt_max             =   9.8760314154421E-01
(PID.TID 0000.0001) %MON dynstat_salt_min             =  -2.0510282612406E-02
(PID.TID 0000.0001) %MON dynstat_salt_mean            =   6.6789326665758E-03
(PID.TID 0000.0001) %MON dynstat_salt_sd              =   6.1798568121603E-02
(PID.TID 0000.0001) %MON dynstat_salt_del2            =   4.8357792658224E-04
(PID.TID 0000.0001) %MON advcfl_uvel_max              =   3.5138103596797E-01
(PID.TID 0000.0001) %MON advcfl_vvel_max              =   3.5138095705984E-01
(PID.TID 0000.0001) %MON advcfl_wvel_max              =   2.8320702279591E-04
(PID.TID 0000.0001) %MON advcfl_W_hf_max              =   0.0000000000000E+00
(PID.TID 0000.0001) %MON pe_b_mean                    =   3.6175557936012E+02
(PID.TID 0000.0001) %MON ke_max                       =   7.4496650697616E+02
(PID.TID 0000.0001) %MON ke_mean                      =   5.1057687235200E+02
(PID.TID 0000.0001) %MON ke_vol                       =   5.0990436286464E+19
(PID.TID 0000.0001) %MON vort_r_min                   =  -1.2756648210785E-05
(PID.TID 0000.0001) %MON vort_r_max                   =   1.2756648230205E-05
(PID.TID 0000.0001) %MON vort_a_mean                  =  -3.1867565777799E-20
(PID.TID 0000.0001) %MON vort_a_sd                    =   9.1065123185421E-05
(PID.TID 0000.0001) %MON vort_p_mean                  =  -3.1867565777799E-20
(PID.TID 0000.0001) %MON vort_p_sd                    =   9.1065123185421E-05
(PID.TID 0000.0001) %MON surfExpan_theta_mean         =   8.3162304469744E-10
(PID.TID 0000.0001) %MON surfExpan_salt_mean          =   5.0982131187593E-05
(PID.TID 0000.0001) %MON surfExpan_Heat_mean          =   6.9820439638877E-08
(PID.TID 0000.0001) %MON En_Budget_T2PE_mean          =   0.0000000000000E+00
(PID.TID 0000.0001) // =======================================================
(PID.TID 0000.0001) // End MONITOR dynamic field statistics
(PID.TID 0000.0001) // =======================================================
 cg2d: Sum(rhs),rhsMax =   1.63490395303125E+03  1.38366377120005E+04
(PID.TID 0000.0001)                    cg2d_init_res =    1.88069066881811E-02
(PID.TID 0000.0001)                       cg2d_iters =    24
(PID.TID 0000.0001)                         cg2d_res =    3.15128321366499E-13
(PID.TID 0000.0001) // =======================================================
(PID.TID 0000.0001) // Begin MONITOR dynamic field statistics
(PID.TID 0000.0001) // =======================================================
(PID.TID 0000.0001) %MON time_tsnumber                =                    16
(PID.TID 0000.0001) %MON time_secondsf                =   1.9200000000000E+04
(PID.TID 0000.0001) %MON dynstat_eta_max              =  -3.4348618033591E+02
(PID.TID 0000.0001) %MON dynstat_eta_min              =  -1.8951214815282E+04
(PID.TID 0000.0001) %MON dynstat_eta_mean             =  -6.4575916289091E+03
(PID.TID 0000.0001) %MON dynstat_eta_sd               =   5.5339403474576E+03
(PID.TID 0000.0001) %MON dynstat_eta_del2             =   1.4792523692763E+01
(PID.TID 0000.0001) %MON dynstat_uvel_max             =   3.8593255900790E+01
(PID.TID 0000.0001) %MON dynstat_uvel_min             =  -2.7575153632831E+01
(PID.TID 0000.0001) %MON dynstat_uvel_mean            =   1.1890707532347E+01
(PID.TID 0000.0001) %MON dynstat_uvel_sd              =   1.9220878115963E+01
(PID.TID 0000.0001) %MON dynstat_uvel_del2            =   3.4698112908807E-02
(PID.TID 0000.0001) %MON dynstat_vvel_max             =   3.8593257421043E+01
(PID.TID 0000.0001) %MON dynstat_vvel_min             =  -2.7575162239089E+01
(PID.TID 0000.0001) %MON dynstat_vvel_mean            =   1.1890707584182E+01
(PID.TID 0000.0001) %MON dynstat_vvel_sd              =   1.9220877714586E+01
(PID.TID 0000.0001) %MON dynstat_vvel_del2            =   3.4698156663727E-02
(PID.TID 0000.0001) %MON dynstat_wvel_max             =   5.7383216414245E-03
(PID.TID 0000.0001) %MON dynstat_wvel_min             =  -7.3683376548609E-03
(PID.TID 0000.0001) %MON dynstat_wvel_mean            =  -6.2953471630520E-12
(PID.TID 0000.0001) %MON dynstat_wvel_sd              =   4.4472229702106E-03
(PID.TID 0000.0001) %MON dynstat_wvel_del2            =   3.9706784542188E-05
(PID.TID 0000.0001) %MON dynstat_theta_max            =   3.0000000000000E+02
(PID.TID 0000.0001) %MON dynstat_theta_min            =   3.0000000000000E+02
(PID.TID 0000.0001) %MON dynstat_theta_mean           =   3.0000000000000E+02
(PID.TID 0000.0001) %MON dynstat_theta_sd             =   0.0000000000000E+00
(PID.TID 0000.0001) %MON dynstat_theta_del2           =   0.0000000000000E+00
(PID.TID 0000.0001) %MON dynstat_salt_max             =   9.8602403566292E-01
(PID.TID 0000.0001) %MON dynstat_salt_min             =  -2.1559144779860E-02
(PID.TID 0000.0001) %MON dynstat_salt_mean            =   6.6784264350776E-03
(PID.TID 0000.0001) %MON dynstat_salt_sd              =   6.1789879165938E-02
(PID.TID 0000.0001) %MON dynstat_salt_del2            =   4.8535933813464E-04
(PID.TID 0000.0001) %MON advcfl_uvel_max              =   3.5167609153021E-01
(PID.TID 0000.0001) %MON advcfl_vvel_max              =   3.5167600802793E-01
(PID.TID 0000.0001) %MON advcfl_wvel_max              =   1.7684009924930E-04
(PID.TID 0000.0001) %MON advcfl_W_hf_max              =   0.0000000000000E+00
(PID.TID 0000.0001) %MON pe_b_mean                    =   3.6162492677326E+02
(PID.TID 0000.0001) %MON ke_max                       =   7.4496853498621E+02
(PID.TID 0000.0001) %MON ke_mean                      =   5.1080353027635E+02
(PID.TID 0000.0001) %MON ke_vol                       =   5.0990436286464E+19
(PID.TID 0000.0001) %MON vort_r_min                   =  -1.2749657613740E-05
(PID.TID 0000.0001) %MON vort_r_max                   =   1.2749657582033E-05
(PID.TID 0000.0001) %MON vort_a_mean                  =   2.6964863350446E-20
(PID.TID 0000.0001) %MON vort_a_sd                    =   9.1066753654809E-05
(PID.TID 0000.0001) %MON vort_p_mean                  =   2.6964863350446E-20
(PID.TID 0000.0001) %MON vort_p_sd                    =   9.1066753654809E-05
(PID.TID 0000.0001) %MON surfExpan_theta_mean         =   6.9921321163935E-10
(PID.TID 0000.0001) %MON surfExpan_salt_mean          =   3.4027205394076E-05
(PID.TID 0000.0001) %MON surfExpan_Heat_mean          =   5.8703724461189E-08
(PID.TID 0000.0001) %MON En_Budget_T2PE_mean          =   0.0000000000000E+00
(PID.TID 0000.0001) // =======================================================
(PID.TID 0000.0001) // End MONITOR dynamic field statistics
(PID.TID 0000.0001) // =======================================================
 cg2d: Sum(rhs),rhsMax =   1.63388107023823E+03  1.38452997725439E+04
(PID.TID 0000.0001)                    cg2d_init_res =    1.38013202407520E-02
(PID.TID 0000.0001)                       cg2d_iters =    23
(PID.TID 0000.0001)                         cg2d_res =    9.09548375609101E-13
(PID.TID 0000.0001) // =======================================================
(PID.TID 0000.0001) // Begin MONITOR dynamic field statistics
(PID.TID 0000.0001) // =======================================================
(PID.TID 0000.0001) %MON time_tsnumber                =                    17
(PID.TID 0000.0001) %MON time_secondsf                =   2.0400000000000E+04
(PID.TID 0000.0001) %MON dynstat_eta_max              =  -3.4647331654842E+02
(PID.TID 0000.0001) %MON dynstat_eta_min              =  -1.8962736240900E+04
(PID.TID 0000.0001) %MON dynstat_eta_mean             =  -6.4575914913842E+03
(PID.TID 0000.0001) %MON dynstat_eta_sd               =   5.5354027373917E+03
(PID.TID 0000.0001) %MON dynstat_eta_del2             =   1.4794811387647E+01
(PID.TID 0000.0001) %MON dynstat_uvel_max             =   3.8593230454311E+01
(PID.TID 0000.0001) %MON dynstat_uvel_min             =  -2.7572757530889E+01
(PID.TID 0000.0001) %MON dynstat_uvel_mean            =   1.1891507374725E+01
(PID.TID 0000.0001) %MON dynstat_uvel_sd              =   1.9220426383126E+01
(PID.TID 0000.0001) %MON dynstat_uvel_del2            =   3.4707963296640E-02
(PID.TID 0000.0001) %MON dynstat_vvel_max             =   3.8593231849644E+01
(PID.TID 0000.0001) %MON dynstat_vvel_min             =  -2.7572765783527E+01
(PID.TID 0000.0001) %MON dynstat_vvel_mean            =   1.1891507412831E+01
(PID.TID 0000.0001) %MON dynstat_vvel_sd              =   1.9220425994773E+01
(PID.TID 0000.0001) %MON dynstat_vvel_del2            =   3.4708008227790E-02
(PID.TID 0000.0001) %MON dynstat_wvel_max             =   4.0307395162554E-03
(PID.TID 0000.0001) %MON dynstat_wvel_min             =  -9.6073388470668E-03
(PID.TID 0000.0001) %MON dynstat_wvel_mean            =  -4.6532274306940E-12
(PID.TID 0000.0001) %MON dynstat_wvel_sd              =   3.2040795678942E-03
(PID.TID 0000.0001) %MON dynstat_wvel_del2            =   3.0790632260595E-05
(PID.TID 0000.0001) %MON dynstat_theta_max            =   3.0000000000000E+02
(PID.TID 0000.0001) %MON dynstat_theta_min            =   3.0000000000000E+02
(PID.TID 0000.0001) %MON dynstat_theta_mean           =   3.0000000000000E+02
(PID.TID 0000.0001) %MON dynstat_theta_sd             =   0.0000000000000E+00
(PID.TID 0000.0001) %MON dynstat_theta_del2           =   0.0000000000000E+00
(PID.TID 0000.0001) %MON dynstat_salt_max             =   9.8304306939651E-01
(PID.TID 0000.0001) %MON dynstat_salt_min             =  -2.2558986128547E-02
(PID.TID 0000.0001) %MON dynstat_salt_mean            =   6.6781401826340E-03
(PID.TID 0000.0001) %MON dynstat_salt_sd              =   6.1782169546678E-02
(PID.TID 0000.0001) %MON dynstat_salt_del2            =   4.8754757551808E-04
(PID.TID 0000.0001) %MON advcfl_uvel_max              =   3.5180231091609E-01
(PID.TID 0000.0001) %MON advcfl_vvel_max              =   3.5180222394159E-01
(PID.TID 0000.0001) %MON advcfl_wvel_max              =   2.3057612650476E-04
(PID.TID 0000.0001) %MON advcfl_W_hf_max              =   0.0000000000000E+00
(PID.TID 0000.0001) %MON pe_b_mean                    =   3.6170585637111E+02
(PID.TID 0000.0001) %MON ke_max                       =   7.4497194346093E+02
(PID.TID 0000.0001) %MON ke_mean                      =   5.1080517228055E+02
(PID.TID 0000.0001) %MON ke_vol                       =   5.0990436286464E+19
(PID.TID 0000.0001) %MON vort_r_min                   =  -1.2733922621074E-05
(PID.TID 0000.0001) %MON vort_r_max                   =   1.2733922537721E-05
(PID.TID 0000.0001) %MON vort_a_mean                  =   3.6770268205153E-20
(PID.TID 0000.0001) %MON vort_a_sd                    =   9.1066782880928E-05
(PID.TID 0000.0001) %MON vort_p_mean                  =   3.6770268205153E-20
(PID.TID 0000.0001) %MON vort_p_sd                    =   9.1066782880928E-05
(PID.TID 0000.0001) %MON surfExpan_theta_mean         =   5.2261163569558E-10
(PID.TID 0000.0001) %MON surfExpan_salt_mean          =   1.5422498069801E-05
(PID.TID 0000.0001) %MON surfExpan_Heat_mean          =   4.3876816622179E-08
(PID.TID 0000.0001) %MON En_Budget_T2PE_mean          =   0.0000000000000E+00
(PID.TID 0000.0001) // =======================================================
(PID.TID 0000.0001) // End MONITOR dynamic field statistics
(PID.TID 0000.0001) // =======================================================
 cg2d: Sum(rhs),rhsMax =   1.63250942536393E+03  1.38569323869601E+04
(PID.TID 0000.0001)                    cg2d_init_res =    1.96055797453515E-02
(PID.TID 0000.0001)                       cg2d_iters =    23
(PID.TID 0000.0001)                         cg2d_res =    6.48957054415626E-13
(PID.TID 0000.0001) // =======================================================
(PID.TID 0000.0001) // Begin MONITOR dynamic field statistics
(PID.TID 0000.0001) // =======================================================
(PID.TID 0000.0001) %MON time_tsnumber                =                    18
(PID.TID 0000.0001) %MON time_secondsf                =   2.1600000000000E+04
(PID.TID 0000.0001) %MON dynstat_eta_max              =  -3.4358965962501E+02
(PID.TID 0000.0001) %MON dynstat_eta_min              =  -1.8978466574960E+04
(PID.TID 0000.0001) %MON dynstat_eta_mean             =  -6.4575913538706E+03
(PID.TID 0000.0001) %MON dynstat_eta_sd               =   5.5405237890807E+03
(PID.TID 0000.0001) %MON dynstat_eta_del2             =   1.4808426125741E+01
(PID.TID 0000.0001) %MON dynstat_uvel_max             =   3.8593305286224E+01
(PID.TID 0000.0001) %MON dynstat_uvel_min             =  -2.7561893318023E+01
(PID.TID 0000.0001) %MON dynstat_uvel_mean            =   1.1890267272345E+01
(PID.TID 0000.0001) %MON dynstat_uvel_sd              =   1.9215547779726E+01
(PID.TID 0000.0001) %MON dynstat_uvel_del2            =   3.4708868771439E-02
(PID.TID 0000.0001) %MON dynstat_vvel_max             =   3.8593306670925E+01
(PID.TID 0000.0001) %MON dynstat_vvel_min             =  -2.7561904230229E+01
(PID.TID 0000.0001) %MON dynstat_vvel_mean            =   1.1890267296270E+01
(PID.TID 0000.0001) %MON dynstat_vvel_sd              =   1.9215547411560E+01
(PID.TID 0000.0001) %MON dynstat_vvel_del2            =   3.4708920608997E-02
(PID.TID 0000.0001) %MON dynstat_wvel_max             =   3.6369109189159E-03
(PID.TID 0000.0001) %MON dynstat_wvel_min             =  -1.3114767703906E-02
(PID.TID 0000.0001) %MON dynstat_wvel_mean            =  -2.7085388040963E-12
(PID.TID 0000.0001) %MON dynstat_wvel_sd              =   4.6102849465342E-03
(PID.TID 0000.0001) %MON dynstat_wvel_del2            =   2.2652192606822E-05
(PID.TID 0000.0001) %MON dynstat_theta_max            =   3.0000000000000E+02
(PID.TID 0000.0001) %MON dynstat_theta_min            =   3.0000000000000E+02
(PID.TID 0000.0001) %MON dynstat_theta_mean           =   3.0000000000000E+02
(PID.TID 0000.0001) %MON dynstat_theta_sd             =   0.0000000000000E+00
(PID.TID 0000.0001) %MON dynstat_theta_del2           =   0.0000000000000E+00
(PID.TID 0000.0001) %MON dynstat_salt_max             =   9.7867313840304E-01
(PID.TID 0000.0001) %MON dynstat_salt_min             =  -2.4650758238423E-02
(PID.TID 0000.0001) %MON dynstat_salt_mean            =   6.6780890650920E-03
(PID.TID 0000.0001) %MON dynstat_salt_sd              =   6.1775519148113E-02
(PID.TID 0000.0001) %MON dynstat_salt_del2            =   4.8965843991133E-04
(PID.TID 0000.0001) %MON advcfl_uvel_max              =   3.5176077629384E-01
(PID.TID 0000.0001) %MON advcfl_vvel_max              =   3.5176068681973E-01
(PID.TID 0000.0001) %MON advcfl_wvel_max              =   3.1475441694237E-04
(PID.TID 0000.0001) %MON advcfl_W_hf_max              =   0.0000000000000E+00
(PID.TID 0000.0001) %MON pe_b_mean                    =   3.6198944945132E+02
(PID.TID 0000.0001) %MON ke_max                       =   7.4497699190964E+02
(PID.TID 0000.0001) %MON ke_mean                      =   5.1058818503828E+02
(PID.TID 0000.0001) %MON ke_vol                       =   5.0990436286464E+19
(PID.TID 0000.0001) %MON vort_r_min                   =  -1.2710875242588E-05
(PID.TID 0000.0001) %MON vort_r_max                   =   1.2710875117495E-05
(PID.TID 0000.0001) %MON vort_a_mean                  =  -4.9027024273537E-21
(PID.TID 0000.0001) %MON vort_a_sd                    =   9.1065256173232E-05
(PID.TID 0000.0001) %MON vort_p_mean                  =  -4.9027024273537E-21
(PID.TID 0000.0001) %MON vort_p_sd                    =   9.1065256173232E-05
(PID.TID 0000.0001) %MON surfExpan_theta_mean         =   3.1018990818478E-10
(PID.TID 0000.0001) %MON surfExpan_salt_mean          =  -4.0654168597602E-06
(PID.TID 0000.0001) %MON surfExpan_Heat_mean          =   2.6042621813584E-08
(PID.TID 0000.0001) %MON En_Budget_T2PE_mean          =   0.0000000000000E+00
(PID.TID 0000.0001) // =======================================================
(PID.TID 0000.0001) // End MONITOR dynamic field statistics
(PID.TID 0000.0001) // =======================================================
 Computing Diagnostic #     27  SALT         Counter:      18   Parms: SM      MR      
 Computing Diagnostic #     33  SALTSQ       Counter:      18   Parms: SM P    MR      
 cg2d: Sum(rhs),rhsMax =   1.63087270353282E+03  1.38708387218698E+04
(PID.TID 0000.0001)                    cg2d_init_res =    2.98577679252008E-02
(PID.TID 0000.0001)                       cg2d_iters =    23
(PID.TID 0000.0001)                         cg2d_res =    8.52110972661279E-13
(PID.TID 0000.0001) // =======================================================
(PID.TID 0000.0001) // Begin MONITOR dynamic field statistics
(PID.TID 0000.0001) // =======================================================
(PID.TID 0000.0001) %MON time_tsnumber                =                    19
(PID.TID 0000.0001) %MON time_secondsf                =   2.2800000000000E+04
(PID.TID 0000.0001) %MON dynstat_eta_max              =  -3.3494565053716E+02
(PID.TID 0000.0001) %MON dynstat_eta_min              =  -1.8997464971317E+04
(PID.TID 0000.0001) %MON dynstat_eta_mean             =  -6.4575912163563E+03
(PID.TID 0000.0001) %MON dynstat_eta_sd               =   5.5490186445196E+03
(PID.TID 0000.0001) %MON dynstat_eta_del2             =   1.4832536277182E+01
(PID.TID 0000.0001) %MON dynstat_uvel_max             =   3.8593489790032E+01
(PID.TID 0000.0001) %MON dynstat_uvel_min             =  -2.7542708830072E+01
(PID.TID 0000.0001) %MON dynstat_uvel_mean            =   1.1887062819691E+01
(PID.TID 0000.0001) %MON dynstat_uvel_sd              =   1.9206539175281E+01
(PID.TID 0000.0001) %MON dynstat_uvel_del2            =   3.4705572686726E-02
(PID.TID 0000.0001) %MON dynstat_vvel_max             =   3.8593491174899E+01
(PID.TID 0000.0001) %MON dynstat_vvel_min             =  -2.7542731179319E+01
(PID.TID 0000.0001) %MON dynstat_vvel_mean            =   1.1887062830440E+01
(PID.TID 0000.0001) %MON dynstat_vvel_sd              =   1.9206538831587E+01
(PID.TID 0000.0001) %MON dynstat_vvel_del2            =   3.4705625872785E-02
(PID.TID 0000.0001) %MON dynstat_wvel_max             =   7.2063938405619E-03
(PID.TID 0000.0001) %MON dynstat_wvel_min             =  -1.5838159155190E-02
(PID.TID 0000.0001) %MON dynstat_wvel_mean            =  -5.7267146513731E-13
(PID.TID 0000.0001) %MON dynstat_wvel_sd              =   7.0953420371139E-03
(PID.TID 0000.0001) %MON dynstat_wvel_del2            =   2.3075900681802E-05
(PID.TID 0000.0001) %MON dynstat_theta_max            =   3.0000000000000E+02
(PID.TID 0000.0001) %MON dynstat_theta_min            =   3.0000000000000E+02
(PID.TID 0000.0001) %MON dynstat_theta_mean           =   3.0000000000000E+02
(PID.TID 0000.0001) %MON dynstat_theta_sd             =   0.0000000000000E+00
(PID.TID 0000.0001) %MON dynstat_theta_del2           =   0.0000000000000E+00
(PID.TID 0000.0001) %MON dynstat_salt_max             =   9.7556822139339E-01
(PID.TID 0000.0001) %MON dynstat_salt_min             =  -2.6521367289368E-02
(PID.TID 0000.0001) %MON dynstat_salt_mean            =   6.6782781616231E-03
(PID.TID 0000.0001) %MON dynstat_salt_sd              =   6.1769961585593E-02
(PID.TID 0000.0001) %MON dynstat_salt_del2            =   4.9109719305749E-04
(PID.TID 0000.0001) %MON advcfl_uvel_max              =   3.5155875850960E-01
(PID.TID 0000.0001) %MON advcfl_vvel_max              =   3.5155866729808E-01
(PID.TID 0000.0001) %MON advcfl_wvel_max              =   3.8011581012203E-04
(PID.TID 0000.0001) %MON advcfl_W_hf_max              =   0.0000000000000E+00
(PID.TID 0000.0001) %MON pe_b_mean                    =   3.6246046086953E+02
(PID.TID 0000.0001) %MON ke_max                       =   7.4498367185028E+02
(PID.TID 0000.0001) %MON ke_mean                      =   5.1016591249018E+02
(PID.TID 0000.0001) %MON ke_vol                       =   5.0990436286464E+19
(PID.TID 0000.0001) %MON vort_r_min                   =  -1.2682040196135E-05
(PID.TID 0000.0001) %MON vort_r_max                   =   1.2682040047047E-05
(PID.TID 0000.0001) %MON vort_a_mean                  =   9.8054048547075E-21
(PID.TID 0000.0001) %MON vort_a_sd                    =   9.1062271682304E-05
(PID.TID 0000.0001) %MON vort_p_mean                  =   9.8054048547075E-21
(PID.TID 0000.0001) %MON vort_p_sd                    =   9.1062271682304E-05
(PID.TID 0000.0001) %MON surfExpan_theta_mean         =   7.3515562878114E-11
(PID.TID 0000.0001) %MON surfExpan_salt_mean          =  -2.3591503400935E-05
(PID.TID 0000.0001) %MON surfExpan_Heat_mean          =   6.1721666024155E-09
(PID.TID 0000.0001) %MON En_Budget_T2PE_mean          =   0.0000000000000E+00
(PID.TID 0000.0001) // =======================================================
(PID.TID 0000.0001) // End MONITOR dynamic field statistics
(PID.TID 0000.0001) // =======================================================
 Compute Stats, Diag. #     23  ETAN      vol(   0 ): 5.099E+14  Parms: SM      M1      
 Compute Stats, Diag. #    134  momKE     vol(   0 ): 5.099E+19  Parms: SM      MR      
 Compute Stats, Diag. #     27  SALT      vol(   0 ): 5.099E+19  Parms: SM      MR      
 Compute Stats, Diag. #     33  SALTSQ    vol(   0 ): 5.099E+19  Parms: SM P    MR      
 cg2d: Sum(rhs),rhsMax =   1.62905209804239E+03  1.38863402785328E+04
(PID.TID 0000.0001)                    cg2d_init_res =    4.03263069512972E-02
(PID.TID 0000.0001)                       cg2d_iters =    23
(PID.TID 0000.0001)                         cg2d_res =    9.92346719019595E-13
(PID.TID 0000.0001) // =======================================================
(PID.TID 0000.0001) // Begin MONITOR dynamic field statistics
(PID.TID 0000.0001) // =======================================================
(PID.TID 0000.0001) %MON time_tsnumber                =                    20
(PID.TID 0000.0001) %MON time_secondsf                =   2.4000000000000E+04
(PID.TID 0000.0001) %MON dynstat_eta_max              =  -3.2088677791347E+02
(PID.TID 0000.0001) %MON dynstat_eta_min              =  -1.9018804317579E+04
(PID.TID 0000.0001) %MON dynstat_eta_mean             =  -6.4575910788293E+03
(PID.TID 0000.0001) %MON dynstat_eta_sd               =   5.5604961222327E+03
(PID.TID 0000.0001) %MON dynstat_eta_del2             =   1.4865936911086E+01
(PID.TID 0000.0001) %MON dynstat_uvel_max             =   3.8593784684548E+01
(PID.TID 0000.0001) %MON dynstat_uvel_min             =  -2.7514894574394E+01
(PID.TID 0000.0001) %MON dynstat_uvel_mean            =   1.1882040829690E+01
(PID.TID 0000.0001) %MON dynstat_uvel_sd              =   1.9193815156838E+01
(PID.TID 0000.0001) %MON dynstat_uvel_del2            =   3.4696634366057E-02
(PID.TID 0000.0001) %MON dynstat_vvel_max             =   3.8593786094810E+01
(PID.TID 0000.0001) %MON dynstat_vvel_min             =  -2.7514920754226E+01
(PID.TID 0000.0001) %MON dynstat_vvel_mean            =   1.1882040829731E+01
(PID.TID 0000.0001) %MON dynstat_vvel_sd              =   1.9193814839201E+01
(PID.TID 0000.0001) %MON dynstat_vvel_del2            =   3.4696689219766E-02
(PID.TID 0000.0001) %MON dynstat_wvel_max             =   1.1720422595034E-02
(PID.TID 0000.0001) %MON dynstat_wvel_min             =  -1.7788964898563E-02
(PID.TID 0000.0001) %MON dynstat_wvel_mean            =   1.6328006122981E-12
(PID.TID 0000.0001) %MON dynstat_wvel_sd              =   9.6289599256758E-03
(PID.TID 0000.0001) %MON dynstat_wvel_del2            =   3.1229443726512E-05
(PID.TID 0000.0001) %MON dynstat_theta_max            =   3.0000000000000E+02
(PID.TID 0000.0001) %MON dynstat_theta_min            =   3.0000000000000E+02
(PID.TID 0000.0001) %MON dynstat_theta_mean           =   3.0000000000000E+02
(PID.TID 0000.0001) %MON dynstat_theta_sd             =   0.0000000000000E+00
(PID.TID 0000.0001) %MON dynstat_theta_del2           =   0.0000000000000E+00
(PID.TID 0000.0001) %MON dynstat_salt_max             =   9.8130817820381E-01
(PID.TID 0000.0001) %MON dynstat_salt_min             =  -2.7820015753484E-02
(PID.TID 0000.0001) %MON dynstat_salt_mean            =   6.6787018460401E-03
(PID.TID 0000.0001) %MON dynstat_salt_sd              =   6.1765480803781E-02
(PID.TID 0000.0001) %MON dynstat_salt_del2            =   4.9182462861516E-04
(PID.TID 0000.0001) %MON advcfl_uvel_max              =   3.5120938197514E-01
(PID.TID 0000.0001) %MON advcfl_vvel_max              =   3.5120928957013E-01
(PID.TID 0000.0001) %MON advcfl_wvel_max              =   4.2693514678022E-04
(PID.TID 0000.0001) %MON advcfl_W_hf_max              =   0.0000000000000E+00
(PID.TID 0000.0001) %MON pe_b_mean                    =   3.6309799802836E+02
(PID.TID 0000.0001) %MON ke_max                       =   7.4499173570319E+02
(PID.TID 0000.0001) %MON ke_mean                      =   5.0955801667096E+02
(PID.TID 0000.0001) %MON ke_vol                       =   5.0990436286464E+19
(PID.TID 0000.0001) %MON vort_r_min                   =  -1.2648941992595E-05
(PID.TID 0000.0001) %MON vort_r_max                   =   1.2648941840718E-05
(PID.TID 0000.0001) %MON vort_a_mean                  =  -1.4708107282061E-20
(PID.TID 0000.0001) %MON vort_a_sd                    =   9.1057975110690E-05
(PID.TID 0000.0001) %MON vort_p_mean                  =  -1.4708107282061E-20
(PID.TID 0000.0001) %MON vort_p_sd                    =   9.1057975110690E-05
(PID.TID 0000.0001) %MON surfExpan_theta_mean         =  -1.7356036532579E-10
(PID.TID 0000.0001) %MON surfExpan_salt_mean          =  -4.2282256357844E-05
(PID.TID 0000.0001) %MON surfExpan_Heat_mean          =  -1.4571709376602E-08
(PID.TID 0000.0001) %MON En_Budget_T2PE_mean          =   0.0000000000000E+00
(PID.TID 0000.0001) // =======================================================
(PID.TID 0000.0001) // End MONITOR dynamic field statistics
(PID.TID 0000.0001) // =======================================================
(PID.TID 0000.0001) %CHECKPOINT        20 ckptA
(PID.TID 0000.0001) DIAGSTATS_CLOSE_IO: close file: dynStDiag.0000000000.txt , unit=     9
(PID.TID 0000.0001)   Seconds in section "ALL                    [THE_MODEL_MAIN]":
(PID.TID 0000.0001)           User time:  3.65844399
(PID.TID 0000.0001)         System time:  0.159975998
(PID.TID 0000.0001)     Wall clock time:  3.91477394
(PID.TID 0000.0001)          No. starts: 1
(PID.TID 0000.0001)           No. stops: 1
(PID.TID 0000.0001)   Seconds in section "INITIALISE_FIXED       [THE_MODEL_MAIN]":
(PID.TID 0000.0001)           User time:  0.269959005
(PID.TID 0000.0001)         System time:  0.077987999
(PID.TID 0000.0001)     Wall clock time:  0.420463085
(PID.TID 0000.0001)          No. starts: 1
(PID.TID 0000.0001)           No. stops: 1
(PID.TID 0000.0001)   Seconds in section "THE_MAIN_LOOP          [THE_MODEL_MAIN]":
(PID.TID 0000.0001)           User time:  3.38848498
(PID.TID 0000.0001)         System time:  0.0809879974
(PID.TID 0000.0001)     Wall clock time:  3.49407816
(PID.TID 0000.0001)          No. starts: 1
(PID.TID 0000.0001)           No. stops: 1
(PID.TID 0000.0001)   Seconds in section "INITIALISE_VARIA    [THE_MAIN_LOOP]":
(PID.TID 0000.0001)           User time:  0.0719889998
(PID.TID 0000.0001)         System time:  0.0229969993
(PID.TID 0000.0001)     Wall clock time:  0.114709139
(PID.TID 0000.0001)          No. starts: 1
(PID.TID 0000.0001)           No. stops: 1
(PID.TID 0000.0001)   Seconds in section "MAIN LOOP           [THE_MAIN_LOOP]":
(PID.TID 0000.0001)           User time:  3.31649598
(PID.TID 0000.0001)         System time:  0.057990998
(PID.TID 0000.0001)     Wall clock time:  3.379246
(PID.TID 0000.0001)          No. starts: 1
(PID.TID 0000.0001)           No. stops: 1
(PID.TID 0000.0001)   Seconds in section "FORWARD_STEP        [THE_MAIN_LOOP]":
(PID.TID 0000.0001)           User time:  3.31649598
(PID.TID 0000.0001)         System time:  0.057990998
(PID.TID 0000.0001)     Wall clock time:  3.37838316
(PID.TID 0000.0001)          No. starts: 20
(PID.TID 0000.0001)           No. stops: 20
(PID.TID 0000.0001)   Seconds in section "DO_STATEVARS_DIAGS  [FORWARD_STEP]":
(PID.TID 0000.0001)           User time:  0.0159975588
(PID.TID 0000.0001)         System time:  0.
(PID.TID 0000.0001)     Wall clock time:  0.0135171413
(PID.TID 0000.0001)          No. starts: 40
(PID.TID 0000.0001)           No. stops: 40
(PID.TID 0000.0001)   Seconds in section "LOAD_FIELDS_DRIVER  [FORWARD_STEP]":
(PID.TID 0000.0001)           User time:  0.00199985504
(PID.TID 0000.0001)         System time:  0.
(PID.TID 0000.0001)     Wall clock time:  0.00244021416
(PID.TID 0000.0001)          No. starts: 20
(PID.TID 0000.0001)           No. stops: 20
(PID.TID 0000.0001)   Seconds in section "EXTERNAL_FLDS_LOAD [LOAD_FLDS_DRIVER]":
(PID.TID 0000.0001)           User time:  0.00199985504
(PID.TID 0000.0001)         System time:  0.
(PID.TID 0000.0001)     Wall clock time:  0.000826358795
(PID.TID 0000.0001)          No. starts: 20
(PID.TID 0000.0001)           No. stops: 20
(PID.TID 0000.0001)   Seconds in section "DO_ATMOSPHERIC_PHYS [FORWARD_STEP]":
(PID.TID 0000.0001)           User time:  0.
(PID.TID 0000.0001)         System time:  0.
(PID.TID 0000.0001)     Wall clock time:  0.000804185867
(PID.TID 0000.0001)          No. starts: 20
(PID.TID 0000.0001)           No. stops: 20
(PID.TID 0000.0001)   Seconds in section "DO_OCEANIC_PHYS     [FORWARD_STEP]":
(PID.TID 0000.0001)           User time:  0.
(PID.TID 0000.0001)         System time:  0.
(PID.TID 0000.0001)     Wall clock time:  0.000816345215
(PID.TID 0000.0001)          No. starts: 20
(PID.TID 0000.0001)           No. stops: 20
(PID.TID 0000.0001)   Seconds in section "THERMODYNAMICS      [FORWARD_STEP]":
(PID.TID 0000.0001)           User time:  0.166975737
(PID.TID 0000.0001)         System time:  0.
(PID.TID 0000.0001)     Wall clock time:  0.165667057
(PID.TID 0000.0001)          No. starts: 20
(PID.TID 0000.0001)           No. stops: 20
(PID.TID 0000.0001)   Seconds in section "DYNAMICS            [FORWARD_STEP]":
(PID.TID 0000.0001)           User time:  0.598907828
(PID.TID 0000.0001)         System time:  0.
(PID.TID 0000.0001)     Wall clock time:  0.600921869
(PID.TID 0000.0001)          No. starts: 20
(PID.TID 0000.0001)           No. stops: 20
(PID.TID 0000.0001)   Seconds in section "SOLVE_FOR_PRESSURE  [FORWARD_STEP]":
(PID.TID 0000.0001)           User time:  1.77173018
(PID.TID 0000.0001)         System time:  0.00200000405
(PID.TID 0000.0001)     Wall clock time:  1.77534723
(PID.TID 0000.0001)          No. starts: 20
(PID.TID 0000.0001)           No. stops: 20
(PID.TID 0000.0001)   Seconds in section "MOM_CORRECTION_STEP [FORWARD_STEP]":
(PID.TID 0000.0001)           User time:  0.06899032
(PID.TID 0000.0001)         System time:  0.
(PID.TID 0000.0001)     Wall clock time:  0.0706584454
(PID.TID 0000.0001)          No. starts: 20
(PID.TID 0000.0001)           No. stops: 20
(PID.TID 0000.0001)   Seconds in section "TRC_CORRECTION_STEP [FORWARD_STEP]":
(PID.TID 0000.0001)           User time:  0.0079998672
(PID.TID 0000.0001)         System time:  0.
(PID.TID 0000.0001)     Wall clock time:  0.00564193726
(PID.TID 0000.0001)          No. starts: 20
(PID.TID 0000.0001)           No. stops: 20
(PID.TID 0000.0001)   Seconds in section "BLOCKING_EXCHANGES  [FORWARD_STEP]":
(PID.TID 0000.0001)           User time:  0.0439922214
(PID.TID 0000.0001)         System time:  0.
(PID.TID 0000.0001)     Wall clock time:  0.0445981026
(PID.TID 0000.0001)          No. starts: 20
(PID.TID 0000.0001)           No. stops: 20
(PID.TID 0000.0001)   Seconds in section "MONITOR             [FORWARD_STEP]":
(PID.TID 0000.0001)           User time:  0.583910644
(PID.TID 0000.0001)         System time:  0.0019999966
(PID.TID 0000.0001)     Wall clock time:  0.588091135
(PID.TID 0000.0001)          No. starts: 20
(PID.TID 0000.0001)           No. stops: 20
(PID.TID 0000.0001)   Seconds in section "DO_THE_MODEL_IO     [FORWARD_STEP]":
(PID.TID 0000.0001)           User time:  0.0269961357
(PID.TID 0000.0001)         System time:  0.0259959996
(PID.TID 0000.0001)     Wall clock time:  0.051981926
(PID.TID 0000.0001)          No. starts: 20
(PID.TID 0000.0001)           No. stops: 20
(PID.TID 0000.0001)   Seconds in section "DO_WRITE_PICKUP     [FORWARD_STEP]":
(PID.TID 0000.0001)           User time:  0.0199968815
(PID.TID 0000.0001)         System time:  0.0259949937
(PID.TID 0000.0001)     Wall clock time:  0.0455543995
(PID.TID 0000.0001)          No. starts: 20
(PID.TID 0000.0001)           No. stops: 20
(PID.TID 0000.0001) // ======================================================
(PID.TID 0000.0001) // Tile <-> Tile communication statistics
(PID.TID 0000.0001) // ======================================================
(PID.TID 0000.0001) // o Tile number: 000001
(PID.TID 0000.0001) //         No. X exchanges =              0
(PID.TID 0000.0001) //            Max. X spins =              0
(PID.TID 0000.0001) //            Min. X spins =     1000000000
(PID.TID 0000.0001) //          Total. X spins =              0
(PID.TID 0000.0001) //            Avg. X spins =       0.00E+00
(PID.TID 0000.0001) //         No. Y exchanges =              0
(PID.TID 0000.0001) //            Max. Y spins =              0
(PID.TID 0000.0001) //            Min. Y spins =     1000000000
(PID.TID 0000.0001) //          Total. Y spins =              0
(PID.TID 0000.0001) //            Avg. Y spins =       0.00E+00
(PID.TID 0000.0001) // o Tile number: 000002
(PID.TID 0000.0001) //         No. X exchanges =              0
(PID.TID 0000.0001) //            Max. X spins =              0
(PID.TID 0000.0001) //            Min. X spins =     1000000000
(PID.TID 0000.0001) //          Total. X spins =              0
(PID.TID 0000.0001) //            Avg. X spins =       0.00E+00
(PID.TID 0000.0001) //         No. Y exchanges =              0
(PID.TID 0000.0001) //            Max. Y spins =              0
(PID.TID 0000.0001) //            Min. Y spins =     1000000000
(PID.TID 0000.0001) //          Total. Y spins =              0
(PID.TID 0000.0001) //            Avg. Y spins =       0.00E+00
(PID.TID 0000.0001) // o Tile number: 000003
(PID.TID 0000.0001) //         No. X exchanges =              0
(PID.TID 0000.0001) //            Max. X spins =              0
(PID.TID 0000.0001) //            Min. X spins =     1000000000
(PID.TID 0000.0001) //          Total. X spins =              0
(PID.TID 0000.0001) //            Avg. X spins =       0.00E+00
(PID.TID 0000.0001) //         No. Y exchanges =              0
(PID.TID 0000.0001) //            Max. Y spins =              0
(PID.TID 0000.0001) //            Min. Y spins =     1000000000
(PID.TID 0000.0001) //          Total. Y spins =              0
(PID.TID 0000.0001) //            Avg. Y spins =       0.00E+00
(PID.TID 0000.0001) // o Tile number: 000004
(PID.TID 0000.0001) //         No. X exchanges =              0
(PID.TID 0000.0001) //            Max. X spins =              0
(PID.TID 0000.0001) //            Min. X spins =     1000000000
(PID.TID 0000.0001) //          Total. X spins =              0
(PID.TID 0000.0001) //            Avg. X spins =       0.00E+00
(PID.TID 0000.0001) //         No. Y exchanges =              0
(PID.TID 0000.0001) //            Max. Y spins =              0
(PID.TID 0000.0001) //            Min. Y spins =     1000000000
(PID.TID 0000.0001) //          Total. Y spins =              0
(PID.TID 0000.0001) //            Avg. Y spins =       0.00E+00
(PID.TID 0000.0001) // o Tile number: 000005
(PID.TID 0000.0001) //         No. X exchanges =              0
(PID.TID 0000.0001) //            Max. X spins =              0
(PID.TID 0000.0001) //            Min. X spins =     1000000000
(PID.TID 0000.0001) //          Total. X spins =              0
(PID.TID 0000.0001) //            Avg. X spins =       0.00E+00
(PID.TID 0000.0001) //         No. Y exchanges =              0
(PID.TID 0000.0001) //            Max. Y spins =              0
(PID.TID 0000.0001) //            Min. Y spins =     1000000000
(PID.TID 0000.0001) //          Total. Y spins =              0
(PID.TID 0000.0001) //            Avg. Y spins =       0.00E+00
(PID.TID 0000.0001) // o Tile number: 000006
(PID.TID 0000.0001) //         No. X exchanges =              0
(PID.TID 0000.0001) //            Max. X spins =              0
(PID.TID 0000.0001) //            Min. X spins =     1000000000
(PID.TID 0000.0001) //          Total. X spins =              0
(PID.TID 0000.0001) //            Avg. X spins =       0.00E+00
(PID.TID 0000.0001) //         No. Y exchanges =              0
(PID.TID 0000.0001) //            Max. Y spins =              0
(PID.TID 0000.0001) //            Min. Y spins =     1000000000
(PID.TID 0000.0001) //          Total. Y spins =              0
(PID.TID 0000.0001) //            Avg. Y spins =       0.00E+00
(PID.TID 0000.0001) // o Thread number: 000001
(PID.TID 0000.0001) //            No. barriers =          19816
(PID.TID 0000.0001) //      Max. barrier spins =              1
(PID.TID 0000.0001) //      Min. barrier spins =              1
(PID.TID 0000.0001) //     Total barrier spins =          19816
(PID.TID 0000.0001) //      Avg. barrier spins =       1.00E+00
