(PID.TID 0000.0001) 
(PID.TID 0000.0001) // ======================================================
(PID.TID 0000.0001) //                      MITgcm UV
(PID.TID 0000.0001) //                      =========
(PID.TID 0000.0001) // ======================================================
(PID.TID 0000.0001) // execution environment starting up...
(PID.TID 0000.0001) // Run starting Wed Apr  1 14:19:48 1998
(PID.TID 0000.0001) // on melville.lcs.mit.edu
(PID.TID 0000.0001) // account cnh
(PID.TID 0000.0001) // MITgcm UV Release: $Name:  $
(PID.TID 0000.0001) 
(PID.TID 0000.0001) // =======================================================
(PID.TID 0000.0001) // Execution Environment parameter file "eedata"
(PID.TID 0000.0001) // =======================================================
(PID.TID 0000.0001) ># Example "eedata" file
(PID.TID 0000.0001) ># Lines beginning "#" are comments
(PID.TID 0000.0001) ># nTx - No. threads per process in X
(PID.TID 0000.0001) ># nTy - No. threads per process in Y
(PID.TID 0000.0001) > &EEPARMS
(PID.TID 0000.0001) > useCubedSphereExchange=.TRUE.,
(PID.TID 0000.0001) > &
(PID.TID 0000.0001) ># Note: Some systems use & as the
(PID.TID 0000.0001) ># namelist terminator. Other systems
(PID.TID 0000.0001) ># use a / character (as shown here).
(PID.TID 0000.0001) 
(PID.TID 0000.0001) // =======================================================
(PID.TID 0000.0001) // Computational Grid Specification ( see files "SIZE.h" )
(PID.TID 0000.0001) //                                  ( and "eedata"       )
(PID.TID 0000.0001) // =======================================================
(PID.TID 0000.0001)      nPx =    1 ; /* No. processes in X */
(PID.TID 0000.0001)      nPy =    1 ; /* No. processes in Y */
(PID.TID 0000.0001)      nSx =    6 ; /* No. tiles in X per process */
(PID.TID 0000.0001)      nSy =    1 ; /* No. tiles in Y per process */
(PID.TID 0000.0001)      sNx =   32 ; /* Tile size in X */
(PID.TID 0000.0001)      sNy =   32 ; /* Tile size in Y */
(PID.TID 0000.0001)      OLx =    3 ; /* Tile overlap distance in X */
(PID.TID 0000.0001)      OLy =    3 ; /* Tile overlap distance in Y */
(PID.TID 0000.0001)      nTx =    1 ; /* No. threads in X per process */
(PID.TID 0000.0001)      nTy =    1 ; /* No. threads in Y per process */
(PID.TID 0000.0001)       Nr =    1 ; /* No. levels in the vertical   */
(PID.TID 0000.0001)       nX =  192 ; /* Total domain size in X ( = nPx*nSx*sNx ) */
(PID.TID 0000.0001)       nY =   32 ; /* Total domain size in Y ( = nPy*nSy*sNy ) */
(PID.TID 0000.0001)   nTiles =    6 ; /* Total no. tiles per process ( = nSx*nSy ) */
(PID.TID 0000.0001)   nProcs =    1 ; /* Total no. processes ( = nPx*nPy ) */
(PID.TID 0000.0001) nThreads =    1 ; /* Total no. threads per process ( = nTx*nTy ) */
(PID.TID 0000.0001) usingMPI =    F ; /* Flag used to control whether MPI is in use */
(PID.TID 0000.0001)                   /*  note: To execute a program with MPI calls */
(PID.TID 0000.0001)                   /*  it must be launched appropriately e.g     */
(PID.TID 0000.0001)                   /*  "mpirun -np 64 ......"                    */
(PID.TID 0000.0001) 
(PID.TID 0000.0001) // ======================================================
(PID.TID 0000.0001) // Mapping of tiles to threads
(PID.TID 0000.0001) // ======================================================
(PID.TID 0000.0001) // -o- Thread   1, tiles (   1:   6,   1:   1)
(PID.TID 0000.0001) 
(PID.TID 0000.0001) // ======================================================
(PID.TID 0000.0001) // Tile <-> Tile connectvity table
(PID.TID 0000.0001) // ======================================================
(PID.TID 0000.0001) // Tile number: 000001 (process no. = 000001)
(PID.TID 0000.0001) //        WEST: Tile = 000006, Process = 000001, Comm = put
(PID.TID 0000.0001) //                bi = 000006, bj = 000001
(PID.TID 0000.0001) //        EAST: Tile = 000002, Process = 000001, Comm = put
(PID.TID 0000.0001) //                bi = 000002, bj = 000001
(PID.TID 0000.0001) //       SOUTH: Tile = 000001, Process = 000001, Comm = put
(PID.TID 0000.0001) //                bi = 000001, bj = 000001
(PID.TID 0000.0001) //       NORTH: Tile = 000001, Process = 000001, Comm = put
(PID.TID 0000.0001) //                bi = 000001, bj = 000001
(PID.TID 0000.0001) // Tile number: 000002 (process no. = 000001)
(PID.TID 0000.0001) //        WEST: Tile = 000001, Process = 000001, Comm = put
(PID.TID 0000.0001) //                bi = 000001, bj = 000001
(PID.TID 0000.0001) //        EAST: Tile = 000003, Process = 000001, Comm = put
(PID.TID 0000.0001) //                bi = 000003, bj = 000001
(PID.TID 0000.0001) //       SOUTH: Tile = 000002, Process = 000001, Comm = put
(PID.TID 0000.0001) //                bi = 000002, bj = 000001
(PID.TID 0000.0001) //       NORTH: Tile = 000002, Process = 000001, Comm = put
(PID.TID 0000.0001) //                bi = 000002, bj = 000001
(PID.TID 0000.0001) // Tile number: 000003 (process no. = 000001)
(PID.TID 0000.0001) //        WEST: Tile = 000002, Process = 000001, Comm = put
(PID.TID 0000.0001) //                bi = 000002, bj = 000001
(PID.TID 0000.0001) //        EAST: Tile = 000004, Process = 000001, Comm = put
(PID.TID 0000.0001) //                bi = 000004, bj = 000001
(PID.TID 0000.0001) //       SOUTH: Tile = 000003, Process = 000001, Comm = put
(PID.TID 0000.0001) //                bi = 000003, bj = 000001
(PID.TID 0000.0001) //       NORTH: Tile = 000003, Process = 000001, Comm = put
(PID.TID 0000.0001) //                bi = 000003, bj = 000001
(PID.TID 0000.0001) // Tile number: 000004 (process no. = 000001)
(PID.TID 0000.0001) //        WEST: Tile = 000003, Process = 000001, Comm = put
(PID.TID 0000.0001) //                bi = 000003, bj = 000001
(PID.TID 0000.0001) //        EAST: Tile = 000005, Process = 000001, Comm = put
(PID.TID 0000.0001) //                bi = 000005, bj = 000001
(PID.TID 0000.0001) //       SOUTH: Tile = 000004, Process = 000001, Comm = put
(PID.TID 0000.0001) //                bi = 000004, bj = 000001
(PID.TID 0000.0001) //       NORTH: Tile = 000004, Process = 000001, Comm = put
(PID.TID 0000.0001) //                bi = 000004, bj = 000001
(PID.TID 0000.0001) // Tile number: 000005 (process no. = 000001)
(PID.TID 0000.0001) //        WEST: Tile = 000004, Process = 000001, Comm = put
(PID.TID 0000.0001) //                bi = 000004, bj = 000001
(PID.TID 0000.0001) //        EAST: Tile = 000006, Process = 000001, Comm = put
(PID.TID 0000.0001) //                bi = 000006, bj = 000001
(PID.TID 0000.0001) //       SOUTH: Tile = 000005, Process = 000001, Comm = put
(PID.TID 0000.0001) //                bi = 000005, bj = 000001
(PID.TID 0000.0001) //       NORTH: Tile = 000005, Process = 000001, Comm = put
(PID.TID 0000.0001) //                bi = 000005, bj = 000001
(PID.TID 0000.0001) // Tile number: 000006 (process no. = 000001)
(PID.TID 0000.0001) //        WEST: Tile = 000005, Process = 000001, Comm = put
(PID.TID 0000.0001) //                bi = 000005, bj = 000001
(PID.TID 0000.0001) //        EAST: Tile = 000001, Process = 000001, Comm = put
(PID.TID 0000.0001) //                bi = 000001, bj = 000001
(PID.TID 0000.0001) //       SOUTH: Tile = 000006, Process = 000001, Comm = put
(PID.TID 0000.0001) //                bi = 000006, bj = 000001
(PID.TID 0000.0001) //       NORTH: Tile = 000006, Process = 000001, Comm = put
(PID.TID 0000.0001) //                bi = 000006, bj = 000001
(PID.TID 0000.0001) 
(PID.TID 0000.0001) // =======================================================
(PID.TID 0000.0001) // Model parameter file "data"
(PID.TID 0000.0001) // =======================================================
(PID.TID 0000.0001) ># ====================
(PID.TID 0000.0001) ># | Model parameters |
(PID.TID 0000.0001) ># ====================
(PID.TID 0000.0001) >#
(PID.TID 0000.0001) ># Continuous equation parameters
(PID.TID 0000.0001) > &PARM01
(PID.TID 0000.0001) > tRef=300.,
(PID.TID 0000.0001) > sRef=0.,
(PID.TID 0000.0001) > viscAr=0.,
(PID.TID 0000.0001) > viscAh=0.,
(PID.TID 0000.0001) > viscA4=0.,
(PID.TID 0000.0001) > no_slip_sides=.FALSE.,
(PID.TID 0000.0001) > no_slip_bottom=.FALSE.,
(PID.TID 0000.0001) > diffKrT=0.,
(PID.TID 0000.0001) > diffKhT=0.,
(PID.TID 0000.0001) > diffK4T=0.,
(PID.TID 0000.0001) > diffKrS=0.,
(PID.TID 0000.0001) > diffKhS=0.,
(PID.TID 0000.0001) > diffK4S=0.,
(PID.TID 0000.0001) > buoyancyRelation='ATMOSPHERIC',
(PID.TID 0000.0001) > eosType='IDEALGAS',
(PID.TID 0000.0001) > gravity=9.81,
(PID.TID 0000.0001) > gBaro=9.81,
(PID.TID 0000.0001) > rhonil=1.0,
(PID.TID 0000.0001) > rhoConst=1.0,
(PID.TID 0000.0001) > rigidLid=.FALSE.,
(PID.TID 0000.0001) > implicitFreeSurface=.TRUE.,
(PID.TID 0000.0001) > nonHydrostatic=.FALSE.,
(PID.TID 0000.0001) > readBinaryPrec=64,
(PID.TID 0000.0001) > writeBinaryPrec=64,
(PID.TID 0000.0001) > tempStepping=.FALSE.,
(PID.TID 0000.0001) > saltStepping=.TRUE.,
(PID.TID 0000.0001) > vectorInvariantMomentum=.TRUE.,
(PID.TID 0000.0001) > &
(PID.TID 0000.0001) >
(PID.TID 0000.0001) ># Elliptic solver parameters
(PID.TID 0000.0001) > &PARM02
(PID.TID 0000.0001) > cg2dMaxIters=600,
(PID.TID 0000.0001) > cg2dTargetResidual=1.E-12,
(PID.TID 0000.0001) > &
(PID.TID 0000.0001) >
(PID.TID 0000.0001) ># Time stepping parameters
(PID.TID 0000.0001) > &PARM03
(PID.TID 0000.0001) > niter0=0,
(PID.TID 0000.0001) >#nTimeSteps=1728,
(PID.TID 0000.0001) > nTimeSteps=20,
(PID.TID 0000.0001) > abEps=0.1,
(PID.TID 0000.0001) > deltaT=1200.0,
(PID.TID 0000.0001) > cAdjFreq=0.,
(PID.TID 0000.0001) > pChkptFreq=0.0,
(PID.TID 0000.0001) > chkptFreq=0.0,
(PID.TID 0000.0001) > dumpFreq=86400.0,
(PID.TID 0000.0001) >#diagFreq=1.0,
(PID.TID 0000.0001) >#monitorFreq=21600.,
(PID.TID 0000.0001) > monitorFreq=1.,
(PID.TID 0000.0001) > &
(PID.TID 0000.0001) >
(PID.TID 0000.0001) ># Gridding parameters
(PID.TID 0000.0001) > &PARM04
(PID.TID 0000.0001) > usingCartesianGrid=.FALSE.,
(PID.TID 0000.0001) > usingSphericalPolarGrid=.FALSE.,
(PID.TID 0000.0001) > usingCurvilinearGrid=.TRUE.,
(PID.TID 0000.0001) > delR=1.E5,
(PID.TID 0000.0001) > Ro_SeaLevel=1.E5,
(PID.TID 0000.0001) > groundAtK1=.TRUE.,
(PID.TID 0000.0001) > &
(PID.TID 0000.0001) >
(PID.TID 0000.0001) ># Input datasets
(PID.TID 0000.0001) > &PARM05
(PID.TID 0000.0001) >#uVelInitFile='U.init',
(PID.TID 0000.0001) >#vVelInitFile='V.init',
(PID.TID 0000.0001) >#pSurfInitFile='Eta.init',
(PID.TID 0000.0001) > hydrogSaltFile='S.init',
(PID.TID 0000.0001) > &
(PID.TID 0000.0001) 
(PID.TID 0000.0001) S/R INI_PARMS ; read PARM01 : OK
(PID.TID 0000.0001) S/R INI_PARMS ; read PARM02 : OK
(PID.TID 0000.0001) S/R INI_PARMS ; read PARM03 : OK
(PID.TID 0000.0001) S/R INI_PARMS ; read PARM04 : OK
(PID.TID 0000.0001) S/R INI_PARMS ; read PARM05 : OK
(PID.TID 0000.0001) %MON XC_max                       =   1.7854351589505E+02
(PID.TID 0000.0001) %MON XC_min                       =  -1.7854351589505E+02
(PID.TID 0000.0001) %MON XC_mean                      =   2.3657002283054E-14
(PID.TID 0000.0001) %MON XC_sd                        =   1.0355545336287E+02
(PID.TID 0000.0001) %MON XG_max                       =   1.8000000000000E+02
(PID.TID 0000.0001) %MON XG_min                       =  -1.7708797161002E+02
(PID.TID 0000.0001) %MON XG_mean                      =   1.8648248643315E+00
(PID.TID 0000.0001) %MON XG_sd                        =   1.0409692275153E+02
(PID.TID 0000.0001) %MON DXC_max                      =   3.2375186364168E+05
(PID.TID 0000.0001) %MON DXC_min                      =   1.1166471326979E+05
(PID.TID 0000.0001) %MON DXC_mean                     =   2.8606279210230E+05
(PID.TID 0000.0001) %MON DXC_sd                       =   3.4029260293545E+04
(PID.TID 0000.0001) %MON DXF_max                      =   3.2369948031419E+05
(PID.TID 0000.0001) %MON DXF_min                      =   1.2081644974275E+05
(PID.TID 0000.0001) %MON DXF_mean                     =   2.8606279210229E+05
(PID.TID 0000.0001) %MON DXF_sd                       =   3.4027324876559E+04
(PID.TID 0000.0001) %MON DXG_max                      =   3.2375195872773E+05
(PID.TID 0000.0001) %MON DXG_min                      =   1.0098378008764E+05
(PID.TID 0000.0001) %MON DXG_mean                     =   2.8604515874455E+05
(PID.TID 0000.0001) %MON DXG_sd                       =   3.4124649525440E+04
(PID.TID 0000.0001) %MON DXV_max                      =   3.2380418162744E+05
(PID.TID 0000.0001) %MON DXV_min                      =   8.0152299824045E+04
(PID.TID 0000.0001) %MON DXV_mean                     =   2.8604515874455E+05
(PID.TID 0000.0001) %MON DXV_sd                       =   3.4134690398933E+04
(PID.TID 0000.0001) %MON YC_max                       =   8.7940663871962E+01
(PID.TID 0000.0001) %MON YC_min                       =  -8.7940663871962E+01
(PID.TID 0000.0001) %MON YC_mean                      =   3.7701323544563E-16
(PID.TID 0000.0001) %MON YC_sd                        =   3.8676242969072E+01
(PID.TID 0000.0001) %MON YG_max                       =   9.0000000000000E+01
(PID.TID 0000.0001) %MON YG_min                       =  -9.0000000000000E+01
(PID.TID 0000.0001) %MON YG_mean                      =  -1.2011668255785E-15
(PID.TID 0000.0001) %MON YG_sd                        =   3.9086186579984E+01
(PID.TID 0000.0001) %MON DYC_max                      =   3.2375186364168E+05
(PID.TID 0000.0001) %MON DYC_min                      =   1.1166471326979E+05
(PID.TID 0000.0001) %MON DYC_mean                     =   2.8606279210230E+05
(PID.TID 0000.0001) %MON DYC_sd                       =   3.4029260293545E+04
(PID.TID 0000.0001) %MON DYF_max                      =   3.2369948031419E+05
(PID.TID 0000.0001) %MON DYF_min                      =   1.2081644974275E+05
(PID.TID 0000.0001) %MON DYF_mean                     =   2.8606279210229E+05
(PID.TID 0000.0001) %MON DYF_sd                       =   3.4027324876559E+04
(PID.TID 0000.0001) %MON DYG_max                      =   3.2375195872773E+05
(PID.TID 0000.0001) %MON DYG_min                      =   1.0098378008764E+05
(PID.TID 0000.0001) %MON DYG_mean                     =   2.8604515874455E+05
(PID.TID 0000.0001) %MON DYG_sd                       =   3.4124649525440E+04
(PID.TID 0000.0001) %MON DYU_max                      =   3.2380418162744E+05
(PID.TID 0000.0001) %MON DYU_min                      =   8.0152299824045E+04
(PID.TID 0000.0001) %MON DYU_mean                     =   2.8604515874455E+05
(PID.TID 0000.0001) %MON DYU_sd                       =   3.4134690398933E+04
(PID.TID 0000.0001) %MON RA_max                       =   1.0477149086258E+11
(PID.TID 0000.0001) %MON RA_min                       =   1.4831937093978E+10
(PID.TID 0000.0001) %MON RA_mean                      =   8.2992246709111E+10
(PID.TID 0000.0001) %MON RA_sd                        =   1.7474749259308E+10
(PID.TID 0000.0001) %MON RAW_max                      =   1.0480542568956E+11
(PID.TID 0000.0001) %MON RAW_min                      =   1.2415180612768E+10
(PID.TID 0000.0001) %MON RAW_mean                     =   8.2992246709111E+10
(PID.TID 0000.0001) %MON RAW_sd                       =   1.7475025623262E+10
(PID.TID 0000.0001) %MON RAS_max                      =   1.0480542568956E+11
(PID.TID 0000.0001) %MON RAS_min                      =   1.2415180612768E+10
(PID.TID 0000.0001) %MON RAS_mean                     =   8.2992246709111E+10
(PID.TID 0000.0001) %MON RAS_sd                       =   1.7475025623262E+10
(PID.TID 0000.0001) %MON RAZ_max                      =   1.0483926219563E+11
(PID.TID 0000.0001) %MON RAZ_min                      =   9.2429460237150E+09
(PID.TID 0000.0001) %MON RAZ_mean                     =   8.2992246709111E+10
(PID.TID 0000.0001) %MON RAZ_sd                       =   1.7475350638330E+10
(PID.TID 0000.0001) // =======================================================
(PID.TID 0000.0001) // Field Model R_low (ini_masks_etc) at iteration          1
(PID.TID 0000.0001) // CMIN =          1.000000000000000E+32
(PID.TID 0000.0001) // CMAX =         -1.000000000000000E+32
(PID.TID 0000.0001) // CINT =          0.000000000000000E+00
(PID.TID 0000.0001) // SYMBOLS (CMIN->CMAX): -abcdefghijklmnopqrstuvwxyz+
(PID.TID 0000.0001) //                  0.0: .
(PID.TID 0000.0001) // RANGE I (Lo:Hi:Step):(  -2: 195:   1)
(PID.TID 0000.0001) // RANGE J (Lo:Hi:Step):(  35:  -2:  -1)
(PID.TID 0000.0001) // RANGE K (Lo:Hi:Step):(   1:   1:   1)
(PID.TID 0000.0001) // =======================================================
(PID.TID 0000.0001) K =   1
(PID.TID 0000.0001) //                I=7       I=17      I=27      I=31      I=41      I=51      I=61      I=65      I=75      I=85      I=95      I=99      I=109     I=119     I=129     I=133     I=143     I=153     I=163     I=167     I=177     I=187
(PID.TID 0000.0001) // |--J--|**0123456|890123456|890123456|890123450|234567890|234567890|234567890|234567234|678901234|678901234|678901234|678945678|012345678|012345678|012345678|016789012|456789012|456789012|456789012|890123456|890123456|890123456|89012345
(PID.TID 0000.0001) //     35 ....................................................................................................................................................................................................................................
(PID.TID 0000.0001) //     34 ....................................................................................................................................................................................................................................
(PID.TID 0000.0001) //     33 ....................................................................................................................................................................................................................................
(PID.TID 0000.0001) //     32 ....................................................................................................................................................................................................................................
(PID.TID 0000.0001) //     31 ....................................................................................................................................................................................................................................
(PID.TID 0000.0001) //     30 ....................................................................................................................................................................................................................................
(PID.TID 0000.0001) //     29 ....................................................................................................................................................................................................................................
(PID.TID 0000.0001) //     28 ....................................................................................................................................................................................................................................
(PID.TID 0000.0001) //     27 ....................................................................................................................................................................................................................................
(PID.TID 0000.0001) //     26 ....................................................................................................................................................................................................................................
(PID.TID 0000.0001) //     25 ....................................................................................................................................................................................................................................
(PID.TID 0000.0001) //     24 ....................................................................................................................................................................................................................................
(PID.TID 0000.0001) //     23 ....................................................................................................................................................................................................................................
(PID.TID 0000.0001) //     22 ....................................................................................................................................................................................................................................
(PID.TID 0000.0001) //     21 ....................................................................................................................................................................................................................................
(PID.TID 0000.0001) //     20 ....................................................................................................................................................................................................................................
(PID.TID 0000.0001) //     19 ....................................................................................................................................................................................................................................
(PID.TID 0000.0001) //     18 ....................................................................................................................................................................................................................................
(PID.TID 0000.0001) //     17 ....................................................................................................................................................................................................................................
(PID.TID 0000.0001) //     16 ....................................................................................................................................................................................................................................
(PID.TID 0000.0001) //     15 ....................................................................................................................................................................................................................................
(PID.TID 0000.0001) //     14 ....................................................................................................................................................................................................................................
(PID.TID 0000.0001) //     13 ....................................................................................................................................................................................................................................
(PID.TID 0000.0001) //     12 ....................................................................................................................................................................................................................................
(PID.TID 0000.0001) //     11 ....................................................................................................................................................................................................................................
(PID.TID 0000.0001) //     10 ....................................................................................................................................................................................................................................
(PID.TID 0000.0001) //      9 ....................................................................................................................................................................................................................................
(PID.TID 0000.0001) //      8 ....................................................................................................................................................................................................................................
(PID.TID 0000.0001) //      7 ....................................................................................................................................................................................................................................
(PID.TID 0000.0001) //      6 ....................................................................................................................................................................................................................................
(PID.TID 0000.0001) //      5 ....................................................................................................................................................................................................................................
(PID.TID 0000.0001) //      4 ....................................................................................................................................................................................................................................
(PID.TID 0000.0001) //      3 ....................................................................................................................................................................................................................................
(PID.TID 0000.0001) //      2 ....................................................................................................................................................................................................................................
(PID.TID 0000.0001) //      1 ....................................................................................................................................................................................................................................
(PID.TID 0000.0001) //      0 ....................................................................................................................................................................................................................................
(PID.TID 0000.0001) //     -1 ....................................................................................................................................................................................................................................
(PID.TID 0000.0001) //     -2 ....................................................................................................................................................................................................................................
(PID.TID 0000.0001) // =======================================================
(PID.TID 0000.0001) // END OF FIELD                                          =
(PID.TID 0000.0001) // =======================================================
(PID.TID 0000.0001) 
(PID.TID 0000.0001) // =======================================================
(PID.TID 0000.0001) // Field Model Ro_surf (ini_masks_etc) at iteration          1
(PID.TID 0000.0001) // CMIN =          1.000000000000000E+05
(PID.TID 0000.0001) // CMAX =          1.000000000000000E+05
(PID.TID 0000.0001) // CINT =          0.000000000000000E+00
(PID.TID 0000.0001) // SYMBOLS (CMIN->CMAX): -abcdefghijklmnopqrstuvwxyz+
(PID.TID 0000.0001) //                  0.0: .
(PID.TID 0000.0001) // RANGE I (Lo:Hi:Step):(  -2: 195:   1)
(PID.TID 0000.0001) // RANGE J (Lo:Hi:Step):(  35:  -2:  -1)
(PID.TID 0000.0001) // RANGE K (Lo:Hi:Step):(   1:   1:   1)
(PID.TID 0000.0001) // =======================================================
(PID.TID 0000.0001) K =   1
(PID.TID 0000.0001) //                I=7       I=17      I=27      I=31      I=41      I=51      I=61      I=65      I=75      I=85      I=95      I=99      I=109     I=119     I=129     I=133     I=143     I=153     I=163     I=167     I=177     I=187
(PID.TID 0000.0001) // |--J--|**0123456|890123456|890123456|890123450|234567890|234567890|234567890|234567234|678901234|678901234|678901234|678945678|012345678|012345678|012345678|016789012|456789012|456789012|456789012|890123456|890123456|890123456|89012345
(PID.TID 0000.0001) //     35 ...--------------------------------......--------------------------------......--------------------------------......--------------------------------......--------------------------------......--------------------------------...
(PID.TID 0000.0001) //     34 ...--------------------------------......--------------------------------......--------------------------------......--------------------------------......--------------------------------......--------------------------------...
(PID.TID 0000.0001) //     33 ...--------------------------------......--------------------------------......--------------------------------......--------------------------------......--------------------------------......--------------------------------...
(PID.TID 0000.0001) //     32 ------------------------------------------------------------------------------------------------------------------------------------------------------------------------------------------------------------------------------------
(PID.TID 0000.0001) //     31 ------------------------------------------------------------------------------------------------------------------------------------------------------------------------------------------------------------------------------------
(PID.TID 0000.0001) //     30 ------------------------------------------------------------------------------------------------------------------------------------------------------------------------------------------------------------------------------------
(PID.TID 0000.0001) //     29 ------------------------------------------------------------------------------------------------------------------------------------------------------------------------------------------------------------------------------------
(PID.TID 0000.0001) //     28 ------------------------------------------------------------------------------------------------------------------------------------------------------------------------------------------------------------------------------------
(PID.TID 0000.0001) //     27 ------------------------------------------------------------------------------------------------------------------------------------------------------------------------------------------------------------------------------------
(PID.TID 0000.0001) //     26 ------------------------------------------------------------------------------------------------------------------------------------------------------------------------------------------------------------------------------------
(PID.TID 0000.0001) //     25 ------------------------------------------------------------------------------------------------------------------------------------------------------------------------------------------------------------------------------------
(PID.TID 0000.0001) //     24 ------------------------------------------------------------------------------------------------------------------------------------------------------------------------------------------------------------------------------------
(PID.TID 0000.0001) //     23 ------------------------------------------------------------------------------------------------------------------------------------------------------------------------------------------------------------------------------------
(PID.TID 0000.0001) //     22 ------------------------------------------------------------------------------------------------------------------------------------------------------------------------------------------------------------------------------------
(PID.TID 0000.0001) //     21 ------------------------------------------------------------------------------------------------------------------------------------------------------------------------------------------------------------------------------------
(PID.TID 0000.0001) //     20 ------------------------------------------------------------------------------------------------------------------------------------------------------------------------------------------------------------------------------------
(PID.TID 0000.0001) //     19 ------------------------------------------------------------------------------------------------------------------------------------------------------------------------------------------------------------------------------------
(PID.TID 0000.0001) //     18 ------------------------------------------------------------------------------------------------------------------------------------------------------------------------------------------------------------------------------------
(PID.TID 0000.0001) //     17 ------------------------------------------------------------------------------------------------------------------------------------------------------------------------------------------------------------------------------------
(PID.TID 0000.0001) //     16 ------------------------------------------------------------------------------------------------------------------------------------------------------------------------------------------------------------------------------------
(PID.TID 0000.0001) //     15 ------------------------------------------------------------------------------------------------------------------------------------------------------------------------------------------------------------------------------------
(PID.TID 0000.0001) //     14 ------------------------------------------------------------------------------------------------------------------------------------------------------------------------------------------------------------------------------------
(PID.TID 0000.0001) //     13 ------------------------------------------------------------------------------------------------------------------------------------------------------------------------------------------------------------------------------------
(PID.TID 0000.0001) //     12 ------------------------------------------------------------------------------------------------------------------------------------------------------------------------------------------------------------------------------------
(PID.TID 0000.0001) //     11 ------------------------------------------------------------------------------------------------------------------------------------------------------------------------------------------------------------------------------------
(PID.TID 0000.0001) //     10 ------------------------------------------------------------------------------------------------------------------------------------------------------------------------------------------------------------------------------------
(PID.TID 0000.0001) //      9 ------------------------------------------------------------------------------------------------------------------------------------------------------------------------------------------------------------------------------------
(PID.TID 0000.0001) //      8 ------------------------------------------------------------------------------------------------------------------------------------------------------------------------------------------------------------------------------------
(PID.TID 0000.0001) //      7 ------------------------------------------------------------------------------------------------------------------------------------------------------------------------------------------------------------------------------------
(PID.TID 0000.0001) //      6 ------------------------------------------------------------------------------------------------------------------------------------------------------------------------------------------------------------------------------------
(PID.TID 0000.0001) //      5 ------------------------------------------------------------------------------------------------------------------------------------------------------------------------------------------------------------------------------------
(PID.TID 0000.0001) //      4 ------------------------------------------------------------------------------------------------------------------------------------------------------------------------------------------------------------------------------------
(PID.TID 0000.0001) //      3 ------------------------------------------------------------------------------------------------------------------------------------------------------------------------------------------------------------------------------------
(PID.TID 0000.0001) //      2 ------------------------------------------------------------------------------------------------------------------------------------------------------------------------------------------------------------------------------------
(PID.TID 0000.0001) //      1 ------------------------------------------------------------------------------------------------------------------------------------------------------------------------------------------------------------------------------------
(PID.TID 0000.0001) //      0 ...--------------------------------......--------------------------------......--------------------------------......--------------------------------......--------------------------------......--------------------------------...
(PID.TID 0000.0001) //     -1 ...--------------------------------......--------------------------------......--------------------------------......--------------------------------......--------------------------------......--------------------------------...
(PID.TID 0000.0001) //     -2 ...--------------------------------......--------------------------------......--------------------------------......--------------------------------......--------------------------------......--------------------------------...
(PID.TID 0000.0001) // =======================================================
(PID.TID 0000.0001) // END OF FIELD                                          =
(PID.TID 0000.0001) // =======================================================
(PID.TID 0000.0001) 
(PID.TID 0000.0001) // =======================================================
(PID.TID 0000.0001) // Field hFacC at iteration          1
(PID.TID 0000.0001) // CMIN =          1.000000000000000E+00
(PID.TID 0000.0001) // CMAX =          1.000000000000000E+00
(PID.TID 0000.0001) // CINT =          0.000000000000000E+00
(PID.TID 0000.0001) // SYMBOLS (CMIN->CMAX): -abcdefghijklmnopqrstuvwxyz+
(PID.TID 0000.0001) //                  0.0: .
(PID.TID 0000.0001) // RANGE I (Lo:Hi:Step):(  -2: 195:   1)
(PID.TID 0000.0001) // RANGE J (Lo:Hi:Step):(  35:  -2:  -1)
(PID.TID 0000.0001) // RANGE K (Lo:Hi:Step):(   1:   1:   1)
(PID.TID 0000.0001) // =======================================================
(PID.TID 0000.0001) K =   1
(PID.TID 0000.0001) //                I=7       I=17      I=27      I=31      I=41      I=51      I=61      I=65      I=75      I=85      I=95      I=99      I=109     I=119     I=129     I=133     I=143     I=153     I=163     I=167     I=177     I=187
(PID.TID 0000.0001) // |--J--|**0123456|890123456|890123456|890123450|234567890|234567890|234567890|234567234|678901234|678901234|678901234|678945678|012345678|012345678|012345678|016789012|456789012|456789012|456789012|890123456|890123456|890123456|89012345
(PID.TID 0000.0001) //     35 ...--------------------------------......--------------------------------......--------------------------------......--------------------------------......--------------------------------......--------------------------------...
(PID.TID 0000.0001) //     34 ...--------------------------------......--------------------------------......--------------------------------......--------------------------------......--------------------------------......--------------------------------...
(PID.TID 0000.0001) //     33 ...--------------------------------......--------------------------------......--------------------------------......--------------------------------......--------------------------------......--------------------------------...
(PID.TID 0000.0001) //     32 ------------------------------------------------------------------------------------------------------------------------------------------------------------------------------------------------------------------------------------
(PID.TID 0000.0001) //     31 ------------------------------------------------------------------------------------------------------------------------------------------------------------------------------------------------------------------------------------
(PID.TID 0000.0001) //     30 ------------------------------------------------------------------------------------------------------------------------------------------------------------------------------------------------------------------------------------
(PID.TID 0000.0001) //     29 ------------------------------------------------------------------------------------------------------------------------------------------------------------------------------------------------------------------------------------
(PID.TID 0000.0001) //     28 ------------------------------------------------------------------------------------------------------------------------------------------------------------------------------------------------------------------------------------
(PID.TID 0000.0001) //     27 ------------------------------------------------------------------------------------------------------------------------------------------------------------------------------------------------------------------------------------
(PID.TID 0000.0001) //     26 ------------------------------------------------------------------------------------------------------------------------------------------------------------------------------------------------------------------------------------
(PID.TID 0000.0001) //     25 ------------------------------------------------------------------------------------------------------------------------------------------------------------------------------------------------------------------------------------
(PID.TID 0000.0001) //     24 ------------------------------------------------------------------------------------------------------------------------------------------------------------------------------------------------------------------------------------
(PID.TID 0000.0001) //     23 ------------------------------------------------------------------------------------------------------------------------------------------------------------------------------------------------------------------------------------
(PID.TID 0000.0001) //     22 ------------------------------------------------------------------------------------------------------------------------------------------------------------------------------------------------------------------------------------
(PID.TID 0000.0001) //     21 ------------------------------------------------------------------------------------------------------------------------------------------------------------------------------------------------------------------------------------
(PID.TID 0000.0001) //     20 ------------------------------------------------------------------------------------------------------------------------------------------------------------------------------------------------------------------------------------
(PID.TID 0000.0001) //     19 ------------------------------------------------------------------------------------------------------------------------------------------------------------------------------------------------------------------------------------
(PID.TID 0000.0001) //     18 ------------------------------------------------------------------------------------------------------------------------------------------------------------------------------------------------------------------------------------
(PID.TID 0000.0001) //     17 ------------------------------------------------------------------------------------------------------------------------------------------------------------------------------------------------------------------------------------
(PID.TID 0000.0001) //     16 ------------------------------------------------------------------------------------------------------------------------------------------------------------------------------------------------------------------------------------
(PID.TID 0000.0001) //     15 ------------------------------------------------------------------------------------------------------------------------------------------------------------------------------------------------------------------------------------
(PID.TID 0000.0001) //     14 ------------------------------------------------------------------------------------------------------------------------------------------------------------------------------------------------------------------------------------
(PID.TID 0000.0001) //     13 ------------------------------------------------------------------------------------------------------------------------------------------------------------------------------------------------------------------------------------
(PID.TID 0000.0001) //     12 ------------------------------------------------------------------------------------------------------------------------------------------------------------------------------------------------------------------------------------
(PID.TID 0000.0001) //     11 ------------------------------------------------------------------------------------------------------------------------------------------------------------------------------------------------------------------------------------
(PID.TID 0000.0001) //     10 ------------------------------------------------------------------------------------------------------------------------------------------------------------------------------------------------------------------------------------
(PID.TID 0000.0001) //      9 ------------------------------------------------------------------------------------------------------------------------------------------------------------------------------------------------------------------------------------
(PID.TID 0000.0001) //      8 ------------------------------------------------------------------------------------------------------------------------------------------------------------------------------------------------------------------------------------
(PID.TID 0000.0001) //      7 ------------------------------------------------------------------------------------------------------------------------------------------------------------------------------------------------------------------------------------
(PID.TID 0000.0001) //      6 ------------------------------------------------------------------------------------------------------------------------------------------------------------------------------------------------------------------------------------
(PID.TID 0000.0001) //      5 ------------------------------------------------------------------------------------------------------------------------------------------------------------------------------------------------------------------------------------
(PID.TID 0000.0001) //      4 ------------------------------------------------------------------------------------------------------------------------------------------------------------------------------------------------------------------------------------
(PID.TID 0000.0001) //      3 ------------------------------------------------------------------------------------------------------------------------------------------------------------------------------------------------------------------------------------
(PID.TID 0000.0001) //      2 ------------------------------------------------------------------------------------------------------------------------------------------------------------------------------------------------------------------------------------
(PID.TID 0000.0001) //      1 ------------------------------------------------------------------------------------------------------------------------------------------------------------------------------------------------------------------------------------
(PID.TID 0000.0001) //      0 ...--------------------------------......--------------------------------......--------------------------------......--------------------------------......--------------------------------......--------------------------------...
(PID.TID 0000.0001) //     -1 ...--------------------------------......--------------------------------......--------------------------------......--------------------------------......--------------------------------......--------------------------------...
(PID.TID 0000.0001) //     -2 ...--------------------------------......--------------------------------......--------------------------------......--------------------------------......--------------------------------......--------------------------------...
(PID.TID 0000.0001) // =======================================================
(PID.TID 0000.0001) // END OF FIELD                                          =
(PID.TID 0000.0001) // =======================================================
(PID.TID 0000.0001) 
(PID.TID 0000.0001) // =======================================================
(PID.TID 0000.0001) // Field hFacW at iteration          1
(PID.TID 0000.0001) // CMIN =          1.000000000000000E+00
(PID.TID 0000.0001) // CMAX =          1.000000000000000E+00
(PID.TID 0000.0001) // CINT =          0.000000000000000E+00
(PID.TID 0000.0001) // SYMBOLS (CMIN->CMAX): -abcdefghijklmnopqrstuvwxyz+
(PID.TID 0000.0001) //                  0.0: .
(PID.TID 0000.0001) // RANGE I (Lo:Hi:Step):(  -2: 195:   1)
(PID.TID 0000.0001) // RANGE J (Lo:Hi:Step):(  35:  -2:  -1)
(PID.TID 0000.0001) // RANGE K (Lo:Hi:Step):(   1:   1:   1)
(PID.TID 0000.0001) // =======================================================
(PID.TID 0000.0001) K =   1
(PID.TID 0000.0001) //                I=7       I=17      I=27      I=31      I=41      I=51      I=61      I=65      I=75      I=85      I=95      I=99      I=109     I=119     I=129     I=133     I=143     I=153     I=163     I=167     I=177     I=187
(PID.TID 0000.0001) // |--J--|**0123456|890123456|890123456|890123450|234567890|234567890|234567890|234567234|678901234|678901234|678901234|678945678|012345678|012345678|012345678|016789012|456789012|456789012|456789012|890123456|890123456|890123456|89012345
(PID.TID 0000.0001) //     35 ...---------------------------------.....---------------------------------.....---------------------------------.....---------------------------------.....---------------------------------.....---------------------------------..
(PID.TID 0000.0001) //     34 ...---------------------------------.....---------------------------------.....---------------------------------.....---------------------------------.....---------------------------------.....---------------------------------..
(PID.TID 0000.0001) //     33 ...---------------------------------.....---------------------------------.....---------------------------------.....---------------------------------.....---------------------------------.....---------------------------------..
(PID.TID 0000.0001) //     32 ------------------------------------------------------------------------------------------------------------------------------------------------------------------------------------------------------------------------------------
(PID.TID 0000.0001) //     31 ------------------------------------------------------------------------------------------------------------------------------------------------------------------------------------------------------------------------------------
(PID.TID 0000.0001) //     30 ------------------------------------------------------------------------------------------------------------------------------------------------------------------------------------------------------------------------------------
(PID.TID 0000.0001) //     29 ------------------------------------------------------------------------------------------------------------------------------------------------------------------------------------------------------------------------------------
(PID.TID 0000.0001) //     28 ------------------------------------------------------------------------------------------------------------------------------------------------------------------------------------------------------------------------------------
(PID.TID 0000.0001) //     27 ------------------------------------------------------------------------------------------------------------------------------------------------------------------------------------------------------------------------------------
(PID.TID 0000.0001) //     26 ------------------------------------------------------------------------------------------------------------------------------------------------------------------------------------------------------------------------------------
(PID.TID 0000.0001) //     25 ------------------------------------------------------------------------------------------------------------------------------------------------------------------------------------------------------------------------------------
(PID.TID 0000.0001) //     24 ------------------------------------------------------------------------------------------------------------------------------------------------------------------------------------------------------------------------------------
(PID.TID 0000.0001) //     23 ------------------------------------------------------------------------------------------------------------------------------------------------------------------------------------------------------------------------------------
(PID.TID 0000.0001) //     22 ------------------------------------------------------------------------------------------------------------------------------------------------------------------------------------------------------------------------------------
(PID.TID 0000.0001) //     21 ------------------------------------------------------------------------------------------------------------------------------------------------------------------------------------------------------------------------------------
(PID.TID 0000.0001) //     20 ------------------------------------------------------------------------------------------------------------------------------------------------------------------------------------------------------------------------------------
(PID.TID 0000.0001) //     19 ------------------------------------------------------------------------------------------------------------------------------------------------------------------------------------------------------------------------------------
(PID.TID 0000.0001) //     18 ------------------------------------------------------------------------------------------------------------------------------------------------------------------------------------------------------------------------------------
(PID.TID 0000.0001) //     17 ------------------------------------------------------------------------------------------------------------------------------------------------------------------------------------------------------------------------------------
(PID.TID 0000.0001) //     16 ------------------------------------------------------------------------------------------------------------------------------------------------------------------------------------------------------------------------------------
(PID.TID 0000.0001) //     15 ------------------------------------------------------------------------------------------------------------------------------------------------------------------------------------------------------------------------------------
(PID.TID 0000.0001) //     14 ------------------------------------------------------------------------------------------------------------------------------------------------------------------------------------------------------------------------------------
(PID.TID 0000.0001) //     13 ------------------------------------------------------------------------------------------------------------------------------------------------------------------------------------------------------------------------------------
(PID.TID 0000.0001) //     12 ------------------------------------------------------------------------------------------------------------------------------------------------------------------------------------------------------------------------------------
(PID.TID 0000.0001) //     11 ------------------------------------------------------------------------------------------------------------------------------------------------------------------------------------------------------------------------------------
(PID.TID 0000.0001) //     10 ------------------------------------------------------------------------------------------------------------------------------------------------------------------------------------------------------------------------------------
(PID.TID 0000.0001) //      9 ------------------------------------------------------------------------------------------------------------------------------------------------------------------------------------------------------------------------------------
(PID.TID 0000.0001) //      8 ------------------------------------------------------------------------------------------------------------------------------------------------------------------------------------------------------------------------------------
(PID.TID 0000.0001) //      7 ------------------------------------------------------------------------------------------------------------------------------------------------------------------------------------------------------------------------------------
(PID.TID 0000.0001) //      6 ------------------------------------------------------------------------------------------------------------------------------------------------------------------------------------------------------------------------------------
(PID.TID 0000.0001) //      5 ------------------------------------------------------------------------------------------------------------------------------------------------------------------------------------------------------------------------------------
(PID.TID 0000.0001) //      4 ------------------------------------------------------------------------------------------------------------------------------------------------------------------------------------------------------------------------------------
(PID.TID 0000.0001) //      3 ------------------------------------------------------------------------------------------------------------------------------------------------------------------------------------------------------------------------------------
(PID.TID 0000.0001) //      2 ------------------------------------------------------------------------------------------------------------------------------------------------------------------------------------------------------------------------------------
(PID.TID 0000.0001) //      1 ------------------------------------------------------------------------------------------------------------------------------------------------------------------------------------------------------------------------------------
(PID.TID 0000.0001) //      0 ...---------------------------------.....---------------------------------.....---------------------------------.....---------------------------------.....---------------------------------.....---------------------------------..
(PID.TID 0000.0001) //     -1 ...---------------------------------.....---------------------------------.....---------------------------------.....---------------------------------.....---------------------------------.....---------------------------------..
(PID.TID 0000.0001) //     -2 ...---------------------------------.....---------------------------------.....---------------------------------.....---------------------------------.....---------------------------------.....---------------------------------..
(PID.TID 0000.0001) // =======================================================
(PID.TID 0000.0001) // END OF FIELD                                          =
(PID.TID 0000.0001) // =======================================================
(PID.TID 0000.0001) 
(PID.TID 0000.0001) // =======================================================
(PID.TID 0000.0001) // Field hFacS at iteration          1
(PID.TID 0000.0001) // CMIN =          1.000000000000000E+00
(PID.TID 0000.0001) // CMAX =          1.000000000000000E+00
(PID.TID 0000.0001) // CINT =          0.000000000000000E+00
(PID.TID 0000.0001) // SYMBOLS (CMIN->CMAX): -abcdefghijklmnopqrstuvwxyz+
(PID.TID 0000.0001) //                  0.0: .
(PID.TID 0000.0001) // RANGE I (Lo:Hi:Step):(  -2: 195:   1)
(PID.TID 0000.0001) // RANGE J (Lo:Hi:Step):(  35:  -2:  -1)
(PID.TID 0000.0001) // RANGE K (Lo:Hi:Step):(   1:   1:   1)
(PID.TID 0000.0001) // =======================================================
(PID.TID 0000.0001) K =   1
(PID.TID 0000.0001) //                I=7       I=17      I=27      I=31      I=41      I=51      I=61      I=65      I=75      I=85      I=95      I=99      I=109     I=119     I=129     I=133     I=143     I=153     I=163     I=167     I=177     I=187
(PID.TID 0000.0001) // |--J--|**0123456|890123456|890123456|890123450|234567890|234567890|234567890|234567234|678901234|678901234|678901234|678945678|012345678|012345678|012345678|016789012|456789012|456789012|456789012|890123456|890123456|890123456|89012345
(PID.TID 0000.0001) //     35 ...--------------------------------......--------------------------------......--------------------------------......--------------------------------......--------------------------------......--------------------------------...
(PID.TID 0000.0001) //     34 ...--------------------------------......--------------------------------......--------------------------------......--------------------------------......--------------------------------......--------------------------------...
(PID.TID 0000.0001) //     33 ------------------------------------------------------------------------------------------------------------------------------------------------------------------------------------------------------------------------------------
(PID.TID 0000.0001) //     32 ------------------------------------------------------------------------------------------------------------------------------------------------------------------------------------------------------------------------------------
(PID.TID 0000.0001) //     31 ------------------------------------------------------------------------------------------------------------------------------------------------------------------------------------------------------------------------------------
(PID.TID 0000.0001) //     30 ------------------------------------------------------------------------------------------------------------------------------------------------------------------------------------------------------------------------------------
(PID.TID 0000.0001) //     29 ------------------------------------------------------------------------------------------------------------------------------------------------------------------------------------------------------------------------------------
(PID.TID 0000.0001) //     28 ------------------------------------------------------------------------------------------------------------------------------------------------------------------------------------------------------------------------------------
(PID.TID 0000.0001) //     27 ------------------------------------------------------------------------------------------------------------------------------------------------------------------------------------------------------------------------------------
(PID.TID 0000.0001) //     26 ------------------------------------------------------------------------------------------------------------------------------------------------------------------------------------------------------------------------------------
(PID.TID 0000.0001) //     25 ------------------------------------------------------------------------------------------------------------------------------------------------------------------------------------------------------------------------------------
(PID.TID 0000.0001) //     24 ------------------------------------------------------------------------------------------------------------------------------------------------------------------------------------------------------------------------------------
(PID.TID 0000.0001) //     23 ------------------------------------------------------------------------------------------------------------------------------------------------------------------------------------------------------------------------------------
(PID.TID 0000.0001) //     22 ------------------------------------------------------------------------------------------------------------------------------------------------------------------------------------------------------------------------------------
(PID.TID 0000.0001) //     21 ------------------------------------------------------------------------------------------------------------------------------------------------------------------------------------------------------------------------------------
(PID.TID 0000.0001) //     20 ------------------------------------------------------------------------------------------------------------------------------------------------------------------------------------------------------------------------------------
(PID.TID 0000.0001) //     19 ------------------------------------------------------------------------------------------------------------------------------------------------------------------------------------------------------------------------------------
(PID.TID 0000.0001) //     18 ------------------------------------------------------------------------------------------------------------------------------------------------------------------------------------------------------------------------------------
(PID.TID 0000.0001) //     17 ------------------------------------------------------------------------------------------------------------------------------------------------------------------------------------------------------------------------------------
(PID.TID 0000.0001) //     16 ------------------------------------------------------------------------------------------------------------------------------------------------------------------------------------------------------------------------------------
(PID.TID 0000.0001) //     15 ------------------------------------------------------------------------------------------------------------------------------------------------------------------------------------------------------------------------------------
(PID.TID 0000.0001) //     14 ------------------------------------------------------------------------------------------------------------------------------------------------------------------------------------------------------------------------------------
(PID.TID 0000.0001) //     13 ------------------------------------------------------------------------------------------------------------------------------------------------------------------------------------------------------------------------------------
(PID.TID 0000.0001) //     12 ------------------------------------------------------------------------------------------------------------------------------------------------------------------------------------------------------------------------------------
(PID.TID 0000.0001) //     11 ------------------------------------------------------------------------------------------------------------------------------------------------------------------------------------------------------------------------------------
(PID.TID 0000.0001) //     10 ------------------------------------------------------------------------------------------------------------------------------------------------------------------------------------------------------------------------------------
(PID.TID 0000.0001) //      9 ------------------------------------------------------------------------------------------------------------------------------------------------------------------------------------------------------------------------------------
(PID.TID 0000.0001) //      8 ------------------------------------------------------------------------------------------------------------------------------------------------------------------------------------------------------------------------------------
(PID.TID 0000.0001) //      7 ------------------------------------------------------------------------------------------------------------------------------------------------------------------------------------------------------------------------------------
(PID.TID 0000.0001) //      6 ------------------------------------------------------------------------------------------------------------------------------------------------------------------------------------------------------------------------------------
(PID.TID 0000.0001) //      5 ------------------------------------------------------------------------------------------------------------------------------------------------------------------------------------------------------------------------------------
(PID.TID 0000.0001) //      4 ------------------------------------------------------------------------------------------------------------------------------------------------------------------------------------------------------------------------------------
(PID.TID 0000.0001) //      3 ------------------------------------------------------------------------------------------------------------------------------------------------------------------------------------------------------------------------------------
(PID.TID 0000.0001) //      2 ------------------------------------------------------------------------------------------------------------------------------------------------------------------------------------------------------------------------------------
(PID.TID 0000.0001) //      1 ------------------------------------------------------------------------------------------------------------------------------------------------------------------------------------------------------------------------------------
(PID.TID 0000.0001) //      0 ...--------------------------------......--------------------------------......--------------------------------......--------------------------------......--------------------------------......--------------------------------...
(PID.TID 0000.0001) //     -1 ...--------------------------------......--------------------------------......--------------------------------......--------------------------------......--------------------------------......--------------------------------...
(PID.TID 0000.0001) //     -2 ...--------------------------------......--------------------------------......--------------------------------......--------------------------------......--------------------------------......--------------------------------...
(PID.TID 0000.0001) // =======================================================
(PID.TID 0000.0001) // END OF FIELD                                          =
(PID.TID 0000.0001) // =======================================================
(PID.TID 0000.0001) 
(PID.TID 0000.0001) %MON fCori_max                    =   1.4535016908525E-04
(PID.TID 0000.0001) %MON fCori_min                    =  -1.4535016908525E-04
(PID.TID 0000.0001) %MON fCori_mean                   =   8.5365039215472E-22
(PID.TID 0000.0001) %MON fCori_sd                     =   8.3972192788621E-05
(PID.TID 0000.0001) %MON fCoriG_max                   =   1.4544410433286E-04
(PID.TID 0000.0001) %MON fCoriG_min                   =  -1.4544410433286E-04
(PID.TID 0000.0001) %MON fCoriG_mean                  =   9.9796700966398E-22
(PID.TID 0000.0001) %MON fCoriG_sd                    =   8.4860812167727E-05
(PID.TID 0000.0001)  PACKAGES_BOOT: opening data.pkg
(PID.TID 0000.0001)  OPEN_COPY_DATA_FILE: opening file data.pkg
(PID.TID 0000.0001) // =======================================================
(PID.TID 0000.0001) // Parameter file "data.pkg"
(PID.TID 0000.0001) // =======================================================
(PID.TID 0000.0001) ># Packages
(PID.TID 0000.0001) > &PACKAGES
(PID.TID 0000.0001) > &
(PID.TID 0000.0001) 
(PID.TID 0000.0001)  PACKAGES_BOOT: finished reading data.pkg
(PID.TID 0000.0001) // CG2D normalisation factor =          0.9892953673906058396458722E-05
(PID.TID 0000.0001) 
(PID.TID 0000.0001) // =======================================================
(PID.TID 0000.0001) // Model configuration
(PID.TID 0000.0001) // =======================================================
(PID.TID 0000.0001) //
(PID.TID 0000.0001) // "Physical" paramters ( PARM01 in namelist )
(PID.TID 0000.0001) //
(PID.TID 0000.0001) tRef =   /* Reference temperature profile ( oC or oK ) */
(PID.TID 0000.0001)                 3.000000000000000E+02       /* K =  1 */
(PID.TID 0000.0001)     ;
(PID.TID 0000.0001) sRef =   /* Reference salinity profile ( ppt ) */
(PID.TID 0000.0001)                 0.000000000000000E+00       /* K =  1 */
(PID.TID 0000.0001)     ;
(PID.TID 0000.0001) viscAh =   /* Lateral eddy viscosity ( m^2/s ) */
(PID.TID 0000.0001)                 0.000000000000000E+00
(PID.TID 0000.0001)     ;
(PID.TID 0000.0001) viscAh =   /* Lateral biharmonic viscosity ( m^4/s ) */
(PID.TID 0000.0001)                 0.000000000000000E+00
(PID.TID 0000.0001)     ;
(PID.TID 0000.0001) no_slip_sides =  /* Viscous BCs: No-slip sides */
(PID.TID 0000.0001)                   F
(PID.TID 0000.0001)     ;
(PID.TID 0000.0001) viscAr =   /* Vertical eddy viscosity ( units of r^2/s ) */
(PID.TID 0000.0001)                 0.000000000000000E+00
(PID.TID 0000.0001)     ;
(PID.TID 0000.0001) diffKhT =   /* Laplacian diffusion of heat laterally ( m^2/s ) */
(PID.TID 0000.0001)                 0.000000000000000E+00
(PID.TID 0000.0001)     ;
(PID.TID 0000.0001) diffK4T =   /* Bihaarmonic diffusion of heat laterally ( m^4/s ) */
(PID.TID 0000.0001)                 0.000000000000000E+00
(PID.TID 0000.0001)     ;
(PID.TID 0000.0001) diffKzT =   /* Laplacian diffusion of heat vertically ( m^2/s ) */
(PID.TID 0000.0001)                 1.234567000000000E+05
(PID.TID 0000.0001)     ;
(PID.TID 0000.0001) diffKrT =   /* Laplacian diffusion of heat vertically ( m^2/s ) */
(PID.TID 0000.0001)                 0.000000000000000E+00
(PID.TID 0000.0001)     ;
(PID.TID 0000.0001) diffKhS =   /* Laplacian diffusion of salt laterally ( m^2/s ) */
(PID.TID 0000.0001)                 0.000000000000000E+00
(PID.TID 0000.0001)     ;
(PID.TID 0000.0001) diffK4S =   /* Bihaarmonic diffusion of salt laterally ( m^4/s ) */
(PID.TID 0000.0001)                 0.000000000000000E+00
(PID.TID 0000.0001)     ;
(PID.TID 0000.0001) diffKzS =   /* Laplacian diffusion of salt vertically ( m^2/s ) */
(PID.TID 0000.0001)                 1.234567000000000E+05
(PID.TID 0000.0001)     ;
(PID.TID 0000.0001) diffKrS =   /* Laplacian diffusion of salt vertically ( m^2/s ) */
(PID.TID 0000.0001)                 0.000000000000000E+00
(PID.TID 0000.0001)     ;
(PID.TID 0000.0001) tAlpha =   /* Linear EOS thermal expansion coefficient ( 1/degree ) */
(PID.TID 0000.0001)                 2.000000000000000E-04
(PID.TID 0000.0001)     ;
(PID.TID 0000.0001) sBeta =   /* Linear EOS haline contraction coefficient ( 1/ppt ) */
(PID.TID 0000.0001)                 7.400000000000000E-04
(PID.TID 0000.0001)     ;
(PID.TID 0000.0001) rhonil =   /* Reference density ( kg/m^3 ) */
(PID.TID 0000.0001)                 1.000000000000000E+00
(PID.TID 0000.0001)     ;
(PID.TID 0000.0001) rhoConst =   /* Reference density ( kg/m^3 ) */
(PID.TID 0000.0001)                 1.000000000000000E+00
(PID.TID 0000.0001)     ;
(PID.TID 0000.0001) gravity =   /* Gravitational acceleration ( m/s^2 ) */
(PID.TID 0000.0001)                 9.810000000000000E+00
(PID.TID 0000.0001)     ;
(PID.TID 0000.0001) gBaro =   /* Barotropic gravity ( m/s^2 ) */
(PID.TID 0000.0001)                 9.810000000000000E+00
(PID.TID 0000.0001)     ;
(PID.TID 0000.0001) f0 =   /* Reference coriolis parameter ( 1/s ) */
(PID.TID 0000.0001)                 1.000000000000000E-04
(PID.TID 0000.0001)     ;
(PID.TID 0000.0001) beta =   /* Beta ( 1/(m.s) ) */
(PID.TID 0000.0001)                 9.999999999999999E-12
(PID.TID 0000.0001)     ;
(PID.TID 0000.0001) freeSurfFac =   /* Implicit free surface factor */
(PID.TID 0000.0001)                 1.000000000000000E+00
(PID.TID 0000.0001)     ;
(PID.TID 0000.0001) implicitFreeSurface =   /* Implicit free surface on/off flag */
(PID.TID 0000.0001)                   T
(PID.TID 0000.0001)     ;
(PID.TID 0000.0001) rigidLid =   /* Rigid lid on/off flag */
(PID.TID 0000.0001)                   F
(PID.TID 0000.0001)     ;
(PID.TID 0000.0001) implicSurfPress =   /* Surface Pressure implicit factor (0-1)*/
(PID.TID 0000.0001)                 1.000000000000000E+00
(PID.TID 0000.0001)     ;
(PID.TID 0000.0001) implicDiv2Dflow =   /* Barot. Flow Div. implicit factor (0-1)*/
(PID.TID 0000.0001)                 1.000000000000000E+00
(PID.TID 0000.0001)     ;
(PID.TID 0000.0001) staggerTimeStep =   /* Stagger time stepping on/off flag */
(PID.TID 0000.0001)                   F
(PID.TID 0000.0001)     ;
(PID.TID 0000.0001) momStepping =  /* Momentum equation on/off flag */
(PID.TID 0000.0001)                   T
(PID.TID 0000.0001)     ;
(PID.TID 0000.0001) momAdvection =  /* Momentum advection on/off flag */
(PID.TID 0000.0001)                   T
(PID.TID 0000.0001)     ;
(PID.TID 0000.0001) momViscosity =  /* Momentum viscosity on/off flag */
(PID.TID 0000.0001)                   T
(PID.TID 0000.0001)     ;
(PID.TID 0000.0001) useCoriolis =  /* Coriolis on/off flag */
(PID.TID 0000.0001)                   T
(PID.TID 0000.0001)     ;
(PID.TID 0000.0001) momForcing =  /* Momentum forcing on/off flag */
(PID.TID 0000.0001)                   T
(PID.TID 0000.0001)     ;
(PID.TID 0000.0001) momPressureForcing =  /* Momentum pressure term on/off flag */
(PID.TID 0000.0001)                   T
(PID.TID 0000.0001)     ;
(PID.TID 0000.0001) tempStepping =  /* Temperature equation on/off flag */
(PID.TID 0000.0001)                   F
(PID.TID 0000.0001)     ;
(PID.TID 0000.0001) nonHydrostatic =  /* Non-Hydrostatic on/off flag */
(PID.TID 0000.0001)                   F
(PID.TID 0000.0001)     ;
(PID.TID 0000.0001) //
(PID.TID 0000.0001) // Elliptic solver(s) paramters ( PARM02 in namelist )
(PID.TID 0000.0001) //
(PID.TID 0000.0001) cg2dMaxIters =   /* Upper limit on 2d con. grad iterations  */
(PID.TID 0000.0001)                     600
(PID.TID 0000.0001)     ;
(PID.TID 0000.0001) cg2dChkResFreq =   /* 2d con. grad convergence test frequency */
(PID.TID 0000.0001)                       1
(PID.TID 0000.0001)     ;
(PID.TID 0000.0001) cg2dTargetResidual =   /* 2d con. grad target residual  */
(PID.TID 0000.0001)                 1.000000000000000E-12
(PID.TID 0000.0001)     ;
(PID.TID 0000.0001) //
(PID.TID 0000.0001) // Time stepping paramters ( PARM03 in namelist )
(PID.TID 0000.0001) //
(PID.TID 0000.0001) nIter0 =   /* Base timestep number  */
(PID.TID 0000.0001)                       0
(PID.TID 0000.0001)     ;
(PID.TID 0000.0001) nTimeSteps =   /* Number of timesteps */
(PID.TID 0000.0001)                      20
(PID.TID 0000.0001)     ;
(PID.TID 0000.0001) deltatTmom =   /* Momentum equation timestep ( s ) */
(PID.TID 0000.0001)                 1.200000000000000E+03
(PID.TID 0000.0001)     ;
(PID.TID 0000.0001) deltatTtracer =   /* Tracer equation timestep ( s ) */
(PID.TID 0000.0001)                 1.200000000000000E+03
(PID.TID 0000.0001)     ;
(PID.TID 0000.0001) deltatTClock  =   /* Model clock timestep ( s ) */
(PID.TID 0000.0001)                 1.200000000000000E+03
(PID.TID 0000.0001)     ;
(PID.TID 0000.0001) cAdjFreq =   /* Convective adjustment interval ( s ) */
(PID.TID 0000.0001)                 0.000000000000000E+00
(PID.TID 0000.0001)     ;
(PID.TID 0000.0001) abeps =   /* Adams-Bashforth stabilizing weight */
(PID.TID 0000.0001)                 1.000000000000000E-01
(PID.TID 0000.0001)     ;
(PID.TID 0000.0001) tauCD =   /* CD coupling time-scale ( s ) */
(PID.TID 0000.0001)                 1.200000000000000E+03
(PID.TID 0000.0001)     ;
(PID.TID 0000.0001) rCD =   /* Normalised CD coupling parameter */
(PID.TID 0000.0001)                 0.000000000000000E+00
(PID.TID 0000.0001)     ;
(PID.TID 0000.0001) startTime =   /* Run start time ( s ). */
(PID.TID 0000.0001)                 0.000000000000000E+00
(PID.TID 0000.0001)     ;
(PID.TID 0000.0001) endTime =   /* Integration ending time ( s ). */
(PID.TID 0000.0001)                 2.400000000000000E+04
(PID.TID 0000.0001)     ;
(PID.TID 0000.0001) pChkPtFreq =   /* Permanent restart/checkpoint file interval ( s ). */
(PID.TID 0000.0001)                 0.000000000000000E+00
(PID.TID 0000.0001)     ;
(PID.TID 0000.0001) chkPtFreq =   /* Rolling restart/checkpoint file interval ( s ). */
(PID.TID 0000.0001)                 0.000000000000000E+00
(PID.TID 0000.0001)     ;
(PID.TID 0000.0001) dumpFreq =   /* Model state write out interval ( s ). */
(PID.TID 0000.0001)                 8.640000000000000E+04
(PID.TID 0000.0001)     ;
(PID.TID 0000.0001) //
(PID.TID 0000.0001) // Gridding paramters ( PARM04 in namelist )
(PID.TID 0000.0001) //
(PID.TID 0000.0001) usingCartesianGrid =   /* Cartesian coordinates flag ( True / False ) */
(PID.TID 0000.0001)                   F
(PID.TID 0000.0001)     ;
(PID.TID 0000.0001) usingSphericalPolarGrid =   /* Spherical coordinates flag ( True / False ) */
(PID.TID 0000.0001)                   F
(PID.TID 0000.0001)     ;
(PID.TID 0000.0001) groundAtK1 =   /* Lower Boundary (ground) at the surface(k=1) ( T / F ) */
(PID.TID 0000.0001)                   T
(PID.TID 0000.0001)     ;
(PID.TID 0000.0001) Ro_SeaLevel =   /* r(1) ( units of r ) */
(PID.TID 0000.0001)                 1.000000000000000E+05
(PID.TID 0000.0001)     ;
(PID.TID 0000.0001) rkFac =   /* minus Vertical index orientation  */
(PID.TID 0000.0001)                 1.000000000000000E+00
(PID.TID 0000.0001)     ;
(PID.TID 0000.0001) horiVertRatio =   /* Ratio on units : Horiz - Vertical */
(PID.TID 0000.0001)                 9.810000000000000E+00
(PID.TID 0000.0001)     ;
(PID.TID 0000.0001) delZ =   /* W spacing ( m ) */
(PID.TID 0000.0001)                 1.234567000000000E+05       /* K =  1 */
(PID.TID 0000.0001)     ;
(PID.TID 0000.0001) delP =   /* W spacing ( Pa ) */
(PID.TID 0000.0001)                 1.234567000000000E+05       /* K =  1 */
(PID.TID 0000.0001)     ;
(PID.TID 0000.0001) delR =   /* W spacing ( units of r ) */
(PID.TID 0000.0001)                 1.000000000000000E+05       /* K =  1 */
(PID.TID 0000.0001)     ;
(PID.TID 0000.0001) delX =   /* U spacing ( m - cartesian, degrees - spherical ) */
(PID.TID 0000.0001)   192 @  1.234567000000000E+05              /* I =  1:192 */
(PID.TID 0000.0001)     ;
(PID.TID 0000.0001) delY =   /* V spacing ( m - cartesian, degrees - spherical ) */
(PID.TID 0000.0001)    32 @  1.234567000000000E+05              /* J =  1: 32 */
(PID.TID 0000.0001)     ;
(PID.TID 0000.0001) phiMin =    /* South edge (ignored - cartesian, degrees - spherical ) */
(PID.TID 0000.0001)                 0.000000000000000E+00
(PID.TID 0000.0001)     ;
(PID.TID 0000.0001) thetaMin =    /* West edge ( ignored - cartesian, degrees - spherical ) */
(PID.TID 0000.0001)                 0.000000000000000E+00
(PID.TID 0000.0001)     ;
(PID.TID 0000.0001) rSphere =    /* Radius ( ignored - cartesian, m - spherical ) */
(PID.TID 0000.0001)                 6.370000000000000E+06
(PID.TID 0000.0001)     ;
(PID.TID 0000.0001) xcoord =   /* P-point X coord ( m - cartesian, degrees - spherical ) */
(PID.TID 0000.0001)                 1.356047800523947E+02,      /* I =  1 */
(PID.TID 0000.0001)                 1.370435872772412E+02,      /* I =  2 */
(PID.TID 0000.0001)                 1.387794444661104E+02,      /* I =  3 */
(PID.TID 0000.0001)                 1.407655371151270E+02,      /* I =  4 */
(PID.TID 0000.0001)                 1.429741484131780E+02,      /* I =  5 */
(PID.TID 0000.0001)                 1.453882063290585E+02,      /* I =  6 */
(PID.TID 0000.0001)                 1.479956543095821E+02,      /* I =  7 */
(PID.TID 0000.0001)                 1.507864403436732E+02,      /* I =  8 */
(PID.TID 0000.0001)                 1.537506777697171E+02,      /* I =  9 */
(PID.TID 0000.0001)                 1.568773874957365E+02,      /* I = 10 */
(PID.TID 0000.0001)                 1.601535928287294E+02,      /* I = 11 */
(PID.TID 0000.0001)                 1.635636919944486E+02,      /* I = 12 */
(PID.TID 0000.0001)                 1.670891019369793E+02,      /* I = 13 */
(PID.TID 0000.0001)                 1.707081921972806E+02,      /* I = 14 */
(PID.TID 0000.0001)                 1.743965246641777E+02,      /* I = 15 */
(PID.TID 0000.0001)                 1.781273914869666E+02,      /* I = 16 */
(PID.TID 0000.0001)                -1.781273914869666E+02,      /* I = 17 */
(PID.TID 0000.0001)                -1.743965246641777E+02,      /* I = 18 */
(PID.TID 0000.0001)                -1.707081921972806E+02,      /* I = 19 */
(PID.TID 0000.0001)                -1.670891019369793E+02,      /* I = 20 */
(PID.TID 0000.0001)                -1.635636919944486E+02,      /* I = 21 */
(PID.TID 0000.0001)                -1.601535928287294E+02,      /* I = 22 */
(PID.TID 0000.0001)                -1.568773874957365E+02,      /* I = 23 */
(PID.TID 0000.0001)                -1.537506777697171E+02,      /* I = 24 */
(PID.TID 0000.0001)                -1.507864403436732E+02,      /* I = 25 */
(PID.TID 0000.0001)                -1.479956543095821E+02,      /* I = 26 */
(PID.TID 0000.0001)                -1.453882063290585E+02,      /* I = 27 */
(PID.TID 0000.0001)                -1.429741484131780E+02,      /* I = 28 */
(PID.TID 0000.0001)                -1.407655371151270E+02,      /* I = 29 */
(PID.TID 0000.0001)                -1.387794444661104E+02,      /* I = 30 */
(PID.TID 0000.0001)                -1.370435872772412E+02,      /* I = 31 */
(PID.TID 0000.0001)                -1.356047800523947E+02,      /* I = 32 */
(PID.TID 0000.0001)                -1.343952199476053E+02,      /* I = 33 */
(PID.TID 0000.0001)                -1.329564127227588E+02,      /* I = 34 */
(PID.TID 0000.0001)                -1.312205555338896E+02,      /* I = 35 */
(PID.TID 0000.0001)                -1.292344628848730E+02,      /* I = 36 */
(PID.TID 0000.0001)                -1.270258515868220E+02,      /* I = 37 */
(PID.TID 0000.0001)                -1.246117936709415E+02,      /* I = 38 */
(PID.TID 0000.0001)                -1.220043456904179E+02,      /* I = 39 */
(PID.TID 0000.0001)                -1.192135596563268E+02,      /* I = 40 */
(PID.TID 0000.0001)                -1.162493222302829E+02,      /* I = 41 */
(PID.TID 0000.0001)                -1.131226125042634E+02,      /* I = 42 */
(PID.TID 0000.0001)                -1.098464071712706E+02,      /* I = 43 */
(PID.TID 0000.0001)                -1.064363080055513E+02,      /* I = 44 */
(PID.TID 0000.0001)                -1.029108980630207E+02,      /* I = 45 */
(PID.TID 0000.0001)                -9.929180780271940E+01,      /* I = 46 */
(PID.TID 0000.0001)                -9.560347533582234E+01,      /* I = 47 */
(PID.TID 0000.0001)                -9.187260851303344E+01,      /* I = 48 */
(PID.TID 0000.0001)                -8.812739148696656E+01,      /* I = 49 */
(PID.TID 0000.0001)                -8.439652466417766E+01,      /* I = 50 */
(PID.TID 0000.0001)                -8.070819219728060E+01,      /* I = 51 */
(PID.TID 0000.0001)                -7.708910193697932E+01,      /* I = 52 */
(PID.TID 0000.0001)                -7.356369199444866E+01,      /* I = 53 */
(PID.TID 0000.0001)                -7.015359282872943E+01,      /* I = 54 */
(PID.TID 0000.0001)                -6.687738749573657E+01,      /* I = 55 */
(PID.TID 0000.0001)                -6.375067776971709E+01,      /* I = 56 */
(PID.TID 0000.0001)                -6.078644034367323E+01,      /* I = 57 */
(PID.TID 0000.0001)                -5.799565430958209E+01,      /* I = 58 */
(PID.TID 0000.0001)                -5.538820632905851E+01,      /* I = 59 */
(PID.TID 0000.0001)                -5.297414841317800E+01,      /* I = 60 */
(PID.TID 0000.0001)                -5.076553711512695E+01,      /* I = 61 */
(PID.TID 0000.0001)                -4.877944446611043E+01,      /* I = 62 */
(PID.TID 0000.0001)                -4.704358727724115E+01,      /* I = 63 */
(PID.TID 0000.0001)                -4.560478005239466E+01,      /* I = 64 */
(PID.TID 0000.0001)                -1.350000000000000E+02,      /* I = 65 */
(PID.TID 0000.0001)                -1.337919453120371E+02,      /* I = 66 */
(PID.TID 0000.0001)                -1.321863035748696E+02,      /* I = 67 */
(PID.TID 0000.0001)                -1.302823232885607E+02,      /* I = 68 */
(PID.TID 0000.0001)                -1.281226168021277E+02,      /* I = 69 */
(PID.TID 0000.0001)                -1.257299562852129E+02,      /* I = 70 */
(PID.TID 0000.0001)                -1.231187167466594E+02,      /* I = 71 */
(PID.TID 0000.0001)                -1.202998183221324E+02,      /* I = 72 */
(PID.TID 0000.0001)                -1.172834500820765E+02,      /* I = 73 */
(PID.TID 0000.0001)                -1.140808539514698E+02,      /* I = 74 */
(PID.TID 0000.0001)                -1.107056072951585E+02,      /* I = 75 */
(PID.TID 0000.0001)                -1.071745419238385E+02,      /* I = 76 */
(PID.TID 0000.0001)                -1.035083116938107E+02,      /* I = 77 */
(PID.TID 0000.0001)                -9.973157196212824E+01,      /* I = 78 */
(PID.TID 0000.0001)                -9.587273256875815E+01,      /* I = 79 */
(PID.TID 0000.0001)                -9.196327991452495E+01,      /* I = 80 */
(PID.TID 0000.0001)                -8.803672008547505E+01,      /* I = 81 */
(PID.TID 0000.0001)                -8.412726743124185E+01,      /* I = 82 */
(PID.TID 0000.0001)                -8.026842803787176E+01,      /* I = 83 */
(PID.TID 0000.0001)                -7.649168830618933E+01,      /* I = 84 */
(PID.TID 0000.0001)                -7.282545807616151E+01,      /* I = 85 */
(PID.TID 0000.0001)                -6.929439270484148E+01,      /* I = 86 */
(PID.TID 0000.0001)                -6.591914604853017E+01,      /* I = 87 */
(PID.TID 0000.0001)                -6.271654991792349E+01,      /* I = 88 */
(PID.TID 0000.0001)                -5.970018167786763E+01,      /* I = 89 */
(PID.TID 0000.0001)                -5.688128325334063E+01,      /* I = 90 */
(PID.TID 0000.0001)                -5.427004371478710E+01,      /* I = 91 */
(PID.TID 0000.0001)                -5.187738319787232E+01,      /* I = 92 */
(PID.TID 0000.0001)                -4.971767671143927E+01,      /* I = 93 */
(PID.TID 0000.0001)                -4.781369642513038E+01,      /* I = 94 */
(PID.TID 0000.0001)                -4.620805468796295E+01,      /* I = 95 */
(PID.TID 0000.0001)                -4.500000000000000E+01,      /* I = 96 */
(PID.TID 0000.0001)                -4.439521994760534E+01,      /* I = 97 */
(PID.TID 0000.0001)                -4.416320923386709E+01,      /* I = 98 */
(PID.TID 0000.0001)                -4.402796178188066E+01,      /* I = 99 */
(PID.TID 0000.0001)                -4.393453430982110E+01,      /* I =100 */
(PID.TID 0000.0001)                -4.386554668529576E+01,      /* I =101 */
(PID.TID 0000.0001)                -4.381287805790190E+01,      /* I =102 */
(PID.TID 0000.0001)                -4.377192054903973E+01,      /* I =103 */
(PID.TID 0000.0001)                -4.373974889280663E+01,      /* I =104 */
(PID.TID 0000.0001)                -4.371437196732661E+01,      /* I =105 */
(PID.TID 0000.0001)                -4.369437337290993E+01,      /* I =106 */
(PID.TID 0000.0001)                -4.367871822605535E+01,      /* I =107 */
(PID.TID 0000.0001)                -4.366664040897447E+01,      /* I =108 */
(PID.TID 0000.0001)                -4.365757275742401E+01,      /* I =109 */
(PID.TID 0000.0001)                -4.365110212092870E+01,      /* I =110 */
(PID.TID 0000.0001)                -4.364693994094198E+01,      /* I =111 */
(PID.TID 0000.0001)     2 @ -4.364490324992833E+01,             /* I =112:113 */
(PID.TID 0000.0001)                -4.364693994094198E+01,      /* I =114 */
(PID.TID 0000.0001)                -4.365110212092870E+01,      /* I =115 */
(PID.TID 0000.0001)                -4.365757275742401E+01,      /* I =116 */
(PID.TID 0000.0001)                -4.366664040897447E+01,      /* I =117 */
(PID.TID 0000.0001)                -4.367871822605535E+01,      /* I =118 */
(PID.TID 0000.0001)                -4.369437337290993E+01,      /* I =119 */
(PID.TID 0000.0001)                -4.371437196732661E+01,      /* I =120 */
(PID.TID 0000.0001)                -4.373974889280663E+01,      /* I =121 */
(PID.TID 0000.0001)                -4.377192054903973E+01,      /* I =122 */
(PID.TID 0000.0001)                -4.381287805790190E+01,      /* I =123 */
(PID.TID 0000.0001)                -4.386554668529576E+01,      /* I =124 */
(PID.TID 0000.0001)                -4.393453430982110E+01,      /* I =125 */
(PID.TID 0000.0001)                -4.402796178188066E+01,      /* I =126 */
(PID.TID 0000.0001)                -4.416320923386709E+01,      /* I =127 */
(PID.TID 0000.0001)                -4.439521994760534E+01,      /* I =128 */
(PID.TID 0000.0001)                 4.560478005239466E+01,      /* I =129 */
(PID.TID 0000.0001)                 4.583679076613291E+01,      /* I =130 */
(PID.TID 0000.0001)                 4.597203821811934E+01,      /* I =131 */
(PID.TID 0000.0001)                 4.606546569017890E+01,      /* I =132 */
(PID.TID 0000.0001)                 4.613445331470424E+01,      /* I =133 */
(PID.TID 0000.0001)                 4.618712194209810E+01,      /* I =134 */
(PID.TID 0000.0001)                 4.622807945096027E+01,      /* I =135 */
(PID.TID 0000.0001)                 4.626025110719337E+01,      /* I =136 */
(PID.TID 0000.0001)                 4.628562803267339E+01,      /* I =137 */
(PID.TID 0000.0001)                 4.630562662709007E+01,      /* I =138 */
(PID.TID 0000.0001)                 4.632128177394465E+01,      /* I =139 */
(PID.TID 0000.0001)                 4.633335959102553E+01,      /* I =140 */
(PID.TID 0000.0001)                 4.634242724257599E+01,      /* I =141 */
(PID.TID 0000.0001)                 4.634889787907130E+01,      /* I =142 */
(PID.TID 0000.0001)                 4.635306005905802E+01,      /* I =143 */
(PID.TID 0000.0001)     2 @  4.635509675007167E+01,             /* I =144:145 */
(PID.TID 0000.0001)                 4.635306005905802E+01,      /* I =146 */
(PID.TID 0000.0001)                 4.634889787907130E+01,      /* I =147 */
(PID.TID 0000.0001)                 4.634242724257599E+01,      /* I =148 */
(PID.TID 0000.0001)                 4.633335959102553E+01,      /* I =149 */
(PID.TID 0000.0001)                 4.632128177394465E+01,      /* I =150 */
(PID.TID 0000.0001)                 4.630562662709007E+01,      /* I =151 */
(PID.TID 0000.0001)                 4.628562803267339E+01,      /* I =152 */
(PID.TID 0000.0001)                 4.626025110719337E+01,      /* I =153 */
(PID.TID 0000.0001)                 4.622807945096027E+01,      /* I =154 */
(PID.TID 0000.0001)                 4.618712194209810E+01,      /* I =155 */
(PID.TID 0000.0001)                 4.613445331470424E+01,      /* I =156 */
(PID.TID 0000.0001)                 4.606546569017890E+01,      /* I =157 */
(PID.TID 0000.0001)                 4.597203821811934E+01,      /* I =158 */
(PID.TID 0000.0001)                 4.583679076613291E+01,      /* I =159 */
(PID.TID 0000.0001)                 4.560478005239466E+01,      /* I =160 */
(PID.TID 0000.0001)                 4.500000000000000E+01,      /* I =161 */
(PID.TID 0000.0001)                 4.379194531203705E+01,      /* I =162 */
(PID.TID 0000.0001)                 4.218630357486962E+01,      /* I =163 */
(PID.TID 0000.0001)                 4.028232328856073E+01,      /* I =164 */
(PID.TID 0000.0001)                 3.812261680212768E+01,      /* I =165 */
(PID.TID 0000.0001)                 3.572995628521290E+01,      /* I =166 */
(PID.TID 0000.0001)                 3.311871674665937E+01,      /* I =167 */
(PID.TID 0000.0001)                 3.029981832213237E+01,      /* I =168 */
(PID.TID 0000.0001)                 2.728345008207651E+01,      /* I =169 */
(PID.TID 0000.0001)                 2.408085395146982E+01,      /* I =170 */
(PID.TID 0000.0001)                 2.070560729515852E+01,      /* I =171 */
(PID.TID 0000.0001)                 1.717454192383849E+01,      /* I =172 */
(PID.TID 0000.0001)                 1.350831169381066E+01,      /* I =173 */
(PID.TID 0000.0001)                 9.731571962128257E+00,      /* I =174 */
(PID.TID 0000.0001)                 5.872732568758167E+00,      /* I =175 */
(PID.TID 0000.0001)                 1.963279914524932E+00,      /* I =176 */
(PID.TID 0000.0001)                -1.963279914524932E+00,      /* I =177 */
(PID.TID 0000.0001)                -5.872732568758167E+00,      /* I =178 */
(PID.TID 0000.0001)                -9.731571962128257E+00,      /* I =179 */
(PID.TID 0000.0001)                -1.350831169381066E+01,      /* I =180 */
(PID.TID 0000.0001)                -1.717454192383849E+01,      /* I =181 */
(PID.TID 0000.0001)                -2.070560729515852E+01,      /* I =182 */
(PID.TID 0000.0001)                -2.408085395146982E+01,      /* I =183 */
(PID.TID 0000.0001)                -2.728345008207651E+01,      /* I =184 */
(PID.TID 0000.0001)                -3.029981832213237E+01,      /* I =185 */
(PID.TID 0000.0001)                -3.311871674665937E+01,      /* I =186 */
(PID.TID 0000.0001)                -3.572995628521290E+01,      /* I =187 */
(PID.TID 0000.0001)                -3.812261680212768E+01,      /* I =188 */
(PID.TID 0000.0001)                -4.028232328856073E+01,      /* I =189 */
(PID.TID 0000.0001)                -4.218630357486962E+01,      /* I =190 */
(PID.TID 0000.0001)                -4.379194531203705E+01,      /* I =191 */
(PID.TID 0000.0001)                -4.500000000000000E+01       /* I =192 */
(PID.TID 0000.0001)     ;
(PID.TID 0000.0001) ycoord =   /* P-point Y coord ( m - cartesian, degrees - spherical ) */
(PID.TID 0000.0001)                -3.497677942598243E+01,      /* J =  1 */
(PID.TID 0000.0001)                -3.374005967394886E+01,      /* J =  2 */
(PID.TID 0000.0001)                -3.220655175667454E+01,      /* J =  3 */
(PID.TID 0000.0001)                -3.045756348838641E+01,      /* J =  4 */
(PID.TID 0000.0001)                -2.853728129852918E+01,      /* J =  5 */
(PID.TID 0000.0001)                -2.647426640173173E+01,      /* J =  6 */
(PID.TID 0000.0001)                -2.428936657094636E+01,      /* J =  7 */
(PID.TID 0000.0001)                -2.199915808312262E+01,      /* J =  8 */
(PID.TID 0000.0001)                -1.961768597440146E+01,      /* J =  9 */
(PID.TID 0000.0001)                -1.715743888281371E+01,      /* J = 10 */
(PID.TID 0000.0001)                -1.462993396899330E+01,      /* J = 11 */
(PID.TID 0000.0001)                -1.204608340464756E+01,      /* J = 12 */
(PID.TID 0000.0001)                -9.416429130284818E+00,      /* J = 13 */
(PID.TID 0000.0001)                -6.751293662992216E+00,      /* J = 14 */
(PID.TID 0000.0001)                -4.060875511835959E+00,      /* J = 15 */
(PID.TID 0000.0001)                -1.355307764409121E+00,      /* J = 16 */
(PID.TID 0000.0001)                 1.355307764409121E+00,      /* J = 17 */
(PID.TID 0000.0001)                 4.060875511835959E+00,      /* J = 18 */
(PID.TID 0000.0001)                 6.751293662992216E+00,      /* J = 19 */
(PID.TID 0000.0001)                 9.416429130284818E+00,      /* J = 20 */
(PID.TID 0000.0001)                 1.204608340464756E+01,      /* J = 21 */
(PID.TID 0000.0001)                 1.462993396899330E+01,      /* J = 22 */
(PID.TID 0000.0001)                 1.715743888281371E+01,      /* J = 23 */
(PID.TID 0000.0001)                 1.961768597440146E+01,      /* J = 24 */
(PID.TID 0000.0001)                 2.199915808312262E+01,      /* J = 25 */
(PID.TID 0000.0001)                 2.428936657094636E+01,      /* J = 26 */
(PID.TID 0000.0001)                 2.647426640173173E+01,      /* J = 27 */
(PID.TID 0000.0001)                 2.853728129852918E+01,      /* J = 28 */
(PID.TID 0000.0001)                 3.045756348838641E+01,      /* J = 29 */
(PID.TID 0000.0001)                 3.220655175667454E+01,      /* J = 30 */
(PID.TID 0000.0001)                 3.374005967394886E+01,      /* J = 31 */
(PID.TID 0000.0001)                 3.497677942598243E+01       /* J = 32 */
(PID.TID 0000.0001)     ;
(PID.TID 0000.0001) rcoord =   /* P-point R coordinate (  units of r ) */
(PID.TID 0000.0001)                 5.000000000000000E+04       /* K =  1 */
(PID.TID 0000.0001)     ;
(PID.TID 0000.0001) dxF =  /* dxF(:,1,:,1) ( m - cartesian, degrees - spherical ) */
(PID.TID 0000.0001)                 1.208164497427513E+05,      /* I =  1 */
(PID.TID 0000.0001)                 1.563893108133410E+05,      /* I =  2 */
(PID.TID 0000.0001)                 1.835578660170750E+05,      /* I =  3 */
(PID.TID 0000.0001)                 2.045897643777963E+05,      /* I =  4 */
(PID.TID 0000.0001)                 2.218355892332067E+05,      /* I =  5 */
(PID.TID 0000.0001)                 2.364355578808568E+05,      /* I =  6 */
(PID.TID 0000.0001)                 2.490024063194764E+05,      /* I =  7 */
(PID.TID 0000.0001)                 2.598920493028891E+05,      /* I =  8 */
(PID.TID 0000.0001)                 2.693210711270105E+05,      /* I =  9 */
(PID.TID 0000.0001)                 2.774243477569765E+05,      /* I = 10 */
(PID.TID 0000.0001)                 2.842862732306662E+05,      /* I = 11 */
(PID.TID 0000.0001)                 2.899590841291803E+05,      /* I = 12 */
(PID.TID 0000.0001)                 2.944743020883619E+05,      /* I = 13 */
(PID.TID 0000.0001)                 2.978502004615897E+05,      /* I = 14 */
(PID.TID 0000.0001)                 3.000967821328745E+05,      /* I = 15 */
(PID.TID 0000.0001)     2 @  3.012191048042373E+05,             /* I = 16: 17 */
(PID.TID 0000.0001)                 3.000967821328745E+05,      /* I = 18 */
(PID.TID 0000.0001)                 2.978502004615897E+05,      /* I = 19 */
(PID.TID 0000.0001)                 2.944743020883619E+05,      /* I = 20 */
(PID.TID 0000.0001)                 2.899590841291803E+05,      /* I = 21 */
(PID.TID 0000.0001)                 2.842862732306662E+05,      /* I = 22 */
(PID.TID 0000.0001)                 2.774243477569765E+05,      /* I = 23 */
(PID.TID 0000.0001)                 2.693210711270105E+05,      /* I = 24 */
(PID.TID 0000.0001)                 2.598920493028891E+05,      /* I = 25 */
(PID.TID 0000.0001)                 2.490024063194764E+05,      /* I = 26 */
(PID.TID 0000.0001)                 2.364355578808568E+05,      /* I = 27 */
(PID.TID 0000.0001)                 2.218355892332067E+05,      /* I = 28 */
(PID.TID 0000.0001)                 2.045897643777963E+05,      /* I = 29 */
(PID.TID 0000.0001)                 1.835578660170750E+05,      /* I = 30 */
(PID.TID 0000.0001)                 1.563893108133410E+05,      /* I = 31 */
(PID.TID 0000.0001)     2 @  1.208164497427513E+05,             /* I = 32: 33 */
(PID.TID 0000.0001)                 1.563893108133410E+05,      /* I = 34 */
(PID.TID 0000.0001)                 1.835578660170750E+05,      /* I = 35 */
(PID.TID 0000.0001)                 2.045897643777963E+05,      /* I = 36 */
(PID.TID 0000.0001)                 2.218355892332067E+05,      /* I = 37 */
(PID.TID 0000.0001)                 2.364355578808568E+05,      /* I = 38 */
(PID.TID 0000.0001)                 2.490024063194764E+05,      /* I = 39 */
(PID.TID 0000.0001)                 2.598920493028891E+05,      /* I = 40 */
(PID.TID 0000.0001)                 2.693210711270105E+05,      /* I = 41 */
(PID.TID 0000.0001)                 2.774243477569765E+05,      /* I = 42 */
(PID.TID 0000.0001)                 2.842862732306662E+05,      /* I = 43 */
(PID.TID 0000.0001)                 2.899590841291803E+05,      /* I = 44 */
(PID.TID 0000.0001)                 2.944743020883619E+05,      /* I = 45 */
(PID.TID 0000.0001)                 2.978502004615897E+05,      /* I = 46 */
(PID.TID 0000.0001)                 3.000967821328745E+05,      /* I = 47 */
(PID.TID 0000.0001)     2 @  3.012191048042373E+05,             /* I = 48: 49 */
(PID.TID 0000.0001)                 3.000967821328745E+05,      /* I = 50 */
(PID.TID 0000.0001)                 2.978502004615897E+05,      /* I = 51 */
(PID.TID 0000.0001)                 2.944743020883619E+05,      /* I = 52 */
(PID.TID 0000.0001)                 2.899590841291803E+05,      /* I = 53 */
(PID.TID 0000.0001)                 2.842862732306662E+05,      /* I = 54 */
(PID.TID 0000.0001)                 2.774243477569765E+05,      /* I = 55 */
(PID.TID 0000.0001)                 2.693210711270105E+05,      /* I = 56 */
(PID.TID 0000.0001)                 2.598920493028891E+05,      /* I = 57 */
(PID.TID 0000.0001)                 2.490024063194764E+05,      /* I = 58 */
(PID.TID 0000.0001)                 2.364355578808568E+05,      /* I = 59 */
(PID.TID 0000.0001)                 2.218355892332067E+05,      /* I = 60 */
(PID.TID 0000.0001)                 2.045897643777963E+05,      /* I = 61 */
(PID.TID 0000.0001)                 1.835578660170750E+05,      /* I = 62 */
(PID.TID 0000.0001)                 1.563893108133410E+05,      /* I = 63 */
(PID.TID 0000.0001)     2 @  1.208164497427513E+05,             /* I = 64: 65 */
(PID.TID 0000.0001)                 1.563893108133410E+05,      /* I = 66 */
(PID.TID 0000.0001)                 1.835578660170750E+05,      /* I = 67 */
(PID.TID 0000.0001)                 2.045897643777963E+05,      /* I = 68 */
(PID.TID 0000.0001)                 2.218355892332067E+05,      /* I = 69 */
(PID.TID 0000.0001)                 2.364355578808568E+05,      /* I = 70 */
(PID.TID 0000.0001)                 2.490024063194764E+05,      /* I = 71 */
(PID.TID 0000.0001)                 2.598920493028891E+05,      /* I = 72 */
(PID.TID 0000.0001)                 2.693210711270105E+05,      /* I = 73 */
(PID.TID 0000.0001)                 2.774243477569765E+05,      /* I = 74 */
(PID.TID 0000.0001)                 2.842862732306662E+05,      /* I = 75 */
(PID.TID 0000.0001)                 2.899590841291803E+05,      /* I = 76 */
(PID.TID 0000.0001)                 2.944743020883619E+05,      /* I = 77 */
(PID.TID 0000.0001)                 2.978502004615897E+05,      /* I = 78 */
(PID.TID 0000.0001)                 3.000967821328745E+05,      /* I = 79 */
(PID.TID 0000.0001)     2 @  3.012191048042373E+05,             /* I = 80: 81 */
(PID.TID 0000.0001)                 3.000967821328745E+05,      /* I = 82 */
(PID.TID 0000.0001)                 2.978502004615897E+05,      /* I = 83 */
(PID.TID 0000.0001)                 2.944743020883619E+05,      /* I = 84 */
(PID.TID 0000.0001)                 2.899590841291803E+05,      /* I = 85 */
(PID.TID 0000.0001)                 2.842862732306662E+05,      /* I = 86 */
(PID.TID 0000.0001)                 2.774243477569765E+05,      /* I = 87 */
(PID.TID 0000.0001)                 2.693210711270105E+05,      /* I = 88 */
(PID.TID 0000.0001)                 2.598920493028891E+05,      /* I = 89 */
(PID.TID 0000.0001)                 2.490024063194764E+05,      /* I = 90 */
(PID.TID 0000.0001)                 2.364355578808568E+05,      /* I = 91 */
(PID.TID 0000.0001)                 2.218355892332067E+05,      /* I = 92 */
(PID.TID 0000.0001)                 2.045897643777963E+05,      /* I = 93 */
(PID.TID 0000.0001)                 1.835578660170750E+05,      /* I = 94 */
(PID.TID 0000.0001)                 1.563893108133410E+05,      /* I = 95 */
(PID.TID 0000.0001)     2 @  1.208164497427513E+05,             /* I = 96: 97 */
(PID.TID 0000.0001)                 1.563893108133410E+05,      /* I = 98 */
(PID.TID 0000.0001)                 1.835578660170750E+05,      /* I = 99 */
(PID.TID 0000.0001)                 2.045897643777963E+05,      /* I =100 */
(PID.TID 0000.0001)                 2.218355892332067E+05,      /* I =101 */
(PID.TID 0000.0001)                 2.364355578808568E+05,      /* I =102 */
(PID.TID 0000.0001)                 2.490024063194764E+05,      /* I =103 */
(PID.TID 0000.0001)                 2.598920493028891E+05,      /* I =104 */
(PID.TID 0000.0001)                 2.693210711270105E+05,      /* I =105 */
(PID.TID 0000.0001)                 2.774243477569765E+05,      /* I =106 */
(PID.TID 0000.0001)                 2.842862732306662E+05,      /* I =107 */
(PID.TID 0000.0001)                 2.899590841291803E+05,      /* I =108 */
(PID.TID 0000.0001)                 2.944743020883619E+05,      /* I =109 */
(PID.TID 0000.0001)                 2.978502004615897E+05,      /* I =110 */
(PID.TID 0000.0001)                 3.000967821328745E+05,      /* I =111 */
(PID.TID 0000.0001)     2 @  3.012191048042373E+05,             /* I =112:113 */
(PID.TID 0000.0001)                 3.000967821328745E+05,      /* I =114 */
(PID.TID 0000.0001)                 2.978502004615897E+05,      /* I =115 */
(PID.TID 0000.0001)                 2.944743020883619E+05,      /* I =116 */
(PID.TID 0000.0001)                 2.899590841291803E+05,      /* I =117 */
(PID.TID 0000.0001)                 2.842862732306662E+05,      /* I =118 */
(PID.TID 0000.0001)                 2.774243477569765E+05,      /* I =119 */
(PID.TID 0000.0001)                 2.693210711270105E+05,      /* I =120 */
(PID.TID 0000.0001)                 2.598920493028891E+05,      /* I =121 */
(PID.TID 0000.0001)                 2.490024063194764E+05,      /* I =122 */
(PID.TID 0000.0001)                 2.364355578808568E+05,      /* I =123 */
(PID.TID 0000.0001)                 2.218355892332067E+05,      /* I =124 */
(PID.TID 0000.0001)                 2.045897643777963E+05,      /* I =125 */
(PID.TID 0000.0001)                 1.835578660170750E+05,      /* I =126 */
(PID.TID 0000.0001)                 1.563893108133410E+05,      /* I =127 */
(PID.TID 0000.0001)     2 @  1.208164497427513E+05,             /* I =128:129 */
(PID.TID 0000.0001)                 1.563893108133410E+05,      /* I =130 */
(PID.TID 0000.0001)                 1.835578660170750E+05,      /* I =131 */
(PID.TID 0000.0001)                 2.045897643777963E+05,      /* I =132 */
(PID.TID 0000.0001)                 2.218355892332067E+05,      /* I =133 */
(PID.TID 0000.0001)                 2.364355578808568E+05,      /* I =134 */
(PID.TID 0000.0001)                 2.490024063194764E+05,      /* I =135 */
(PID.TID 0000.0001)                 2.598920493028891E+05,      /* I =136 */
(PID.TID 0000.0001)                 2.693210711270105E+05,      /* I =137 */
(PID.TID 0000.0001)                 2.774243477569765E+05,      /* I =138 */
(PID.TID 0000.0001)                 2.842862732306662E+05,      /* I =139 */
(PID.TID 0000.0001)                 2.899590841291803E+05,      /* I =140 */
(PID.TID 0000.0001)                 2.944743020883619E+05,      /* I =141 */
(PID.TID 0000.0001)                 2.978502004615897E+05,      /* I =142 */
(PID.TID 0000.0001)                 3.000967821328745E+05,      /* I =143 */
(PID.TID 0000.0001)     2 @  3.012191048042373E+05,             /* I =144:145 */
(PID.TID 0000.0001)                 3.000967821328745E+05,      /* I =146 */
(PID.TID 0000.0001)                 2.978502004615897E+05,      /* I =147 */
(PID.TID 0000.0001)                 2.944743020883619E+05,      /* I =148 */
(PID.TID 0000.0001)                 2.899590841291803E+05,      /* I =149 */
(PID.TID 0000.0001)                 2.842862732306662E+05,      /* I =150 */
(PID.TID 0000.0001)                 2.774243477569765E+05,      /* I =151 */
(PID.TID 0000.0001)                 2.693210711270105E+05,      /* I =152 */
(PID.TID 0000.0001)                 2.598920493028891E+05,      /* I =153 */
(PID.TID 0000.0001)                 2.490024063194764E+05,      /* I =154 */
(PID.TID 0000.0001)                 2.364355578808568E+05,      /* I =155 */
(PID.TID 0000.0001)                 2.218355892332067E+05,      /* I =156 */
(PID.TID 0000.0001)                 2.045897643777963E+05,      /* I =157 */
(PID.TID 0000.0001)                 1.835578660170750E+05,      /* I =158 */
(PID.TID 0000.0001)                 1.563893108133410E+05,      /* I =159 */
(PID.TID 0000.0001)     2 @  1.208164497427513E+05,             /* I =160:161 */
(PID.TID 0000.0001)                 1.563893108133410E+05,      /* I =162 */
(PID.TID 0000.0001)                 1.835578660170750E+05,      /* I =163 */
(PID.TID 0000.0001)                 2.045897643777963E+05,      /* I =164 */
(PID.TID 0000.0001)                 2.218355892332067E+05,      /* I =165 */
(PID.TID 0000.0001)                 2.364355578808568E+05,      /* I =166 */
(PID.TID 0000.0001)                 2.490024063194764E+05,      /* I =167 */
(PID.TID 0000.0001)                 2.598920493028891E+05,      /* I =168 */
(PID.TID 0000.0001)                 2.693210711270105E+05,      /* I =169 */
(PID.TID 0000.0001)                 2.774243477569765E+05,      /* I =170 */
(PID.TID 0000.0001)                 2.842862732306662E+05,      /* I =171 */
(PID.TID 0000.0001)                 2.899590841291803E+05,      /* I =172 */
(PID.TID 0000.0001)                 2.944743020883619E+05,      /* I =173 */
(PID.TID 0000.0001)                 2.978502004615897E+05,      /* I =174 */
(PID.TID 0000.0001)                 3.000967821328745E+05,      /* I =175 */
(PID.TID 0000.0001)     2 @  3.012191048042373E+05,             /* I =176:177 */
(PID.TID 0000.0001)                 3.000967821328745E+05,      /* I =178 */
(PID.TID 0000.0001)                 2.978502004615897E+05,      /* I =179 */
(PID.TID 0000.0001)                 2.944743020883619E+05,      /* I =180 */
(PID.TID 0000.0001)                 2.899590841291803E+05,      /* I =181 */
(PID.TID 0000.0001)                 2.842862732306662E+05,      /* I =182 */
(PID.TID 0000.0001)                 2.774243477569765E+05,      /* I =183 */
(PID.TID 0000.0001)                 2.693210711270105E+05,      /* I =184 */
(PID.TID 0000.0001)                 2.598920493028891E+05,      /* I =185 */
(PID.TID 0000.0001)                 2.490024063194764E+05,      /* I =186 */
(PID.TID 0000.0001)                 2.364355578808568E+05,      /* I =187 */
(PID.TID 0000.0001)                 2.218355892332067E+05,      /* I =188 */
(PID.TID 0000.0001)                 2.045897643777963E+05,      /* I =189 */
(PID.TID 0000.0001)                 1.835578660170750E+05,      /* I =190 */
(PID.TID 0000.0001)                 1.563893108133410E+05,      /* I =191 */
(PID.TID 0000.0001)                 1.208164497427513E+05       /* I =192 */
(PID.TID 0000.0001)     ;
(PID.TID 0000.0001) dxF =  /* dxF(1,:,1,:) ( m - cartesian, degrees - spherical ) */
(PID.TID 0000.0001)                 1.208164497427513E+05,      /* J =  1 */
(PID.TID 0000.0001)                 1.575313246967297E+05,      /* J =  2 */
(PID.TID 0000.0001)                 1.841567262292191E+05,      /* J =  3 */
(PID.TID 0000.0001)                 2.049540475644011E+05,      /* J =  4 */
(PID.TID 0000.0001)                 2.220840793516689E+05,      /* J =  5 */
(PID.TID 0000.0001)                 2.366191866372900E+05,      /* J =  6 */
(PID.TID 0000.0001)                 2.491464083009804E+05,      /* J =  7 */
(PID.TID 0000.0001)                 2.600103750884694E+05,      /* J =  8 */
(PID.TID 0000.0001)                 2.694220899589415E+05,      /* J =  9 */
(PID.TID 0000.0001)                 2.775134021642698E+05,      /* J = 10 */
(PID.TID 0000.0001)                 2.843669426491172E+05,      /* J = 11 */
(PID.TID 0000.0001)                 2.900338631125396E+05,      /* J = 12 */
(PID.TID 0000.0001)                 2.945449914488923E+05,      /* J = 13 */
(PID.TID 0000.0001)                 2.979181490241748E+05,      /* J = 14 */
(PID.TID 0000.0001)                 3.001630475443809E+05,      /* J = 15 */
(PID.TID 0000.0001)     2 @  3.012845239852109E+05,             /* J = 16: 17 */
(PID.TID 0000.0001)                 3.001630475443809E+05,      /* J = 18 */
(PID.TID 0000.0001)                 2.979181490241748E+05,      /* J = 19 */
(PID.TID 0000.0001)                 2.945449914488923E+05,      /* J = 20 */
(PID.TID 0000.0001)                 2.900338631125396E+05,      /* J = 21 */
(PID.TID 0000.0001)                 2.843669426491172E+05,      /* J = 22 */
(PID.TID 0000.0001)                 2.775134021642698E+05,      /* J = 23 */
(PID.TID 0000.0001)                 2.694220899589415E+05,      /* J = 24 */
(PID.TID 0000.0001)                 2.600103750884694E+05,      /* J = 25 */
(PID.TID 0000.0001)                 2.491464083009804E+05,      /* J = 26 */
(PID.TID 0000.0001)                 2.366191866372900E+05,      /* J = 27 */
(PID.TID 0000.0001)                 2.220840793516689E+05,      /* J = 28 */
(PID.TID 0000.0001)                 2.049540475644011E+05,      /* J = 29 */
(PID.TID 0000.0001)                 1.841567262292191E+05,      /* J = 30 */
(PID.TID 0000.0001)                 1.575313246967297E+05,      /* J = 31 */
(PID.TID 0000.0001)                 1.208164497427513E+05       /* J = 32 */
(PID.TID 0000.0001)     ;
(PID.TID 0000.0001) dyF =  /* dyF(:,1,:,1) ( m - cartesian, degrees - spherical ) */
(PID.TID 0000.0001)                 1.208164497427513E+05,      /* I =  1 */
(PID.TID 0000.0001)                 1.575313246967297E+05,      /* I =  2 */
(PID.TID 0000.0001)                 1.841567262292191E+05,      /* I =  3 */
(PID.TID 0000.0001)                 2.049540475644011E+05,      /* I =  4 */
(PID.TID 0000.0001)                 2.220840793516689E+05,      /* I =  5 */
(PID.TID 0000.0001)                 2.366191866372900E+05,      /* I =  6 */
(PID.TID 0000.0001)                 2.491464083009804E+05,      /* I =  7 */
(PID.TID 0000.0001)                 2.600103750884694E+05,      /* I =  8 */
(PID.TID 0000.0001)                 2.694220899589415E+05,      /* I =  9 */
(PID.TID 0000.0001)                 2.775134021642698E+05,      /* I = 10 */
(PID.TID 0000.0001)                 2.843669426491172E+05,      /* I = 11 */
(PID.TID 0000.0001)                 2.900338631125396E+05,      /* I = 12 */
(PID.TID 0000.0001)                 2.945449914488923E+05,      /* I = 13 */
(PID.TID 0000.0001)                 2.979181490241748E+05,      /* I = 14 */
(PID.TID 0000.0001)                 3.001630475443809E+05,      /* I = 15 */
(PID.TID 0000.0001)     2 @  3.012845239852109E+05,             /* I = 16: 17 */
(PID.TID 0000.0001)                 3.001630475443809E+05,      /* I = 18 */
(PID.TID 0000.0001)                 2.979181490241748E+05,      /* I = 19 */
(PID.TID 0000.0001)                 2.945449914488923E+05,      /* I = 20 */
(PID.TID 0000.0001)                 2.900338631125396E+05,      /* I = 21 */
(PID.TID 0000.0001)                 2.843669426491172E+05,      /* I = 22 */
(PID.TID 0000.0001)                 2.775134021642698E+05,      /* I = 23 */
(PID.TID 0000.0001)                 2.694220899589415E+05,      /* I = 24 */
(PID.TID 0000.0001)                 2.600103750884694E+05,      /* I = 25 */
(PID.TID 0000.0001)                 2.491464083009804E+05,      /* I = 26 */
(PID.TID 0000.0001)                 2.366191866372900E+05,      /* I = 27 */
(PID.TID 0000.0001)                 2.220840793516689E+05,      /* I = 28 */
(PID.TID 0000.0001)                 2.049540475644011E+05,      /* I = 29 */
(PID.TID 0000.0001)                 1.841567262292191E+05,      /* I = 30 */
(PID.TID 0000.0001)                 1.575313246967297E+05,      /* I = 31 */
(PID.TID 0000.0001)     2 @  1.208164497427513E+05,             /* I = 32: 33 */
(PID.TID 0000.0001)                 1.575313246967297E+05,      /* I = 34 */
(PID.TID 0000.0001)                 1.841567262292191E+05,      /* I = 35 */
(PID.TID 0000.0001)                 2.049540475644011E+05,      /* I = 36 */
(PID.TID 0000.0001)                 2.220840793516689E+05,      /* I = 37 */
(PID.TID 0000.0001)                 2.366191866372900E+05,      /* I = 38 */
(PID.TID 0000.0001)                 2.491464083009804E+05,      /* I = 39 */
(PID.TID 0000.0001)                 2.600103750884694E+05,      /* I = 40 */
(PID.TID 0000.0001)                 2.694220899589415E+05,      /* I = 41 */
(PID.TID 0000.0001)                 2.775134021642698E+05,      /* I = 42 */
(PID.TID 0000.0001)                 2.843669426491172E+05,      /* I = 43 */
(PID.TID 0000.0001)                 2.900338631125396E+05,      /* I = 44 */
(PID.TID 0000.0001)                 2.945449914488923E+05,      /* I = 45 */
(PID.TID 0000.0001)                 2.979181490241748E+05,      /* I = 46 */
(PID.TID 0000.0001)                 3.001630475443809E+05,      /* I = 47 */
(PID.TID 0000.0001)     2 @  3.012845239852109E+05,             /* I = 48: 49 */
(PID.TID 0000.0001)                 3.001630475443809E+05,      /* I = 50 */
(PID.TID 0000.0001)                 2.979181490241748E+05,      /* I = 51 */
(PID.TID 0000.0001)                 2.945449914488923E+05,      /* I = 52 */
(PID.TID 0000.0001)                 2.900338631125396E+05,      /* I = 53 */
(PID.TID 0000.0001)                 2.843669426491172E+05,      /* I = 54 */
(PID.TID 0000.0001)                 2.775134021642698E+05,      /* I = 55 */
(PID.TID 0000.0001)                 2.694220899589415E+05,      /* I = 56 */
(PID.TID 0000.0001)                 2.600103750884694E+05,      /* I = 57 */
(PID.TID 0000.0001)                 2.491464083009804E+05,      /* I = 58 */
(PID.TID 0000.0001)                 2.366191866372900E+05,      /* I = 59 */
(PID.TID 0000.0001)                 2.220840793516689E+05,      /* I = 60 */
(PID.TID 0000.0001)                 2.049540475644011E+05,      /* I = 61 */
(PID.TID 0000.0001)                 1.841567262292191E+05,      /* I = 62 */
(PID.TID 0000.0001)                 1.575313246967297E+05,      /* I = 63 */
(PID.TID 0000.0001)     2 @  1.208164497427513E+05,             /* I = 64: 65 */
(PID.TID 0000.0001)                 1.575313246967297E+05,      /* I = 66 */
(PID.TID 0000.0001)                 1.841567262292191E+05,      /* I = 67 */
(PID.TID 0000.0001)                 2.049540475644011E+05,      /* I = 68 */
(PID.TID 0000.0001)                 2.220840793516689E+05,      /* I = 69 */
(PID.TID 0000.0001)                 2.366191866372900E+05,      /* I = 70 */
(PID.TID 0000.0001)                 2.491464083009804E+05,      /* I = 71 */
(PID.TID 0000.0001)                 2.600103750884694E+05,      /* I = 72 */
(PID.TID 0000.0001)                 2.694220899589415E+05,      /* I = 73 */
(PID.TID 0000.0001)                 2.775134021642698E+05,      /* I = 74 */
(PID.TID 0000.0001)                 2.843669426491172E+05,      /* I = 75 */
(PID.TID 0000.0001)                 2.900338631125396E+05,      /* I = 76 */
(PID.TID 0000.0001)                 2.945449914488923E+05,      /* I = 77 */
(PID.TID 0000.0001)                 2.979181490241748E+05,      /* I = 78 */
(PID.TID 0000.0001)                 3.001630475443809E+05,      /* I = 79 */
(PID.TID 0000.0001)     2 @  3.012845239852109E+05,             /* I = 80: 81 */
(PID.TID 0000.0001)                 3.001630475443809E+05,      /* I = 82 */
(PID.TID 0000.0001)                 2.979181490241748E+05,      /* I = 83 */
(PID.TID 0000.0001)                 2.945449914488923E+05,      /* I = 84 */
(PID.TID 0000.0001)                 2.900338631125396E+05,      /* I = 85 */
(PID.TID 0000.0001)                 2.843669426491172E+05,      /* I = 86 */
(PID.TID 0000.0001)                 2.775134021642698E+05,      /* I = 87 */
(PID.TID 0000.0001)                 2.694220899589415E+05,      /* I = 88 */
(PID.TID 0000.0001)                 2.600103750884694E+05,      /* I = 89 */
(PID.TID 0000.0001)                 2.491464083009804E+05,      /* I = 90 */
(PID.TID 0000.0001)                 2.366191866372900E+05,      /* I = 91 */
(PID.TID 0000.0001)                 2.220840793516689E+05,      /* I = 92 */
(PID.TID 0000.0001)                 2.049540475644011E+05,      /* I = 93 */
(PID.TID 0000.0001)                 1.841567262292191E+05,      /* I = 94 */
(PID.TID 0000.0001)                 1.575313246967297E+05,      /* I = 95 */
(PID.TID 0000.0001)     2 @  1.208164497427513E+05,             /* I = 96: 97 */
(PID.TID 0000.0001)                 1.575313246967297E+05,      /* I = 98 */
(PID.TID 0000.0001)                 1.841567262292191E+05,      /* I = 99 */
(PID.TID 0000.0001)                 2.049540475644011E+05,      /* I =100 */
(PID.TID 0000.0001)                 2.220840793516689E+05,      /* I =101 */
(PID.TID 0000.0001)                 2.366191866372900E+05,      /* I =102 */
(PID.TID 0000.0001)                 2.491464083009804E+05,      /* I =103 */
(PID.TID 0000.0001)                 2.600103750884694E+05,      /* I =104 */
(PID.TID 0000.0001)                 2.694220899589415E+05,      /* I =105 */
(PID.TID 0000.0001)                 2.775134021642698E+05,      /* I =106 */
(PID.TID 0000.0001)                 2.843669426491172E+05,      /* I =107 */
(PID.TID 0000.0001)                 2.900338631125396E+05,      /* I =108 */
(PID.TID 0000.0001)                 2.945449914488923E+05,      /* I =109 */
(PID.TID 0000.0001)                 2.979181490241748E+05,      /* I =110 */
(PID.TID 0000.0001)                 3.001630475443809E+05,      /* I =111 */
(PID.TID 0000.0001)     2 @  3.012845239852109E+05,             /* I =112:113 */
(PID.TID 0000.0001)                 3.001630475443809E+05,      /* I =114 */
(PID.TID 0000.0001)                 2.979181490241748E+05,      /* I =115 */
(PID.TID 0000.0001)                 2.945449914488923E+05,      /* I =116 */
(PID.TID 0000.0001)                 2.900338631125396E+05,      /* I =117 */
(PID.TID 0000.0001)                 2.843669426491172E+05,      /* I =118 */
(PID.TID 0000.0001)                 2.775134021642698E+05,      /* I =119 */
(PID.TID 0000.0001)                 2.694220899589415E+05,      /* I =120 */
(PID.TID 0000.0001)                 2.600103750884694E+05,      /* I =121 */
(PID.TID 0000.0001)                 2.491464083009804E+05,      /* I =122 */
(PID.TID 0000.0001)                 2.366191866372900E+05,      /* I =123 */
(PID.TID 0000.0001)                 2.220840793516689E+05,      /* I =124 */
(PID.TID 0000.0001)                 2.049540475644011E+05,      /* I =125 */
(PID.TID 0000.0001)                 1.841567262292191E+05,      /* I =126 */
(PID.TID 0000.0001)                 1.575313246967297E+05,      /* I =127 */
(PID.TID 0000.0001)     2 @  1.208164497427513E+05,             /* I =128:129 */
(PID.TID 0000.0001)                 1.575313246967297E+05,      /* I =130 */
(PID.TID 0000.0001)                 1.841567262292191E+05,      /* I =131 */
(PID.TID 0000.0001)                 2.049540475644011E+05,      /* I =132 */
(PID.TID 0000.0001)                 2.220840793516689E+05,      /* I =133 */
(PID.TID 0000.0001)                 2.366191866372900E+05,      /* I =134 */
(PID.TID 0000.0001)                 2.491464083009804E+05,      /* I =135 */
(PID.TID 0000.0001)                 2.600103750884694E+05,      /* I =136 */
(PID.TID 0000.0001)                 2.694220899589415E+05,      /* I =137 */
(PID.TID 0000.0001)                 2.775134021642698E+05,      /* I =138 */
(PID.TID 0000.0001)                 2.843669426491172E+05,      /* I =139 */
(PID.TID 0000.0001)                 2.900338631125396E+05,      /* I =140 */
(PID.TID 0000.0001)                 2.945449914488923E+05,      /* I =141 */
(PID.TID 0000.0001)                 2.979181490241748E+05,      /* I =142 */
(PID.TID 0000.0001)                 3.001630475443809E+05,      /* I =143 */
(PID.TID 0000.0001)     2 @  3.012845239852109E+05,             /* I =144:145 */
(PID.TID 0000.0001)                 3.001630475443809E+05,      /* I =146 */
(PID.TID 0000.0001)                 2.979181490241748E+05,      /* I =147 */
(PID.TID 0000.0001)                 2.945449914488923E+05,      /* I =148 */
(PID.TID 0000.0001)                 2.900338631125396E+05,      /* I =149 */
(PID.TID 0000.0001)                 2.843669426491172E+05,      /* I =150 */
(PID.TID 0000.0001)                 2.775134021642698E+05,      /* I =151 */
(PID.TID 0000.0001)                 2.694220899589415E+05,      /* I =152 */
(PID.TID 0000.0001)                 2.600103750884694E+05,      /* I =153 */
(PID.TID 0000.0001)                 2.491464083009804E+05,      /* I =154 */
(PID.TID 0000.0001)                 2.366191866372900E+05,      /* I =155 */
(PID.TID 0000.0001)                 2.220840793516689E+05,      /* I =156 */
(PID.TID 0000.0001)                 2.049540475644011E+05,      /* I =157 */
(PID.TID 0000.0001)                 1.841567262292191E+05,      /* I =158 */
(PID.TID 0000.0001)                 1.575313246967297E+05,      /* I =159 */
(PID.TID 0000.0001)     2 @  1.208164497427513E+05,             /* I =160:161 */
(PID.TID 0000.0001)                 1.575313246967297E+05,      /* I =162 */
(PID.TID 0000.0001)                 1.841567262292191E+05,      /* I =163 */
(PID.TID 0000.0001)                 2.049540475644011E+05,      /* I =164 */
(PID.TID 0000.0001)                 2.220840793516689E+05,      /* I =165 */
(PID.TID 0000.0001)                 2.366191866372900E+05,      /* I =166 */
(PID.TID 0000.0001)                 2.491464083009804E+05,      /* I =167 */
(PID.TID 0000.0001)                 2.600103750884694E+05,      /* I =168 */
(PID.TID 0000.0001)                 2.694220899589415E+05,      /* I =169 */
(PID.TID 0000.0001)                 2.775134021642698E+05,      /* I =170 */
(PID.TID 0000.0001)                 2.843669426491172E+05,      /* I =171 */
(PID.TID 0000.0001)                 2.900338631125396E+05,      /* I =172 */
(PID.TID 0000.0001)                 2.945449914488923E+05,      /* I =173 */
(PID.TID 0000.0001)                 2.979181490241748E+05,      /* I =174 */
(PID.TID 0000.0001)                 3.001630475443809E+05,      /* I =175 */
(PID.TID 0000.0001)     2 @  3.012845239852109E+05,             /* I =176:177 */
(PID.TID 0000.0001)                 3.001630475443809E+05,      /* I =178 */
(PID.TID 0000.0001)                 2.979181490241748E+05,      /* I =179 */
(PID.TID 0000.0001)                 2.945449914488923E+05,      /* I =180 */
(PID.TID 0000.0001)                 2.900338631125396E+05,      /* I =181 */
(PID.TID 0000.0001)                 2.843669426491172E+05,      /* I =182 */
(PID.TID 0000.0001)                 2.775134021642698E+05,      /* I =183 */
(PID.TID 0000.0001)                 2.694220899589415E+05,      /* I =184 */
(PID.TID 0000.0001)                 2.600103750884694E+05,      /* I =185 */
(PID.TID 0000.0001)                 2.491464083009804E+05,      /* I =186 */
(PID.TID 0000.0001)                 2.366191866372900E+05,      /* I =187 */
(PID.TID 0000.0001)                 2.220840793516689E+05,      /* I =188 */
(PID.TID 0000.0001)                 2.049540475644011E+05,      /* I =189 */
(PID.TID 0000.0001)                 1.841567262292191E+05,      /* I =190 */
(PID.TID 0000.0001)                 1.575313246967297E+05,      /* I =191 */
(PID.TID 0000.0001)                 1.208164497427513E+05       /* I =192 */
(PID.TID 0000.0001)     ;
(PID.TID 0000.0001) dyF =  /* dyF(1,:,1,:) ( m - cartesian, degrees - spherical ) */
(PID.TID 0000.0001)                 1.208164497427513E+05,      /* J =  1 */
(PID.TID 0000.0001)                 1.563893108133410E+05,      /* J =  2 */
(PID.TID 0000.0001)                 1.835578660170750E+05,      /* J =  3 */
(PID.TID 0000.0001)                 2.045897643777963E+05,      /* J =  4 */
(PID.TID 0000.0001)                 2.218355892332067E+05,      /* J =  5 */
(PID.TID 0000.0001)                 2.364355578808568E+05,      /* J =  6 */
(PID.TID 0000.0001)                 2.490024063194764E+05,      /* J =  7 */
(PID.TID 0000.0001)                 2.598920493028891E+05,      /* J =  8 */
(PID.TID 0000.0001)                 2.693210711270105E+05,      /* J =  9 */
(PID.TID 0000.0001)                 2.774243477569765E+05,      /* J = 10 */
(PID.TID 0000.0001)                 2.842862732306662E+05,      /* J = 11 */
(PID.TID 0000.0001)                 2.899590841291803E+05,      /* J = 12 */
(PID.TID 0000.0001)                 2.944743020883619E+05,      /* J = 13 */
(PID.TID 0000.0001)                 2.978502004615897E+05,      /* J = 14 */
(PID.TID 0000.0001)                 3.000967821328745E+05,      /* J = 15 */
(PID.TID 0000.0001)     2 @  3.012191048042373E+05,             /* J = 16: 17 */
(PID.TID 0000.0001)                 3.000967821328745E+05,      /* J = 18 */
(PID.TID 0000.0001)                 2.978502004615897E+05,      /* J = 19 */
(PID.TID 0000.0001)                 2.944743020883619E+05,      /* J = 20 */
(PID.TID 0000.0001)                 2.899590841291803E+05,      /* J = 21 */
(PID.TID 0000.0001)                 2.842862732306662E+05,      /* J = 22 */
(PID.TID 0000.0001)                 2.774243477569765E+05,      /* J = 23 */
(PID.TID 0000.0001)                 2.693210711270105E+05,      /* J = 24 */
(PID.TID 0000.0001)                 2.598920493028891E+05,      /* J = 25 */
(PID.TID 0000.0001)                 2.490024063194764E+05,      /* J = 26 */
(PID.TID 0000.0001)                 2.364355578808568E+05,      /* J = 27 */
(PID.TID 0000.0001)                 2.218355892332067E+05,      /* J = 28 */
(PID.TID 0000.0001)                 2.045897643777963E+05,      /* J = 29 */
(PID.TID 0000.0001)                 1.835578660170750E+05,      /* J = 30 */
(PID.TID 0000.0001)                 1.563893108133410E+05,      /* J = 31 */
(PID.TID 0000.0001)                 1.208164497427513E+05       /* J = 32 */
(PID.TID 0000.0001)     ;
(PID.TID 0000.0001) dxG =  /* dxG(:,1,:,1) ( m - cartesian, degrees - spherical ) */
(PID.TID 0000.0001)                 1.009837800876375E+05,      /* I =  1 */
(PID.TID 0000.0001)                 1.534505834328235E+05,      /* I =  2 */
(PID.TID 0000.0001)                 1.823321598768767E+05,      /* I =  3 */
(PID.TID 0000.0001)                 2.038999045534966E+05,      /* I =  4 */
(PID.TID 0000.0001)                 2.213884732245322E+05,      /* I =  5 */
(PID.TID 0000.0001)                 2.361211699597717E+05,      /* I =  6 */
(PID.TID 0000.0001)                 2.487693460284765E+05,      /* I =  7 */
(PID.TID 0000.0001)                 2.597126963772656E+05,      /* I =  8 */
(PID.TID 0000.0001)                 2.691790288992463E+05,      /* I =  9 */
(PID.TID 0000.0001)                 2.773091043276745E+05,      /* I = 10 */
(PID.TID 0000.0001)                 2.841906470084194E+05,      /* I = 11 */
(PID.TID 0000.0001)                 2.898778860929699E+05,      /* I = 12 */
(PID.TID 0000.0001)                 2.944035815524881E+05,      /* I = 13 */
(PID.TID 0000.0001)                 2.977867909041198E+05,      /* I = 14 */
(PID.TID 0000.0001)                 3.000380090330449E+05,      /* I = 15 */
(PID.TID 0000.0001)     2 @  3.011625828701227E+05,             /* I = 16: 17 */
(PID.TID 0000.0001)                 3.000380090330449E+05,      /* I = 18 */
(PID.TID 0000.0001)                 2.977867909041198E+05,      /* I = 19 */
(PID.TID 0000.0001)                 2.944035815524881E+05,      /* I = 20 */
(PID.TID 0000.0001)                 2.898778860929699E+05,      /* I = 21 */
(PID.TID 0000.0001)                 2.841906470084194E+05,      /* I = 22 */
(PID.TID 0000.0001)                 2.773091043276745E+05,      /* I = 23 */
(PID.TID 0000.0001)                 2.691790288992463E+05,      /* I = 24 */
(PID.TID 0000.0001)                 2.597126963772656E+05,      /* I = 25 */
(PID.TID 0000.0001)                 2.487693460284765E+05,      /* I = 26 */
(PID.TID 0000.0001)                 2.361211699597717E+05,      /* I = 27 */
(PID.TID 0000.0001)                 2.213884732245322E+05,      /* I = 28 */
(PID.TID 0000.0001)                 2.038999045534966E+05,      /* I = 29 */
(PID.TID 0000.0001)                 1.823321598768767E+05,      /* I = 30 */
(PID.TID 0000.0001)                 1.534505834328235E+05,      /* I = 31 */
(PID.TID 0000.0001)     2 @  1.009837800876375E+05,             /* I = 32: 33 */
(PID.TID 0000.0001)                 1.534505834328235E+05,      /* I = 34 */
(PID.TID 0000.0001)                 1.823321598768767E+05,      /* I = 35 */
(PID.TID 0000.0001)                 2.038999045534966E+05,      /* I = 36 */
(PID.TID 0000.0001)                 2.213884732245322E+05,      /* I = 37 */
(PID.TID 0000.0001)                 2.361211699597717E+05,      /* I = 38 */
(PID.TID 0000.0001)                 2.487693460284765E+05,      /* I = 39 */
(PID.TID 0000.0001)                 2.597126963772656E+05,      /* I = 40 */
(PID.TID 0000.0001)                 2.691790288992463E+05,      /* I = 41 */
(PID.TID 0000.0001)                 2.773091043276745E+05,      /* I = 42 */
(PID.TID 0000.0001)                 2.841906470084194E+05,      /* I = 43 */
(PID.TID 0000.0001)                 2.898778860929699E+05,      /* I = 44 */
(PID.TID 0000.0001)                 2.944035815524881E+05,      /* I = 45 */
(PID.TID 0000.0001)                 2.977867909041198E+05,      /* I = 46 */
(PID.TID 0000.0001)                 3.000380090330449E+05,      /* I = 47 */
(PID.TID 0000.0001)     2 @  3.011625828701227E+05,             /* I = 48: 49 */
(PID.TID 0000.0001)                 3.000380090330449E+05,      /* I = 50 */
(PID.TID 0000.0001)                 2.977867909041198E+05,      /* I = 51 */
(PID.TID 0000.0001)                 2.944035815524881E+05,      /* I = 52 */
(PID.TID 0000.0001)                 2.898778860929699E+05,      /* I = 53 */
(PID.TID 0000.0001)                 2.841906470084194E+05,      /* I = 54 */
(PID.TID 0000.0001)                 2.773091043276745E+05,      /* I = 55 */
(PID.TID 0000.0001)                 2.691790288992463E+05,      /* I = 56 */
(PID.TID 0000.0001)                 2.597126963772656E+05,      /* I = 57 */
(PID.TID 0000.0001)                 2.487693460284765E+05,      /* I = 58 */
(PID.TID 0000.0001)                 2.361211699597717E+05,      /* I = 59 */
(PID.TID 0000.0001)                 2.213884732245322E+05,      /* I = 60 */
(PID.TID 0000.0001)                 2.038999045534966E+05,      /* I = 61 */
(PID.TID 0000.0001)                 1.823321598768767E+05,      /* I = 62 */
(PID.TID 0000.0001)                 1.534505834328235E+05,      /* I = 63 */
(PID.TID 0000.0001)     2 @  1.009837800876375E+05,             /* I = 64: 65 */
(PID.TID 0000.0001)                 1.534505834328235E+05,      /* I = 66 */
(PID.TID 0000.0001)                 1.823321598768767E+05,      /* I = 67 */
(PID.TID 0000.0001)                 2.038999045534966E+05,      /* I = 68 */
(PID.TID 0000.0001)                 2.213884732245322E+05,      /* I = 69 */
(PID.TID 0000.0001)                 2.361211699597717E+05,      /* I = 70 */
(PID.TID 0000.0001)                 2.487693460284765E+05,      /* I = 71 */
(PID.TID 0000.0001)                 2.597126963772656E+05,      /* I = 72 */
(PID.TID 0000.0001)                 2.691790288992463E+05,      /* I = 73 */
(PID.TID 0000.0001)                 2.773091043276745E+05,      /* I = 74 */
(PID.TID 0000.0001)                 2.841906470084194E+05,      /* I = 75 */
(PID.TID 0000.0001)                 2.898778860929699E+05,      /* I = 76 */
(PID.TID 0000.0001)                 2.944035815524881E+05,      /* I = 77 */
(PID.TID 0000.0001)                 2.977867909041198E+05,      /* I = 78 */
(PID.TID 0000.0001)                 3.000380090330449E+05,      /* I = 79 */
(PID.TID 0000.0001)     2 @  3.011625828701227E+05,             /* I = 80: 81 */
(PID.TID 0000.0001)                 3.000380090330449E+05,      /* I = 82 */
(PID.TID 0000.0001)                 2.977867909041198E+05,      /* I = 83 */
(PID.TID 0000.0001)                 2.944035815524881E+05,      /* I = 84 */
(PID.TID 0000.0001)                 2.898778860929699E+05,      /* I = 85 */
(PID.TID 0000.0001)                 2.841906470084194E+05,      /* I = 86 */
(PID.TID 0000.0001)                 2.773091043276745E+05,      /* I = 87 */
(PID.TID 0000.0001)                 2.691790288992463E+05,      /* I = 88 */
(PID.TID 0000.0001)                 2.597126963772656E+05,      /* I = 89 */
(PID.TID 0000.0001)                 2.487693460284765E+05,      /* I = 90 */
(PID.TID 0000.0001)                 2.361211699597717E+05,      /* I = 91 */
(PID.TID 0000.0001)                 2.213884732245322E+05,      /* I = 92 */
(PID.TID 0000.0001)                 2.038999045534966E+05,      /* I = 93 */
(PID.TID 0000.0001)                 1.823321598768767E+05,      /* I = 94 */
(PID.TID 0000.0001)                 1.534505834328235E+05,      /* I = 95 */
(PID.TID 0000.0001)     2 @  1.009837800876375E+05,             /* I = 96: 97 */
(PID.TID 0000.0001)                 1.534505834328235E+05,      /* I = 98 */
(PID.TID 0000.0001)                 1.823321598768767E+05,      /* I = 99 */
(PID.TID 0000.0001)                 2.038999045534966E+05,      /* I =100 */
(PID.TID 0000.0001)                 2.213884732245322E+05,      /* I =101 */
(PID.TID 0000.0001)                 2.361211699597717E+05,      /* I =102 */
(PID.TID 0000.0001)                 2.487693460284765E+05,      /* I =103 */
(PID.TID 0000.0001)                 2.597126963772656E+05,      /* I =104 */
(PID.TID 0000.0001)                 2.691790288992463E+05,      /* I =105 */
(PID.TID 0000.0001)                 2.773091043276745E+05,      /* I =106 */
(PID.TID 0000.0001)                 2.841906470084194E+05,      /* I =107 */
(PID.TID 0000.0001)                 2.898778860929699E+05,      /* I =108 */
(PID.TID 0000.0001)                 2.944035815524881E+05,      /* I =109 */
(PID.TID 0000.0001)                 2.977867909041198E+05,      /* I =110 */
(PID.TID 0000.0001)                 3.000380090330449E+05,      /* I =111 */
(PID.TID 0000.0001)     2 @  3.011625828701227E+05,             /* I =112:113 */
(PID.TID 0000.0001)                 3.000380090330449E+05,      /* I =114 */
(PID.TID 0000.0001)                 2.977867909041198E+05,      /* I =115 */
(PID.TID 0000.0001)                 2.944035815524881E+05,      /* I =116 */
(PID.TID 0000.0001)                 2.898778860929699E+05,      /* I =117 */
(PID.TID 0000.0001)                 2.841906470084194E+05,      /* I =118 */
(PID.TID 0000.0001)                 2.773091043276745E+05,      /* I =119 */
(PID.TID 0000.0001)                 2.691790288992463E+05,      /* I =120 */
(PID.TID 0000.0001)                 2.597126963772656E+05,      /* I =121 */
(PID.TID 0000.0001)                 2.487693460284765E+05,      /* I =122 */
(PID.TID 0000.0001)                 2.361211699597717E+05,      /* I =123 */
(PID.TID 0000.0001)                 2.213884732245322E+05,      /* I =124 */
(PID.TID 0000.0001)                 2.038999045534966E+05,      /* I =125 */
(PID.TID 0000.0001)                 1.823321598768767E+05,      /* I =126 */
(PID.TID 0000.0001)                 1.534505834328235E+05,      /* I =127 */
(PID.TID 0000.0001)     2 @  1.009837800876375E+05,             /* I =128:129 */
(PID.TID 0000.0001)                 1.534505834328235E+05,      /* I =130 */
(PID.TID 0000.0001)                 1.823321598768767E+05,      /* I =131 */
(PID.TID 0000.0001)                 2.038999045534966E+05,      /* I =132 */
(PID.TID 0000.0001)                 2.213884732245322E+05,      /* I =133 */
(PID.TID 0000.0001)                 2.361211699597717E+05,      /* I =134 */
(PID.TID 0000.0001)                 2.487693460284765E+05,      /* I =135 */
(PID.TID 0000.0001)                 2.597126963772656E+05,      /* I =136 */
(PID.TID 0000.0001)                 2.691790288992463E+05,      /* I =137 */
(PID.TID 0000.0001)                 2.773091043276745E+05,      /* I =138 */
(PID.TID 0000.0001)                 2.841906470084194E+05,      /* I =139 */
(PID.TID 0000.0001)                 2.898778860929699E+05,      /* I =140 */
(PID.TID 0000.0001)                 2.944035815524881E+05,      /* I =141 */
(PID.TID 0000.0001)                 2.977867909041198E+05,      /* I =142 */
(PID.TID 0000.0001)                 3.000380090330449E+05,      /* I =143 */
(PID.TID 0000.0001)     2 @  3.011625828701227E+05,             /* I =144:145 */
(PID.TID 0000.0001)                 3.000380090330449E+05,      /* I =146 */
(PID.TID 0000.0001)                 2.977867909041198E+05,      /* I =147 */
(PID.TID 0000.0001)                 2.944035815524881E+05,      /* I =148 */
(PID.TID 0000.0001)                 2.898778860929699E+05,      /* I =149 */
(PID.TID 0000.0001)                 2.841906470084194E+05,      /* I =150 */
(PID.TID 0000.0001)                 2.773091043276745E+05,      /* I =151 */
(PID.TID 0000.0001)                 2.691790288992463E+05,      /* I =152 */
(PID.TID 0000.0001)                 2.597126963772656E+05,      /* I =153 */
(PID.TID 0000.0001)                 2.487693460284765E+05,      /* I =154 */
(PID.TID 0000.0001)                 2.361211699597717E+05,      /* I =155 */
(PID.TID 0000.0001)                 2.213884732245322E+05,      /* I =156 */
(PID.TID 0000.0001)                 2.038999045534966E+05,      /* I =157 */
(PID.TID 0000.0001)                 1.823321598768767E+05,      /* I =158 */
(PID.TID 0000.0001)                 1.534505834328235E+05,      /* I =159 */
(PID.TID 0000.0001)     2 @  1.009837800876375E+05,             /* I =160:161 */
(PID.TID 0000.0001)                 1.534505834328235E+05,      /* I =162 */
(PID.TID 0000.0001)                 1.823321598768767E+05,      /* I =163 */
(PID.TID 0000.0001)                 2.038999045534966E+05,      /* I =164 */
(PID.TID 0000.0001)                 2.213884732245322E+05,      /* I =165 */
(PID.TID 0000.0001)                 2.361211699597717E+05,      /* I =166 */
(PID.TID 0000.0001)                 2.487693460284765E+05,      /* I =167 */
(PID.TID 0000.0001)                 2.597126963772656E+05,      /* I =168 */
(PID.TID 0000.0001)                 2.691790288992463E+05,      /* I =169 */
(PID.TID 0000.0001)                 2.773091043276745E+05,      /* I =170 */
(PID.TID 0000.0001)                 2.841906470084194E+05,      /* I =171 */
(PID.TID 0000.0001)                 2.898778860929699E+05,      /* I =172 */
(PID.TID 0000.0001)                 2.944035815524881E+05,      /* I =173 */
(PID.TID 0000.0001)                 2.977867909041198E+05,      /* I =174 */
(PID.TID 0000.0001)                 3.000380090330449E+05,      /* I =175 */
(PID.TID 0000.0001)     2 @  3.011625828701227E+05,             /* I =176:177 */
(PID.TID 0000.0001)                 3.000380090330449E+05,      /* I =178 */
(PID.TID 0000.0001)                 2.977867909041198E+05,      /* I =179 */
(PID.TID 0000.0001)                 2.944035815524881E+05,      /* I =180 */
(PID.TID 0000.0001)                 2.898778860929699E+05,      /* I =181 */
(PID.TID 0000.0001)                 2.841906470084194E+05,      /* I =182 */
(PID.TID 0000.0001)                 2.773091043276745E+05,      /* I =183 */
(PID.TID 0000.0001)                 2.691790288992463E+05,      /* I =184 */
(PID.TID 0000.0001)                 2.597126963772656E+05,      /* I =185 */
(PID.TID 0000.0001)                 2.487693460284765E+05,      /* I =186 */
(PID.TID 0000.0001)                 2.361211699597717E+05,      /* I =187 */
(PID.TID 0000.0001)                 2.213884732245322E+05,      /* I =188 */
(PID.TID 0000.0001)                 2.038999045534966E+05,      /* I =189 */
(PID.TID 0000.0001)                 1.823321598768767E+05,      /* I =190 */
(PID.TID 0000.0001)                 1.534505834328235E+05,      /* I =191 */
(PID.TID 0000.0001)                 1.009837800876375E+05       /* I =192 */
(PID.TID 0000.0001)     ;
(PID.TID 0000.0001) dxG =  /* dxG(1,:,1,:) ( m - cartesian, degrees - spherical ) */
(PID.TID 0000.0001)                 1.009837800876375E+05,      /* J =  1 */
(PID.TID 0000.0001)                 1.407552890250882E+05,      /* J =  2 */
(PID.TID 0000.0001)                 1.717812465326903E+05,      /* J =  3 */
(PID.TID 0000.0001)                 1.951119926638228E+05,      /* J =  4 */
(PID.TID 0000.0001)                 2.138946594980153E+05,      /* J =  5 */
(PID.TID 0000.0001)                 2.296317501049707E+05,      /* J =  6 */
(PID.TID 0000.0001)                 2.431082149525878E+05,      /* J =  7 */
(PID.TID 0000.0001)                 2.547707820809733E+05,      /* J =  8 */
(PID.TID 0000.0001)                 2.648880983885786E+05,      /* J =  9 */
(PID.TID 0000.0001)                 2.736267278452390E+05,      /* J = 10 */
(PID.TID 0000.0001)                 2.810911133312079E+05,      /* J = 11 */
(PID.TID 0000.0001)                 2.873464273902283E+05,      /* J = 12 */
(PID.TID 0000.0001)                 2.924325494873893E+05,      /* J = 13 */
(PID.TID 0000.0001)                 2.963730642862590E+05,      /* J = 14 */
(PID.TID 0000.0001)                 2.991812427774029E+05,      /* J = 15 */
(PID.TID 0000.0001)                 3.008640399781737E+05,      /* J = 16 */
(PID.TID 0000.0001)                 3.014246674483120E+05,      /* J = 17 */
(PID.TID 0000.0001)                 3.008640399781737E+05,      /* J = 18 */
(PID.TID 0000.0001)                 2.991812427774029E+05,      /* J = 19 */
(PID.TID 0000.0001)                 2.963730642862590E+05,      /* J = 20 */
(PID.TID 0000.0001)                 2.924325494873893E+05,      /* J = 21 */
(PID.TID 0000.0001)                 2.873464273902283E+05,      /* J = 22 */
(PID.TID 0000.0001)                 2.810911133312079E+05,      /* J = 23 */
(PID.TID 0000.0001)                 2.736267278452390E+05,      /* J = 24 */
(PID.TID 0000.0001)                 2.648880983885786E+05,      /* J = 25 */
(PID.TID 0000.0001)                 2.547707820809733E+05,      /* J = 26 */
(PID.TID 0000.0001)                 2.431082149525878E+05,      /* J = 27 */
(PID.TID 0000.0001)                 2.296317501049707E+05,      /* J = 28 */
(PID.TID 0000.0001)                 2.138946594980153E+05,      /* J = 29 */
(PID.TID 0000.0001)                 1.951119926638228E+05,      /* J = 30 */
(PID.TID 0000.0001)                 1.717812465326903E+05,      /* J = 31 */
(PID.TID 0000.0001)                 1.407552890250882E+05       /* J = 32 */
(PID.TID 0000.0001)     ;
(PID.TID 0000.0001) dyG =  /* dyG(:,1,:,1) ( m - cartesian, degrees - spherical ) */
(PID.TID 0000.0001)                 1.009837800876375E+05,      /* I =  1 */
(PID.TID 0000.0001)                 1.407552890250882E+05,      /* I =  2 */
(PID.TID 0000.0001)                 1.717812465326903E+05,      /* I =  3 */
(PID.TID 0000.0001)                 1.951119926638228E+05,      /* I =  4 */
(PID.TID 0000.0001)                 2.138946594980153E+05,      /* I =  5 */
(PID.TID 0000.0001)                 2.296317501049707E+05,      /* I =  6 */
(PID.TID 0000.0001)                 2.431082149525878E+05,      /* I =  7 */
(PID.TID 0000.0001)                 2.547707820809733E+05,      /* I =  8 */
(PID.TID 0000.0001)                 2.648880983885786E+05,      /* I =  9 */
(PID.TID 0000.0001)                 2.736267278452390E+05,      /* I = 10 */
(PID.TID 0000.0001)                 2.810911133312079E+05,      /* I = 11 */
(PID.TID 0000.0001)                 2.873464273902283E+05,      /* I = 12 */
(PID.TID 0000.0001)                 2.924325494873893E+05,      /* I = 13 */
(PID.TID 0000.0001)                 2.963730642862590E+05,      /* I = 14 */
(PID.TID 0000.0001)                 2.991812427774029E+05,      /* I = 15 */
(PID.TID 0000.0001)                 3.008640399781737E+05,      /* I = 16 */
(PID.TID 0000.0001)                 3.014246674483120E+05,      /* I = 17 */
(PID.TID 0000.0001)                 3.008640399781737E+05,      /* I = 18 */
(PID.TID 0000.0001)                 2.991812427774029E+05,      /* I = 19 */
(PID.TID 0000.0001)                 2.963730642862590E+05,      /* I = 20 */
(PID.TID 0000.0001)                 2.924325494873893E+05,      /* I = 21 */
(PID.TID 0000.0001)                 2.873464273902283E+05,      /* I = 22 */
(PID.TID 0000.0001)                 2.810911133312079E+05,      /* I = 23 */
(PID.TID 0000.0001)                 2.736267278452390E+05,      /* I = 24 */
(PID.TID 0000.0001)                 2.648880983885786E+05,      /* I = 25 */
(PID.TID 0000.0001)                 2.547707820809733E+05,      /* I = 26 */
(PID.TID 0000.0001)                 2.431082149525878E+05,      /* I = 27 */
(PID.TID 0000.0001)                 2.296317501049707E+05,      /* I = 28 */
(PID.TID 0000.0001)                 2.138946594980153E+05,      /* I = 29 */
(PID.TID 0000.0001)                 1.951119926638228E+05,      /* I = 30 */
(PID.TID 0000.0001)                 1.717812465326903E+05,      /* I = 31 */
(PID.TID 0000.0001)                 1.407552890250882E+05,      /* I = 32 */
(PID.TID 0000.0001)                 1.009837800876375E+05,      /* I = 33 */
(PID.TID 0000.0001)                 1.407552890250882E+05,      /* I = 34 */
(PID.TID 0000.0001)                 1.717812465326903E+05,      /* I = 35 */
(PID.TID 0000.0001)                 1.951119926638228E+05,      /* I = 36 */
(PID.TID 0000.0001)                 2.138946594980153E+05,      /* I = 37 */
(PID.TID 0000.0001)                 2.296317501049707E+05,      /* I = 38 */
(PID.TID 0000.0001)                 2.431082149525878E+05,      /* I = 39 */
(PID.TID 0000.0001)                 2.547707820809733E+05,      /* I = 40 */
(PID.TID 0000.0001)                 2.648880983885786E+05,      /* I = 41 */
(PID.TID 0000.0001)                 2.736267278452390E+05,      /* I = 42 */
(PID.TID 0000.0001)                 2.810911133312079E+05,      /* I = 43 */
(PID.TID 0000.0001)                 2.873464273902283E+05,      /* I = 44 */
(PID.TID 0000.0001)                 2.924325494873893E+05,      /* I = 45 */
(PID.TID 0000.0001)                 2.963730642862590E+05,      /* I = 46 */
(PID.TID 0000.0001)                 2.991812427774029E+05,      /* I = 47 */
(PID.TID 0000.0001)                 3.008640399781737E+05,      /* I = 48 */
(PID.TID 0000.0001)                 3.014246674483120E+05,      /* I = 49 */
(PID.TID 0000.0001)                 3.008640399781737E+05,      /* I = 50 */
(PID.TID 0000.0001)                 2.991812427774029E+05,      /* I = 51 */
(PID.TID 0000.0001)                 2.963730642862590E+05,      /* I = 52 */
(PID.TID 0000.0001)                 2.924325494873893E+05,      /* I = 53 */
(PID.TID 0000.0001)                 2.873464273902283E+05,      /* I = 54 */
(PID.TID 0000.0001)                 2.810911133312079E+05,      /* I = 55 */
(PID.TID 0000.0001)                 2.736267278452390E+05,      /* I = 56 */
(PID.TID 0000.0001)                 2.648880983885786E+05,      /* I = 57 */
(PID.TID 0000.0001)                 2.547707820809733E+05,      /* I = 58 */
(PID.TID 0000.0001)                 2.431082149525878E+05,      /* I = 59 */
(PID.TID 0000.0001)                 2.296317501049707E+05,      /* I = 60 */
(PID.TID 0000.0001)                 2.138946594980153E+05,      /* I = 61 */
(PID.TID 0000.0001)                 1.951119926638228E+05,      /* I = 62 */
(PID.TID 0000.0001)                 1.717812465326903E+05,      /* I = 63 */
(PID.TID 0000.0001)                 1.407552890250882E+05,      /* I = 64 */
(PID.TID 0000.0001)                 1.009837800876375E+05,      /* I = 65 */
(PID.TID 0000.0001)                 1.407552890250882E+05,      /* I = 66 */
(PID.TID 0000.0001)                 1.717812465326903E+05,      /* I = 67 */
(PID.TID 0000.0001)                 1.951119926638228E+05,      /* I = 68 */
(PID.TID 0000.0001)                 2.138946594980153E+05,      /* I = 69 */
(PID.TID 0000.0001)                 2.296317501049707E+05,      /* I = 70 */
(PID.TID 0000.0001)                 2.431082149525878E+05,      /* I = 71 */
(PID.TID 0000.0001)                 2.547707820809733E+05,      /* I = 72 */
(PID.TID 0000.0001)                 2.648880983885786E+05,      /* I = 73 */
(PID.TID 0000.0001)                 2.736267278452390E+05,      /* I = 74 */
(PID.TID 0000.0001)                 2.810911133312079E+05,      /* I = 75 */
(PID.TID 0000.0001)                 2.873464273902283E+05,      /* I = 76 */
(PID.TID 0000.0001)                 2.924325494873893E+05,      /* I = 77 */
(PID.TID 0000.0001)                 2.963730642862590E+05,      /* I = 78 */
(PID.TID 0000.0001)                 2.991812427774029E+05,      /* I = 79 */
(PID.TID 0000.0001)                 3.008640399781737E+05,      /* I = 80 */
(PID.TID 0000.0001)                 3.014246674483120E+05,      /* I = 81 */
(PID.TID 0000.0001)                 3.008640399781737E+05,      /* I = 82 */
(PID.TID 0000.0001)                 2.991812427774029E+05,      /* I = 83 */
(PID.TID 0000.0001)                 2.963730642862590E+05,      /* I = 84 */
(PID.TID 0000.0001)                 2.924325494873893E+05,      /* I = 85 */
(PID.TID 0000.0001)                 2.873464273902283E+05,      /* I = 86 */
(PID.TID 0000.0001)                 2.810911133312079E+05,      /* I = 87 */
(PID.TID 0000.0001)                 2.736267278452390E+05,      /* I = 88 */
(PID.TID 0000.0001)                 2.648880983885786E+05,      /* I = 89 */
(PID.TID 0000.0001)                 2.547707820809733E+05,      /* I = 90 */
(PID.TID 0000.0001)                 2.431082149525878E+05,      /* I = 91 */
(PID.TID 0000.0001)                 2.296317501049707E+05,      /* I = 92 */
(PID.TID 0000.0001)                 2.138946594980153E+05,      /* I = 93 */
(PID.TID 0000.0001)                 1.951119926638228E+05,      /* I = 94 */
(PID.TID 0000.0001)                 1.717812465326903E+05,      /* I = 95 */
(PID.TID 0000.0001)                 1.407552890250882E+05,      /* I = 96 */
(PID.TID 0000.0001)                 1.009837800876375E+05,      /* I = 97 */
(PID.TID 0000.0001)                 1.407552890250882E+05,      /* I = 98 */
(PID.TID 0000.0001)                 1.717812465326903E+05,      /* I = 99 */
(PID.TID 0000.0001)                 1.951119926638228E+05,      /* I =100 */
(PID.TID 0000.0001)                 2.138946594980153E+05,      /* I =101 */
(PID.TID 0000.0001)                 2.296317501049707E+05,      /* I =102 */
(PID.TID 0000.0001)                 2.431082149525878E+05,      /* I =103 */
(PID.TID 0000.0001)                 2.547707820809733E+05,      /* I =104 */
(PID.TID 0000.0001)                 2.648880983885786E+05,      /* I =105 */
(PID.TID 0000.0001)                 2.736267278452390E+05,      /* I =106 */
(PID.TID 0000.0001)                 2.810911133312079E+05,      /* I =107 */
(PID.TID 0000.0001)                 2.873464273902283E+05,      /* I =108 */
(PID.TID 0000.0001)                 2.924325494873893E+05,      /* I =109 */
(PID.TID 0000.0001)                 2.963730642862590E+05,      /* I =110 */
(PID.TID 0000.0001)                 2.991812427774029E+05,      /* I =111 */
(PID.TID 0000.0001)                 3.008640399781737E+05,      /* I =112 */
(PID.TID 0000.0001)                 3.014246674483120E+05,      /* I =113 */
(PID.TID 0000.0001)                 3.008640399781737E+05,      /* I =114 */
(PID.TID 0000.0001)                 2.991812427774029E+05,      /* I =115 */
(PID.TID 0000.0001)                 2.963730642862590E+05,      /* I =116 */
(PID.TID 0000.0001)                 2.924325494873893E+05,      /* I =117 */
(PID.TID 0000.0001)                 2.873464273902283E+05,      /* I =118 */
(PID.TID 0000.0001)                 2.810911133312079E+05,      /* I =119 */
(PID.TID 0000.0001)                 2.736267278452390E+05,      /* I =120 */
(PID.TID 0000.0001)                 2.648880983885786E+05,      /* I =121 */
(PID.TID 0000.0001)                 2.547707820809733E+05,      /* I =122 */
(PID.TID 0000.0001)                 2.431082149525878E+05,      /* I =123 */
(PID.TID 0000.0001)                 2.296317501049707E+05,      /* I =124 */
(PID.TID 0000.0001)                 2.138946594980153E+05,      /* I =125 */
(PID.TID 0000.0001)                 1.951119926638228E+05,      /* I =126 */
(PID.TID 0000.0001)                 1.717812465326903E+05,      /* I =127 */
(PID.TID 0000.0001)                 1.407552890250882E+05,      /* I =128 */
(PID.TID 0000.0001)                 1.009837800876375E+05,      /* I =129 */
(PID.TID 0000.0001)                 1.407552890250882E+05,      /* I =130 */
(PID.TID 0000.0001)                 1.717812465326903E+05,      /* I =131 */
(PID.TID 0000.0001)                 1.951119926638228E+05,      /* I =132 */
(PID.TID 0000.0001)                 2.138946594980153E+05,      /* I =133 */
(PID.TID 0000.0001)                 2.296317501049707E+05,      /* I =134 */
(PID.TID 0000.0001)                 2.431082149525878E+05,      /* I =135 */
(PID.TID 0000.0001)                 2.547707820809733E+05,      /* I =136 */
(PID.TID 0000.0001)                 2.648880983885786E+05,      /* I =137 */
(PID.TID 0000.0001)                 2.736267278452390E+05,      /* I =138 */
(PID.TID 0000.0001)                 2.810911133312079E+05,      /* I =139 */
(PID.TID 0000.0001)                 2.873464273902283E+05,      /* I =140 */
(PID.TID 0000.0001)                 2.924325494873893E+05,      /* I =141 */
(PID.TID 0000.0001)                 2.963730642862590E+05,      /* I =142 */
(PID.TID 0000.0001)                 2.991812427774029E+05,      /* I =143 */
(PID.TID 0000.0001)                 3.008640399781737E+05,      /* I =144 */
(PID.TID 0000.0001)                 3.014246674483120E+05,      /* I =145 */
(PID.TID 0000.0001)                 3.008640399781737E+05,      /* I =146 */
(PID.TID 0000.0001)                 2.991812427774029E+05,      /* I =147 */
(PID.TID 0000.0001)                 2.963730642862590E+05,      /* I =148 */
(PID.TID 0000.0001)                 2.924325494873893E+05,      /* I =149 */
(PID.TID 0000.0001)                 2.873464273902283E+05,      /* I =150 */
(PID.TID 0000.0001)                 2.810911133312079E+05,      /* I =151 */
(PID.TID 0000.0001)                 2.736267278452390E+05,      /* I =152 */
(PID.TID 0000.0001)                 2.648880983885786E+05,      /* I =153 */
(PID.TID 0000.0001)                 2.547707820809733E+05,      /* I =154 */
(PID.TID 0000.0001)                 2.431082149525878E+05,      /* I =155 */
(PID.TID 0000.0001)                 2.296317501049707E+05,      /* I =156 */
(PID.TID 0000.0001)                 2.138946594980153E+05,      /* I =157 */
(PID.TID 0000.0001)                 1.951119926638228E+05,      /* I =158 */
(PID.TID 0000.0001)                 1.717812465326903E+05,      /* I =159 */
(PID.TID 0000.0001)                 1.407552890250882E+05,      /* I =160 */
(PID.TID 0000.0001)                 1.009837800876375E+05,      /* I =161 */
(PID.TID 0000.0001)                 1.407552890250882E+05,      /* I =162 */
(PID.TID 0000.0001)                 1.717812465326903E+05,      /* I =163 */
(PID.TID 0000.0001)                 1.951119926638228E+05,      /* I =164 */
(PID.TID 0000.0001)                 2.138946594980153E+05,      /* I =165 */
(PID.TID 0000.0001)                 2.296317501049707E+05,      /* I =166 */
(PID.TID 0000.0001)                 2.431082149525878E+05,      /* I =167 */
(PID.TID 0000.0001)                 2.547707820809733E+05,      /* I =168 */
(PID.TID 0000.0001)                 2.648880983885786E+05,      /* I =169 */
(PID.TID 0000.0001)                 2.736267278452390E+05,      /* I =170 */
(PID.TID 0000.0001)                 2.810911133312079E+05,      /* I =171 */
(PID.TID 0000.0001)                 2.873464273902283E+05,      /* I =172 */
(PID.TID 0000.0001)                 2.924325494873893E+05,      /* I =173 */
(PID.TID 0000.0001)                 2.963730642862590E+05,      /* I =174 */
(PID.TID 0000.0001)                 2.991812427774029E+05,      /* I =175 */
(PID.TID 0000.0001)                 3.008640399781737E+05,      /* I =176 */
(PID.TID 0000.0001)                 3.014246674483120E+05,      /* I =177 */
(PID.TID 0000.0001)                 3.008640399781737E+05,      /* I =178 */
(PID.TID 0000.0001)                 2.991812427774029E+05,      /* I =179 */
(PID.TID 0000.0001)                 2.963730642862590E+05,      /* I =180 */
(PID.TID 0000.0001)                 2.924325494873893E+05,      /* I =181 */
(PID.TID 0000.0001)                 2.873464273902283E+05,      /* I =182 */
(PID.TID 0000.0001)                 2.810911133312079E+05,      /* I =183 */
(PID.TID 0000.0001)                 2.736267278452390E+05,      /* I =184 */
(PID.TID 0000.0001)                 2.648880983885786E+05,      /* I =185 */
(PID.TID 0000.0001)                 2.547707820809733E+05,      /* I =186 */
(PID.TID 0000.0001)                 2.431082149525878E+05,      /* I =187 */
(PID.TID 0000.0001)                 2.296317501049707E+05,      /* I =188 */
(PID.TID 0000.0001)                 2.138946594980153E+05,      /* I =189 */
(PID.TID 0000.0001)                 1.951119926638228E+05,      /* I =190 */
(PID.TID 0000.0001)                 1.717812465326903E+05,      /* I =191 */
(PID.TID 0000.0001)                 1.407552890250882E+05       /* I =192 */
(PID.TID 0000.0001)     ;
(PID.TID 0000.0001) dyG =  /* dyG(1,:,1,:) ( m - cartesian, degrees - spherical ) */
(PID.TID 0000.0001)                 1.009837800876375E+05,      /* J =  1 */
(PID.TID 0000.0001)                 1.534505834328235E+05,      /* J =  2 */
(PID.TID 0000.0001)                 1.823321598768767E+05,      /* J =  3 */
(PID.TID 0000.0001)                 2.038999045534966E+05,      /* J =  4 */
(PID.TID 0000.0001)                 2.213884732245322E+05,      /* J =  5 */
(PID.TID 0000.0001)                 2.361211699597717E+05,      /* J =  6 */
(PID.TID 0000.0001)                 2.487693460284765E+05,      /* J =  7 */
(PID.TID 0000.0001)                 2.597126963772656E+05,      /* J =  8 */
(PID.TID 0000.0001)                 2.691790288992463E+05,      /* J =  9 */
(PID.TID 0000.0001)                 2.773091043276745E+05,      /* J = 10 */
(PID.TID 0000.0001)                 2.841906470084194E+05,      /* J = 11 */
(PID.TID 0000.0001)                 2.898778860929699E+05,      /* J = 12 */
(PID.TID 0000.0001)                 2.944035815524881E+05,      /* J = 13 */
(PID.TID 0000.0001)                 2.977867909041198E+05,      /* J = 14 */
(PID.TID 0000.0001)                 3.000380090330449E+05,      /* J = 15 */
(PID.TID 0000.0001)     2 @  3.011625828701227E+05,             /* J = 16: 17 */
(PID.TID 0000.0001)                 3.000380090330449E+05,      /* J = 18 */
(PID.TID 0000.0001)                 2.977867909041198E+05,      /* J = 19 */
(PID.TID 0000.0001)                 2.944035815524881E+05,      /* J = 20 */
(PID.TID 0000.0001)                 2.898778860929699E+05,      /* J = 21 */
(PID.TID 0000.0001)                 2.841906470084194E+05,      /* J = 22 */
(PID.TID 0000.0001)                 2.773091043276745E+05,      /* J = 23 */
(PID.TID 0000.0001)                 2.691790288992463E+05,      /* J = 24 */
(PID.TID 0000.0001)                 2.597126963772656E+05,      /* J = 25 */
(PID.TID 0000.0001)                 2.487693460284765E+05,      /* J = 26 */
(PID.TID 0000.0001)                 2.361211699597717E+05,      /* J = 27 */
(PID.TID 0000.0001)                 2.213884732245322E+05,      /* J = 28 */
(PID.TID 0000.0001)                 2.038999045534966E+05,      /* J = 29 */
(PID.TID 0000.0001)                 1.823321598768767E+05,      /* J = 30 */
(PID.TID 0000.0001)                 1.534505834328235E+05,      /* J = 31 */
(PID.TID 0000.0001)                 1.009837800876375E+05       /* J = 32 */
(PID.TID 0000.0001)     ;
(PID.TID 0000.0001) dxC =  /* dxC(:,1,:,1) ( m - cartesian, degrees - spherical ) */
(PID.TID 0000.0001)                 1.116647132697896E+05,      /* I =  1 */
(PID.TID 0000.0001)                 1.392485553682456E+05,      /* I =  2 */
(PID.TID 0000.0001)                 1.709683577475546E+05,      /* I =  3 */
(PID.TID 0000.0001)                 1.946528689404396E+05,      /* I =  4 */
(PID.TID 0000.0001)                 2.135973104330621E+05,      /* I =  5 */
(PID.TID 0000.0001)                 2.294199397881751E+05,      /* I =  6 */
(PID.TID 0000.0001)                 2.429466556954395E+05,      /* I =  7 */
(PID.TID 0000.0001)                 2.546409301203426E+05,      /* I =  8 */
(PID.TID 0000.0001)                 2.647792433358776E+05,      /* I =  9 */
(PID.TID 0000.0001)                 2.735322281461693E+05,      /* I = 10 */
(PID.TID 0000.0001)                 2.810066194331567E+05,      /* I = 11 */
(PID.TID 0000.0001)                 2.872689646798818E+05,      /* I = 12 */
(PID.TID 0000.0001)                 2.923600076816042E+05,      /* I = 13 */
(PID.TID 0000.0001)                 2.963038926108328E+05,      /* I = 14 */
(PID.TID 0000.0001)                 2.991142546940614E+05,      /* I = 15 */
(PID.TID 0000.0001)                 3.007982779774737E+05,      /* I = 16 */
(PID.TID 0000.0001)                 3.013593922621556E+05,      /* I = 17 */
(PID.TID 0000.0001)                 3.007982779774737E+05,      /* I = 18 */
(PID.TID 0000.0001)                 2.991142546940614E+05,      /* I = 19 */
(PID.TID 0000.0001)                 2.963038926108328E+05,      /* I = 20 */
(PID.TID 0000.0001)                 2.923600076816042E+05,      /* I = 21 */
(PID.TID 0000.0001)                 2.872689646798818E+05,      /* I = 22 */
(PID.TID 0000.0001)                 2.810066194331567E+05,      /* I = 23 */
(PID.TID 0000.0001)                 2.735322281461693E+05,      /* I = 24 */
(PID.TID 0000.0001)                 2.647792433358776E+05,      /* I = 25 */
(PID.TID 0000.0001)                 2.546409301203426E+05,      /* I = 26 */
(PID.TID 0000.0001)                 2.429466556954395E+05,      /* I = 27 */
(PID.TID 0000.0001)                 2.294199397881751E+05,      /* I = 28 */
(PID.TID 0000.0001)                 2.135973104330621E+05,      /* I = 29 */
(PID.TID 0000.0001)                 1.946528689404396E+05,      /* I = 30 */
(PID.TID 0000.0001)                 1.709683577475546E+05,      /* I = 31 */
(PID.TID 0000.0001)                 1.392485553682456E+05,      /* I = 32 */
(PID.TID 0000.0001)                 1.116647132697896E+05,      /* I = 33 */
(PID.TID 0000.0001)                 1.392485553682456E+05,      /* I = 34 */
(PID.TID 0000.0001)                 1.709683577475546E+05,      /* I = 35 */
(PID.TID 0000.0001)                 1.946528689404396E+05,      /* I = 36 */
(PID.TID 0000.0001)                 2.135973104330621E+05,      /* I = 37 */
(PID.TID 0000.0001)                 2.294199397881751E+05,      /* I = 38 */
(PID.TID 0000.0001)                 2.429466556954395E+05,      /* I = 39 */
(PID.TID 0000.0001)                 2.546409301203426E+05,      /* I = 40 */
(PID.TID 0000.0001)                 2.647792433358776E+05,      /* I = 41 */
(PID.TID 0000.0001)                 2.735322281461693E+05,      /* I = 42 */
(PID.TID 0000.0001)                 2.810066194331567E+05,      /* I = 43 */
(PID.TID 0000.0001)                 2.872689646798818E+05,      /* I = 44 */
(PID.TID 0000.0001)                 2.923600076816042E+05,      /* I = 45 */
(PID.TID 0000.0001)                 2.963038926108328E+05,      /* I = 46 */
(PID.TID 0000.0001)                 2.991142546940614E+05,      /* I = 47 */
(PID.TID 0000.0001)                 3.007982779774737E+05,      /* I = 48 */
(PID.TID 0000.0001)                 3.013593922621556E+05,      /* I = 49 */
(PID.TID 0000.0001)                 3.007982779774737E+05,      /* I = 50 */
(PID.TID 0000.0001)                 2.991142546940614E+05,      /* I = 51 */
(PID.TID 0000.0001)                 2.963038926108328E+05,      /* I = 52 */
(PID.TID 0000.0001)                 2.923600076816042E+05,      /* I = 53 */
(PID.TID 0000.0001)                 2.872689646798818E+05,      /* I = 54 */
(PID.TID 0000.0001)                 2.810066194331567E+05,      /* I = 55 */
(PID.TID 0000.0001)                 2.735322281461693E+05,      /* I = 56 */
(PID.TID 0000.0001)                 2.647792433358776E+05,      /* I = 57 */
(PID.TID 0000.0001)                 2.546409301203426E+05,      /* I = 58 */
(PID.TID 0000.0001)                 2.429466556954395E+05,      /* I = 59 */
(PID.TID 0000.0001)                 2.294199397881751E+05,      /* I = 60 */
(PID.TID 0000.0001)                 2.135973104330621E+05,      /* I = 61 */
(PID.TID 0000.0001)                 1.946528689404396E+05,      /* I = 62 */
(PID.TID 0000.0001)                 1.709683577475546E+05,      /* I = 63 */
(PID.TID 0000.0001)                 1.392485553682456E+05,      /* I = 64 */
(PID.TID 0000.0001)                 1.116647132697896E+05,      /* I = 65 */
(PID.TID 0000.0001)                 1.392485553682456E+05,      /* I = 66 */
(PID.TID 0000.0001)                 1.709683577475546E+05,      /* I = 67 */
(PID.TID 0000.0001)                 1.946528689404396E+05,      /* I = 68 */
(PID.TID 0000.0001)                 2.135973104330621E+05,      /* I = 69 */
(PID.TID 0000.0001)                 2.294199397881751E+05,      /* I = 70 */
(PID.TID 0000.0001)                 2.429466556954395E+05,      /* I = 71 */
(PID.TID 0000.0001)                 2.546409301203426E+05,      /* I = 72 */
(PID.TID 0000.0001)                 2.647792433358776E+05,      /* I = 73 */
(PID.TID 0000.0001)                 2.735322281461693E+05,      /* I = 74 */
(PID.TID 0000.0001)                 2.810066194331567E+05,      /* I = 75 */
(PID.TID 0000.0001)                 2.872689646798818E+05,      /* I = 76 */
(PID.TID 0000.0001)                 2.923600076816042E+05,      /* I = 77 */
(PID.TID 0000.0001)                 2.963038926108328E+05,      /* I = 78 */
(PID.TID 0000.0001)                 2.991142546940614E+05,      /* I = 79 */
(PID.TID 0000.0001)                 3.007982779774737E+05,      /* I = 80 */
(PID.TID 0000.0001)                 3.013593922621556E+05,      /* I = 81 */
(PID.TID 0000.0001)                 3.007982779774737E+05,      /* I = 82 */
(PID.TID 0000.0001)                 2.991142546940614E+05,      /* I = 83 */
(PID.TID 0000.0001)                 2.963038926108328E+05,      /* I = 84 */
(PID.TID 0000.0001)                 2.923600076816042E+05,      /* I = 85 */
(PID.TID 0000.0001)                 2.872689646798818E+05,      /* I = 86 */
(PID.TID 0000.0001)                 2.810066194331567E+05,      /* I = 87 */
(PID.TID 0000.0001)                 2.735322281461693E+05,      /* I = 88 */
(PID.TID 0000.0001)                 2.647792433358776E+05,      /* I = 89 */
(PID.TID 0000.0001)                 2.546409301203426E+05,      /* I = 90 */
(PID.TID 0000.0001)                 2.429466556954395E+05,      /* I = 91 */
(PID.TID 0000.0001)                 2.294199397881751E+05,      /* I = 92 */
(PID.TID 0000.0001)                 2.135973104330621E+05,      /* I = 93 */
(PID.TID 0000.0001)                 1.946528689404396E+05,      /* I = 94 */
(PID.TID 0000.0001)                 1.709683577475546E+05,      /* I = 95 */
(PID.TID 0000.0001)                 1.392485553682456E+05,      /* I = 96 */
(PID.TID 0000.0001)                 1.116647132697896E+05,      /* I = 97 */
(PID.TID 0000.0001)                 1.392485553682456E+05,      /* I = 98 */
(PID.TID 0000.0001)                 1.709683577475546E+05,      /* I = 99 */
(PID.TID 0000.0001)                 1.946528689404396E+05,      /* I =100 */
(PID.TID 0000.0001)                 2.135973104330621E+05,      /* I =101 */
(PID.TID 0000.0001)                 2.294199397881751E+05,      /* I =102 */
(PID.TID 0000.0001)                 2.429466556954395E+05,      /* I =103 */
(PID.TID 0000.0001)                 2.546409301203426E+05,      /* I =104 */
(PID.TID 0000.0001)                 2.647792433358776E+05,      /* I =105 */
(PID.TID 0000.0001)                 2.735322281461693E+05,      /* I =106 */
(PID.TID 0000.0001)                 2.810066194331567E+05,      /* I =107 */
(PID.TID 0000.0001)                 2.872689646798818E+05,      /* I =108 */
(PID.TID 0000.0001)                 2.923600076816042E+05,      /* I =109 */
(PID.TID 0000.0001)                 2.963038926108328E+05,      /* I =110 */
(PID.TID 0000.0001)                 2.991142546940614E+05,      /* I =111 */
(PID.TID 0000.0001)                 3.007982779774737E+05,      /* I =112 */
(PID.TID 0000.0001)                 3.013593922621556E+05,      /* I =113 */
(PID.TID 0000.0001)                 3.007982779774737E+05,      /* I =114 */
(PID.TID 0000.0001)                 2.991142546940614E+05,      /* I =115 */
(PID.TID 0000.0001)                 2.963038926108328E+05,      /* I =116 */
(PID.TID 0000.0001)                 2.923600076816042E+05,      /* I =117 */
(PID.TID 0000.0001)                 2.872689646798818E+05,      /* I =118 */
(PID.TID 0000.0001)                 2.810066194331567E+05,      /* I =119 */
(PID.TID 0000.0001)                 2.735322281461693E+05,      /* I =120 */
(PID.TID 0000.0001)                 2.647792433358776E+05,      /* I =121 */
(PID.TID 0000.0001)                 2.546409301203426E+05,      /* I =122 */
(PID.TID 0000.0001)                 2.429466556954395E+05,      /* I =123 */
(PID.TID 0000.0001)                 2.294199397881751E+05,      /* I =124 */
(PID.TID 0000.0001)                 2.135973104330621E+05,      /* I =125 */
(PID.TID 0000.0001)                 1.946528689404396E+05,      /* I =126 */
(PID.TID 0000.0001)                 1.709683577475546E+05,      /* I =127 */
(PID.TID 0000.0001)                 1.392485553682456E+05,      /* I =128 */
(PID.TID 0000.0001)                 1.116647132697896E+05,      /* I =129 */
(PID.TID 0000.0001)                 1.392485553682456E+05,      /* I =130 */
(PID.TID 0000.0001)                 1.709683577475546E+05,      /* I =131 */
(PID.TID 0000.0001)                 1.946528689404396E+05,      /* I =132 */
(PID.TID 0000.0001)                 2.135973104330621E+05,      /* I =133 */
(PID.TID 0000.0001)                 2.294199397881751E+05,      /* I =134 */
(PID.TID 0000.0001)                 2.429466556954395E+05,      /* I =135 */
(PID.TID 0000.0001)                 2.546409301203426E+05,      /* I =136 */
(PID.TID 0000.0001)                 2.647792433358776E+05,      /* I =137 */
(PID.TID 0000.0001)                 2.735322281461693E+05,      /* I =138 */
(PID.TID 0000.0001)                 2.810066194331567E+05,      /* I =139 */
(PID.TID 0000.0001)                 2.872689646798818E+05,      /* I =140 */
(PID.TID 0000.0001)                 2.923600076816042E+05,      /* I =141 */
(PID.TID 0000.0001)                 2.963038926108328E+05,      /* I =142 */
(PID.TID 0000.0001)                 2.991142546940614E+05,      /* I =143 */
(PID.TID 0000.0001)                 3.007982779774737E+05,      /* I =144 */
(PID.TID 0000.0001)                 3.013593922621556E+05,      /* I =145 */
(PID.TID 0000.0001)                 3.007982779774737E+05,      /* I =146 */
(PID.TID 0000.0001)                 2.991142546940614E+05,      /* I =147 */
(PID.TID 0000.0001)                 2.963038926108328E+05,      /* I =148 */
(PID.TID 0000.0001)                 2.923600076816042E+05,      /* I =149 */
(PID.TID 0000.0001)                 2.872689646798818E+05,      /* I =150 */
(PID.TID 0000.0001)                 2.810066194331567E+05,      /* I =151 */
(PID.TID 0000.0001)                 2.735322281461693E+05,      /* I =152 */
(PID.TID 0000.0001)                 2.647792433358776E+05,      /* I =153 */
(PID.TID 0000.0001)                 2.546409301203426E+05,      /* I =154 */
(PID.TID 0000.0001)                 2.429466556954395E+05,      /* I =155 */
(PID.TID 0000.0001)                 2.294199397881751E+05,      /* I =156 */
(PID.TID 0000.0001)                 2.135973104330621E+05,      /* I =157 */
(PID.TID 0000.0001)                 1.946528689404396E+05,      /* I =158 */
(PID.TID 0000.0001)                 1.709683577475546E+05,      /* I =159 */
(PID.TID 0000.0001)                 1.392485553682456E+05,      /* I =160 */
(PID.TID 0000.0001)                 1.116647132697896E+05,      /* I =161 */
(PID.TID 0000.0001)                 1.392485553682456E+05,      /* I =162 */
(PID.TID 0000.0001)                 1.709683577475546E+05,      /* I =163 */
(PID.TID 0000.0001)                 1.946528689404396E+05,      /* I =164 */
(PID.TID 0000.0001)                 2.135973104330621E+05,      /* I =165 */
(PID.TID 0000.0001)                 2.294199397881751E+05,      /* I =166 */
(PID.TID 0000.0001)                 2.429466556954395E+05,      /* I =167 */
(PID.TID 0000.0001)                 2.546409301203426E+05,      /* I =168 */
(PID.TID 0000.0001)                 2.647792433358776E+05,      /* I =169 */
(PID.TID 0000.0001)                 2.735322281461693E+05,      /* I =170 */
(PID.TID 0000.0001)                 2.810066194331567E+05,      /* I =171 */
(PID.TID 0000.0001)                 2.872689646798818E+05,      /* I =172 */
(PID.TID 0000.0001)                 2.923600076816042E+05,      /* I =173 */
(PID.TID 0000.0001)                 2.963038926108328E+05,      /* I =174 */
(PID.TID 0000.0001)                 2.991142546940614E+05,      /* I =175 */
(PID.TID 0000.0001)                 3.007982779774737E+05,      /* I =176 */
(PID.TID 0000.0001)                 3.013593922621556E+05,      /* I =177 */
(PID.TID 0000.0001)                 3.007982779774737E+05,      /* I =178 */
(PID.TID 0000.0001)                 2.991142546940614E+05,      /* I =179 */
(PID.TID 0000.0001)                 2.963038926108328E+05,      /* I =180 */
(PID.TID 0000.0001)                 2.923600076816042E+05,      /* I =181 */
(PID.TID 0000.0001)                 2.872689646798818E+05,      /* I =182 */
(PID.TID 0000.0001)                 2.810066194331567E+05,      /* I =183 */
(PID.TID 0000.0001)                 2.735322281461693E+05,      /* I =184 */
(PID.TID 0000.0001)                 2.647792433358776E+05,      /* I =185 */
(PID.TID 0000.0001)                 2.546409301203426E+05,      /* I =186 */
(PID.TID 0000.0001)                 2.429466556954395E+05,      /* I =187 */
(PID.TID 0000.0001)                 2.294199397881751E+05,      /* I =188 */
(PID.TID 0000.0001)                 2.135973104330621E+05,      /* I =189 */
(PID.TID 0000.0001)                 1.946528689404396E+05,      /* I =190 */
(PID.TID 0000.0001)                 1.709683577475546E+05,      /* I =191 */
(PID.TID 0000.0001)                 1.392485553682456E+05       /* I =192 */
(PID.TID 0000.0001)     ;
(PID.TID 0000.0001) dxC =  /* dxC(1,:,1,:) ( m - cartesian, degrees - spherical ) */
(PID.TID 0000.0001)                 1.116647132697896E+05,      /* J =  1 */
(PID.TID 0000.0001)                 1.550106351852402E+05,      /* J =  2 */
(PID.TID 0000.0001)                 1.830023121140663E+05,      /* J =  3 */
(PID.TID 0000.0001)                 2.042856638159274E+05,      /* J =  4 */
(PID.TID 0000.0001)                 2.216456717009910E+05,      /* J =  5 */
(PID.TID 0000.0001)                 2.363090373286453E+05,      /* J =  6 */
(PID.TID 0000.0001)                 2.489156845159615E+05,      /* J =  7 */
(PID.TID 0000.0001)                 2.598324334431715E+05,      /* J =  8 */
(PID.TID 0000.0001)                 2.692809632393803E+05,      /* J =  9 */
(PID.TID 0000.0001)                 2.773987887547638E+05,      /* J = 10 */
(PID.TID 0000.0001)                 2.842717730650770E+05,      /* J = 11 */
(PID.TID 0000.0001)                 2.899530125269320E+05,      /* J = 12 */
(PID.TID 0000.0001)                 2.944745484118126E+05,      /* J = 13 */
(PID.TID 0000.0001)                 2.978549726442448E+05,      /* J = 14 */
(PID.TID 0000.0001)                 3.001044813731514E+05,      /* J = 15 */
(PID.TID 0000.0001)     2 @  3.012281967256333E+05,             /* J = 16: 17 */
(PID.TID 0000.0001)                 3.001044813731514E+05,      /* J = 18 */
(PID.TID 0000.0001)                 2.978549726442448E+05,      /* J = 19 */
(PID.TID 0000.0001)                 2.944745484118126E+05,      /* J = 20 */
(PID.TID 0000.0001)                 2.899530125269320E+05,      /* J = 21 */
(PID.TID 0000.0001)                 2.842717730650770E+05,      /* J = 22 */
(PID.TID 0000.0001)                 2.773987887547638E+05,      /* J = 23 */
(PID.TID 0000.0001)                 2.692809632393803E+05,      /* J = 24 */
(PID.TID 0000.0001)                 2.598324334431715E+05,      /* J = 25 */
(PID.TID 0000.0001)                 2.489156845159615E+05,      /* J = 26 */
(PID.TID 0000.0001)                 2.363090373286453E+05,      /* J = 27 */
(PID.TID 0000.0001)                 2.216456717009910E+05,      /* J = 28 */
(PID.TID 0000.0001)                 2.042856638159274E+05,      /* J = 29 */
(PID.TID 0000.0001)                 1.830023121140663E+05,      /* J = 30 */
(PID.TID 0000.0001)                 1.550106351852402E+05,      /* J = 31 */
(PID.TID 0000.0001)                 1.116647132697896E+05       /* J = 32 */
(PID.TID 0000.0001)     ;
(PID.TID 0000.0001) dyC =  /* dyC(:,1,:,1) ( m - cartesian, degrees - spherical ) */
(PID.TID 0000.0001)                 1.116647132697896E+05,      /* I =  1 */
(PID.TID 0000.0001)                 1.550106351852402E+05,      /* I =  2 */
(PID.TID 0000.0001)                 1.830023121140663E+05,      /* I =  3 */
(PID.TID 0000.0001)                 2.042856638159274E+05,      /* I =  4 */
(PID.TID 0000.0001)                 2.216456717009910E+05,      /* I =  5 */
(PID.TID 0000.0001)                 2.363090373286453E+05,      /* I =  6 */
(PID.TID 0000.0001)                 2.489156845159615E+05,      /* I =  7 */
(PID.TID 0000.0001)                 2.598324334431715E+05,      /* I =  8 */
(PID.TID 0000.0001)                 2.692809632393803E+05,      /* I =  9 */
(PID.TID 0000.0001)                 2.773987887547638E+05,      /* I = 10 */
(PID.TID 0000.0001)                 2.842717730650770E+05,      /* I = 11 */
(PID.TID 0000.0001)                 2.899530125269320E+05,      /* I = 12 */
(PID.TID 0000.0001)                 2.944745484118126E+05,      /* I = 13 */
(PID.TID 0000.0001)                 2.978549726442448E+05,      /* I = 14 */
(PID.TID 0000.0001)                 3.001044813731514E+05,      /* I = 15 */
(PID.TID 0000.0001)     2 @  3.012281967256333E+05,             /* I = 16: 17 */
(PID.TID 0000.0001)                 3.001044813731514E+05,      /* I = 18 */
(PID.TID 0000.0001)                 2.978549726442448E+05,      /* I = 19 */
(PID.TID 0000.0001)                 2.944745484118126E+05,      /* I = 20 */
(PID.TID 0000.0001)                 2.899530125269320E+05,      /* I = 21 */
(PID.TID 0000.0001)                 2.842717730650770E+05,      /* I = 22 */
(PID.TID 0000.0001)                 2.773987887547638E+05,      /* I = 23 */
(PID.TID 0000.0001)                 2.692809632393803E+05,      /* I = 24 */
(PID.TID 0000.0001)                 2.598324334431715E+05,      /* I = 25 */
(PID.TID 0000.0001)                 2.489156845159615E+05,      /* I = 26 */
(PID.TID 0000.0001)                 2.363090373286453E+05,      /* I = 27 */
(PID.TID 0000.0001)                 2.216456717009910E+05,      /* I = 28 */
(PID.TID 0000.0001)                 2.042856638159274E+05,      /* I = 29 */
(PID.TID 0000.0001)                 1.830023121140663E+05,      /* I = 30 */
(PID.TID 0000.0001)                 1.550106351852402E+05,      /* I = 31 */
(PID.TID 0000.0001)     2 @  1.116647132697896E+05,             /* I = 32: 33 */
(PID.TID 0000.0001)                 1.550106351852402E+05,      /* I = 34 */
(PID.TID 0000.0001)                 1.830023121140663E+05,      /* I = 35 */
(PID.TID 0000.0001)                 2.042856638159274E+05,      /* I = 36 */
(PID.TID 0000.0001)                 2.216456717009910E+05,      /* I = 37 */
(PID.TID 0000.0001)                 2.363090373286453E+05,      /* I = 38 */
(PID.TID 0000.0001)                 2.489156845159615E+05,      /* I = 39 */
(PID.TID 0000.0001)                 2.598324334431715E+05,      /* I = 40 */
(PID.TID 0000.0001)                 2.692809632393803E+05,      /* I = 41 */
(PID.TID 0000.0001)                 2.773987887547638E+05,      /* I = 42 */
(PID.TID 0000.0001)                 2.842717730650770E+05,      /* I = 43 */
(PID.TID 0000.0001)                 2.899530125269320E+05,      /* I = 44 */
(PID.TID 0000.0001)                 2.944745484118126E+05,      /* I = 45 */
(PID.TID 0000.0001)                 2.978549726442448E+05,      /* I = 46 */
(PID.TID 0000.0001)                 3.001044813731514E+05,      /* I = 47 */
(PID.TID 0000.0001)     2 @  3.012281967256333E+05,             /* I = 48: 49 */
(PID.TID 0000.0001)                 3.001044813731514E+05,      /* I = 50 */
(PID.TID 0000.0001)                 2.978549726442448E+05,      /* I = 51 */
(PID.TID 0000.0001)                 2.944745484118126E+05,      /* I = 52 */
(PID.TID 0000.0001)                 2.899530125269320E+05,      /* I = 53 */
(PID.TID 0000.0001)                 2.842717730650770E+05,      /* I = 54 */
(PID.TID 0000.0001)                 2.773987887547638E+05,      /* I = 55 */
(PID.TID 0000.0001)                 2.692809632393803E+05,      /* I = 56 */
(PID.TID 0000.0001)                 2.598324334431715E+05,      /* I = 57 */
(PID.TID 0000.0001)                 2.489156845159615E+05,      /* I = 58 */
(PID.TID 0000.0001)                 2.363090373286453E+05,      /* I = 59 */
(PID.TID 0000.0001)                 2.216456717009910E+05,      /* I = 60 */
(PID.TID 0000.0001)                 2.042856638159274E+05,      /* I = 61 */
(PID.TID 0000.0001)                 1.830023121140663E+05,      /* I = 62 */
(PID.TID 0000.0001)                 1.550106351852402E+05,      /* I = 63 */
(PID.TID 0000.0001)     2 @  1.116647132697896E+05,             /* I = 64: 65 */
(PID.TID 0000.0001)                 1.550106351852402E+05,      /* I = 66 */
(PID.TID 0000.0001)                 1.830023121140663E+05,      /* I = 67 */
(PID.TID 0000.0001)                 2.042856638159274E+05,      /* I = 68 */
(PID.TID 0000.0001)                 2.216456717009910E+05,      /* I = 69 */
(PID.TID 0000.0001)                 2.363090373286453E+05,      /* I = 70 */
(PID.TID 0000.0001)                 2.489156845159615E+05,      /* I = 71 */
(PID.TID 0000.0001)                 2.598324334431715E+05,      /* I = 72 */
(PID.TID 0000.0001)                 2.692809632393803E+05,      /* I = 73 */
(PID.TID 0000.0001)                 2.773987887547638E+05,      /* I = 74 */
(PID.TID 0000.0001)                 2.842717730650770E+05,      /* I = 75 */
(PID.TID 0000.0001)                 2.899530125269320E+05,      /* I = 76 */
(PID.TID 0000.0001)                 2.944745484118126E+05,      /* I = 77 */
(PID.TID 0000.0001)                 2.978549726442448E+05,      /* I = 78 */
(PID.TID 0000.0001)                 3.001044813731514E+05,      /* I = 79 */
(PID.TID 0000.0001)     2 @  3.012281967256333E+05,             /* I = 80: 81 */
(PID.TID 0000.0001)                 3.001044813731514E+05,      /* I = 82 */
(PID.TID 0000.0001)                 2.978549726442448E+05,      /* I = 83 */
(PID.TID 0000.0001)                 2.944745484118126E+05,      /* I = 84 */
(PID.TID 0000.0001)                 2.899530125269320E+05,      /* I = 85 */
(PID.TID 0000.0001)                 2.842717730650770E+05,      /* I = 86 */
(PID.TID 0000.0001)                 2.773987887547638E+05,      /* I = 87 */
(PID.TID 0000.0001)                 2.692809632393803E+05,      /* I = 88 */
(PID.TID 0000.0001)                 2.598324334431715E+05,      /* I = 89 */
(PID.TID 0000.0001)                 2.489156845159615E+05,      /* I = 90 */
(PID.TID 0000.0001)                 2.363090373286453E+05,      /* I = 91 */
(PID.TID 0000.0001)                 2.216456717009910E+05,      /* I = 92 */
(PID.TID 0000.0001)                 2.042856638159274E+05,      /* I = 93 */
(PID.TID 0000.0001)                 1.830023121140663E+05,      /* I = 94 */
(PID.TID 0000.0001)                 1.550106351852402E+05,      /* I = 95 */
(PID.TID 0000.0001)     2 @  1.116647132697896E+05,             /* I = 96: 97 */
(PID.TID 0000.0001)                 1.550106351852402E+05,      /* I = 98 */
(PID.TID 0000.0001)                 1.830023121140663E+05,      /* I = 99 */
(PID.TID 0000.0001)                 2.042856638159274E+05,      /* I =100 */
(PID.TID 0000.0001)                 2.216456717009910E+05,      /* I =101 */
(PID.TID 0000.0001)                 2.363090373286453E+05,      /* I =102 */
(PID.TID 0000.0001)                 2.489156845159615E+05,      /* I =103 */
(PID.TID 0000.0001)                 2.598324334431715E+05,      /* I =104 */
(PID.TID 0000.0001)                 2.692809632393803E+05,      /* I =105 */
(PID.TID 0000.0001)                 2.773987887547638E+05,      /* I =106 */
(PID.TID 0000.0001)                 2.842717730650770E+05,      /* I =107 */
(PID.TID 0000.0001)                 2.899530125269320E+05,      /* I =108 */
(PID.TID 0000.0001)                 2.944745484118126E+05,      /* I =109 */
(PID.TID 0000.0001)                 2.978549726442448E+05,      /* I =110 */
(PID.TID 0000.0001)                 3.001044813731514E+05,      /* I =111 */
(PID.TID 0000.0001)     2 @  3.012281967256333E+05,             /* I =112:113 */
(PID.TID 0000.0001)                 3.001044813731514E+05,      /* I =114 */
(PID.TID 0000.0001)                 2.978549726442448E+05,      /* I =115 */
(PID.TID 0000.0001)                 2.944745484118126E+05,      /* I =116 */
(PID.TID 0000.0001)                 2.899530125269320E+05,      /* I =117 */
(PID.TID 0000.0001)                 2.842717730650770E+05,      /* I =118 */
(PID.TID 0000.0001)                 2.773987887547638E+05,      /* I =119 */
(PID.TID 0000.0001)                 2.692809632393803E+05,      /* I =120 */
(PID.TID 0000.0001)                 2.598324334431715E+05,      /* I =121 */
(PID.TID 0000.0001)                 2.489156845159615E+05,      /* I =122 */
(PID.TID 0000.0001)                 2.363090373286453E+05,      /* I =123 */
(PID.TID 0000.0001)                 2.216456717009910E+05,      /* I =124 */
(PID.TID 0000.0001)                 2.042856638159274E+05,      /* I =125 */
(PID.TID 0000.0001)                 1.830023121140663E+05,      /* I =126 */
(PID.TID 0000.0001)                 1.550106351852402E+05,      /* I =127 */
(PID.TID 0000.0001)     2 @  1.116647132697896E+05,             /* I =128:129 */
(PID.TID 0000.0001)                 1.550106351852402E+05,      /* I =130 */
(PID.TID 0000.0001)                 1.830023121140663E+05,      /* I =131 */
(PID.TID 0000.0001)                 2.042856638159274E+05,      /* I =132 */
(PID.TID 0000.0001)                 2.216456717009910E+05,      /* I =133 */
(PID.TID 0000.0001)                 2.363090373286453E+05,      /* I =134 */
(PID.TID 0000.0001)                 2.489156845159615E+05,      /* I =135 */
(PID.TID 0000.0001)                 2.598324334431715E+05,      /* I =136 */
(PID.TID 0000.0001)                 2.692809632393803E+05,      /* I =137 */
(PID.TID 0000.0001)                 2.773987887547638E+05,      /* I =138 */
(PID.TID 0000.0001)                 2.842717730650770E+05,      /* I =139 */
(PID.TID 0000.0001)                 2.899530125269320E+05,      /* I =140 */
(PID.TID 0000.0001)                 2.944745484118126E+05,      /* I =141 */
(PID.TID 0000.0001)                 2.978549726442448E+05,      /* I =142 */
(PID.TID 0000.0001)                 3.001044813731514E+05,      /* I =143 */
(PID.TID 0000.0001)     2 @  3.012281967256333E+05,             /* I =144:145 */
(PID.TID 0000.0001)                 3.001044813731514E+05,      /* I =146 */
(PID.TID 0000.0001)                 2.978549726442448E+05,      /* I =147 */
(PID.TID 0000.0001)                 2.944745484118126E+05,      /* I =148 */
(PID.TID 0000.0001)                 2.899530125269320E+05,      /* I =149 */
(PID.TID 0000.0001)                 2.842717730650770E+05,      /* I =150 */
(PID.TID 0000.0001)                 2.773987887547638E+05,      /* I =151 */
(PID.TID 0000.0001)                 2.692809632393803E+05,      /* I =152 */
(PID.TID 0000.0001)                 2.598324334431715E+05,      /* I =153 */
(PID.TID 0000.0001)                 2.489156845159615E+05,      /* I =154 */
(PID.TID 0000.0001)                 2.363090373286453E+05,      /* I =155 */
(PID.TID 0000.0001)                 2.216456717009910E+05,      /* I =156 */
(PID.TID 0000.0001)                 2.042856638159274E+05,      /* I =157 */
(PID.TID 0000.0001)                 1.830023121140663E+05,      /* I =158 */
(PID.TID 0000.0001)                 1.550106351852402E+05,      /* I =159 */
(PID.TID 0000.0001)     2 @  1.116647132697896E+05,             /* I =160:161 */
(PID.TID 0000.0001)                 1.550106351852402E+05,      /* I =162 */
(PID.TID 0000.0001)                 1.830023121140663E+05,      /* I =163 */
(PID.TID 0000.0001)                 2.042856638159274E+05,      /* I =164 */
(PID.TID 0000.0001)                 2.216456717009910E+05,      /* I =165 */
(PID.TID 0000.0001)                 2.363090373286453E+05,      /* I =166 */
(PID.TID 0000.0001)                 2.489156845159615E+05,      /* I =167 */
(PID.TID 0000.0001)                 2.598324334431715E+05,      /* I =168 */
(PID.TID 0000.0001)                 2.692809632393803E+05,      /* I =169 */
(PID.TID 0000.0001)                 2.773987887547638E+05,      /* I =170 */
(PID.TID 0000.0001)                 2.842717730650770E+05,      /* I =171 */
(PID.TID 0000.0001)                 2.899530125269320E+05,      /* I =172 */
(PID.TID 0000.0001)                 2.944745484118126E+05,      /* I =173 */
(PID.TID 0000.0001)                 2.978549726442448E+05,      /* I =174 */
(PID.TID 0000.0001)                 3.001044813731514E+05,      /* I =175 */
(PID.TID 0000.0001)     2 @  3.012281967256333E+05,             /* I =176:177 */
(PID.TID 0000.0001)                 3.001044813731514E+05,      /* I =178 */
(PID.TID 0000.0001)                 2.978549726442448E+05,      /* I =179 */
(PID.TID 0000.0001)                 2.944745484118126E+05,      /* I =180 */
(PID.TID 0000.0001)                 2.899530125269320E+05,      /* I =181 */
(PID.TID 0000.0001)                 2.842717730650770E+05,      /* I =182 */
(PID.TID 0000.0001)                 2.773987887547638E+05,      /* I =183 */
(PID.TID 0000.0001)                 2.692809632393803E+05,      /* I =184 */
(PID.TID 0000.0001)                 2.598324334431715E+05,      /* I =185 */
(PID.TID 0000.0001)                 2.489156845159615E+05,      /* I =186 */
(PID.TID 0000.0001)                 2.363090373286453E+05,      /* I =187 */
(PID.TID 0000.0001)                 2.216456717009910E+05,      /* I =188 */
(PID.TID 0000.0001)                 2.042856638159274E+05,      /* I =189 */
(PID.TID 0000.0001)                 1.830023121140663E+05,      /* I =190 */
(PID.TID 0000.0001)                 1.550106351852402E+05,      /* I =191 */
(PID.TID 0000.0001)                 1.116647132697896E+05       /* I =192 */
(PID.TID 0000.0001)     ;
(PID.TID 0000.0001) dyC =  /* dyC(1,:,1,:) ( m - cartesian, degrees - spherical ) */
(PID.TID 0000.0001)                 1.116647132697896E+05,      /* J =  1 */
(PID.TID 0000.0001)                 1.392485553682456E+05,      /* J =  2 */
(PID.TID 0000.0001)                 1.709683577475546E+05,      /* J =  3 */
(PID.TID 0000.0001)                 1.946528689404396E+05,      /* J =  4 */
(PID.TID 0000.0001)                 2.135973104330621E+05,      /* J =  5 */
(PID.TID 0000.0001)                 2.294199397881751E+05,      /* J =  6 */
(PID.TID 0000.0001)                 2.429466556954395E+05,      /* J =  7 */
(PID.TID 0000.0001)                 2.546409301203426E+05,      /* J =  8 */
(PID.TID 0000.0001)                 2.647792433358776E+05,      /* J =  9 */
(PID.TID 0000.0001)                 2.735322281461693E+05,      /* J = 10 */
(PID.TID 0000.0001)                 2.810066194331567E+05,      /* J = 11 */
(PID.TID 0000.0001)                 2.872689646798818E+05,      /* J = 12 */
(PID.TID 0000.0001)                 2.923600076816042E+05,      /* J = 13 */
(PID.TID 0000.0001)                 2.963038926108328E+05,      /* J = 14 */
(PID.TID 0000.0001)                 2.991142546940614E+05,      /* J = 15 */
(PID.TID 0000.0001)                 3.007982779774737E+05,      /* J = 16 */
(PID.TID 0000.0001)                 3.013593922621556E+05,      /* J = 17 */
(PID.TID 0000.0001)                 3.007982779774737E+05,      /* J = 18 */
(PID.TID 0000.0001)                 2.991142546940614E+05,      /* J = 19 */
(PID.TID 0000.0001)                 2.963038926108328E+05,      /* J = 20 */
(PID.TID 0000.0001)                 2.923600076816042E+05,      /* J = 21 */
(PID.TID 0000.0001)                 2.872689646798818E+05,      /* J = 22 */
(PID.TID 0000.0001)                 2.810066194331567E+05,      /* J = 23 */
(PID.TID 0000.0001)                 2.735322281461693E+05,      /* J = 24 */
(PID.TID 0000.0001)                 2.647792433358776E+05,      /* J = 25 */
(PID.TID 0000.0001)                 2.546409301203426E+05,      /* J = 26 */
(PID.TID 0000.0001)                 2.429466556954395E+05,      /* J = 27 */
(PID.TID 0000.0001)                 2.294199397881751E+05,      /* J = 28 */
(PID.TID 0000.0001)                 2.135973104330621E+05,      /* J = 29 */
(PID.TID 0000.0001)                 1.946528689404396E+05,      /* J = 30 */
(PID.TID 0000.0001)                 1.709683577475546E+05,      /* J = 31 */
(PID.TID 0000.0001)                 1.392485553682456E+05       /* J = 32 */
(PID.TID 0000.0001)     ;
(PID.TID 0000.0001) dxV =  /* dxV(:,1,:,1) ( m - cartesian, degrees - spherical ) */
(PID.TID 0000.0001)                 8.015229982404485E+04,      /* I =  1 */
(PID.TID 0000.0001)                 1.333130744932167E+05,      /* I =  2 */
(PID.TID 0000.0001)                 1.691744868125388E+05,      /* I =  3 */
(PID.TID 0000.0001)                 1.937548202845808E+05,      /* I =  4 */
(PID.TID 0000.0001)                 2.130490056266232E+05,      /* I =  5 */
(PID.TID 0000.0001)                 2.290479919482170E+05,      /* I =  6 */
(PID.TID 0000.0001)                 2.426774358027187E+05,      /* I =  7 */
(PID.TID 0000.0001)                 2.544372984218245E+05,      /* I =  8 */
(PID.TID 0000.0001)                 2.646201463833409E+05,      /* I =  9 */
(PID.TID 0000.0001)                 2.734046499617742E+05,      /* I = 10 */
(PID.TID 0000.0001)                 2.809019351693248E+05,      /* I = 11 */
(PID.TID 0000.0001)                 2.871811105272531E+05,      /* I = 12 */
(PID.TID 0000.0001)                 2.922844849381013E+05,      /* I = 13 */
(PID.TID 0000.0001)                 2.962371870845711E+05,      /* I = 14 */
(PID.TID 0000.0001)                 2.990534755671846E+05,      /* I = 15 */
(PID.TID 0000.0001)                 3.007409169495762E+05,      /* I = 16 */
(PID.TID 0000.0001)                 3.013031486921958E+05,      /* I = 17 */
(PID.TID 0000.0001)                 3.007409169495762E+05,      /* I = 18 */
(PID.TID 0000.0001)                 2.990534755671846E+05,      /* I = 19 */
(PID.TID 0000.0001)                 2.962371870845711E+05,      /* I = 20 */
(PID.TID 0000.0001)                 2.922844849381013E+05,      /* I = 21 */
(PID.TID 0000.0001)                 2.871811105272531E+05,      /* I = 22 */
(PID.TID 0000.0001)                 2.809019351693248E+05,      /* I = 23 */
(PID.TID 0000.0001)                 2.734046499617742E+05,      /* I = 24 */
(PID.TID 0000.0001)                 2.646201463833409E+05,      /* I = 25 */
(PID.TID 0000.0001)                 2.544372984218245E+05,      /* I = 26 */
(PID.TID 0000.0001)                 2.426774358027187E+05,      /* I = 27 */
(PID.TID 0000.0001)                 2.290479919482170E+05,      /* I = 28 */
(PID.TID 0000.0001)                 2.130490056266232E+05,      /* I = 29 */
(PID.TID 0000.0001)                 1.937548202845808E+05,      /* I = 30 */
(PID.TID 0000.0001)                 1.691744868125388E+05,      /* I = 31 */
(PID.TID 0000.0001)                 1.333130744932167E+05,      /* I = 32 */
(PID.TID 0000.0001)                 8.015229982404485E+04,      /* I = 33 */
(PID.TID 0000.0001)                 1.333130744932167E+05,      /* I = 34 */
(PID.TID 0000.0001)                 1.691744868125388E+05,      /* I = 35 */
(PID.TID 0000.0001)                 1.937548202845808E+05,      /* I = 36 */
(PID.TID 0000.0001)                 2.130490056266232E+05,      /* I = 37 */
(PID.TID 0000.0001)                 2.290479919482170E+05,      /* I = 38 */
(PID.TID 0000.0001)                 2.426774358027187E+05,      /* I = 39 */
(PID.TID 0000.0001)                 2.544372984218245E+05,      /* I = 40 */
(PID.TID 0000.0001)                 2.646201463833409E+05,      /* I = 41 */
(PID.TID 0000.0001)                 2.734046499617742E+05,      /* I = 42 */
(PID.TID 0000.0001)                 2.809019351693248E+05,      /* I = 43 */
(PID.TID 0000.0001)                 2.871811105272531E+05,      /* I = 44 */
(PID.TID 0000.0001)                 2.922844849381013E+05,      /* I = 45 */
(PID.TID 0000.0001)                 2.962371870845711E+05,      /* I = 46 */
(PID.TID 0000.0001)                 2.990534755671846E+05,      /* I = 47 */
(PID.TID 0000.0001)                 3.007409169495762E+05,      /* I = 48 */
(PID.TID 0000.0001)                 3.013031486921958E+05,      /* I = 49 */
(PID.TID 0000.0001)                 3.007409169495762E+05,      /* I = 50 */
(PID.TID 0000.0001)                 2.990534755671846E+05,      /* I = 51 */
(PID.TID 0000.0001)                 2.962371870845711E+05,      /* I = 52 */
(PID.TID 0000.0001)                 2.922844849381013E+05,      /* I = 53 */
(PID.TID 0000.0001)                 2.871811105272531E+05,      /* I = 54 */
(PID.TID 0000.0001)                 2.809019351693248E+05,      /* I = 55 */
(PID.TID 0000.0001)                 2.734046499617742E+05,      /* I = 56 */
(PID.TID 0000.0001)                 2.646201463833409E+05,      /* I = 57 */
(PID.TID 0000.0001)                 2.544372984218245E+05,      /* I = 58 */
(PID.TID 0000.0001)                 2.426774358027187E+05,      /* I = 59 */
(PID.TID 0000.0001)                 2.290479919482170E+05,      /* I = 60 */
(PID.TID 0000.0001)                 2.130490056266232E+05,      /* I = 61 */
(PID.TID 0000.0001)                 1.937548202845808E+05,      /* I = 62 */
(PID.TID 0000.0001)                 1.691744868125388E+05,      /* I = 63 */
(PID.TID 0000.0001)                 1.333130744932167E+05,      /* I = 64 */
(PID.TID 0000.0001)                 8.015229982404485E+04,      /* I = 65 */
(PID.TID 0000.0001)                 1.333130744932167E+05,      /* I = 66 */
(PID.TID 0000.0001)                 1.691744868125388E+05,      /* I = 67 */
(PID.TID 0000.0001)                 1.937548202845808E+05,      /* I = 68 */
(PID.TID 0000.0001)                 2.130490056266232E+05,      /* I = 69 */
(PID.TID 0000.0001)                 2.290479919482170E+05,      /* I = 70 */
(PID.TID 0000.0001)                 2.426774358027187E+05,      /* I = 71 */
(PID.TID 0000.0001)                 2.544372984218245E+05,      /* I = 72 */
(PID.TID 0000.0001)                 2.646201463833409E+05,      /* I = 73 */
(PID.TID 0000.0001)                 2.734046499617742E+05,      /* I = 74 */
(PID.TID 0000.0001)                 2.809019351693248E+05,      /* I = 75 */
(PID.TID 0000.0001)                 2.871811105272531E+05,      /* I = 76 */
(PID.TID 0000.0001)                 2.922844849381013E+05,      /* I = 77 */
(PID.TID 0000.0001)                 2.962371870845711E+05,      /* I = 78 */
(PID.TID 0000.0001)                 2.990534755671846E+05,      /* I = 79 */
(PID.TID 0000.0001)                 3.007409169495762E+05,      /* I = 80 */
(PID.TID 0000.0001)                 3.013031486921958E+05,      /* I = 81 */
(PID.TID 0000.0001)                 3.007409169495762E+05,      /* I = 82 */
(PID.TID 0000.0001)                 2.990534755671846E+05,      /* I = 83 */
(PID.TID 0000.0001)                 2.962371870845711E+05,      /* I = 84 */
(PID.TID 0000.0001)                 2.922844849381013E+05,      /* I = 85 */
(PID.TID 0000.0001)                 2.871811105272531E+05,      /* I = 86 */
(PID.TID 0000.0001)                 2.809019351693248E+05,      /* I = 87 */
(PID.TID 0000.0001)                 2.734046499617742E+05,      /* I = 88 */
(PID.TID 0000.0001)                 2.646201463833409E+05,      /* I = 89 */
(PID.TID 0000.0001)                 2.544372984218245E+05,      /* I = 90 */
(PID.TID 0000.0001)                 2.426774358027187E+05,      /* I = 91 */
(PID.TID 0000.0001)                 2.290479919482170E+05,      /* I = 92 */
(PID.TID 0000.0001)                 2.130490056266232E+05,      /* I = 93 */
(PID.TID 0000.0001)                 1.937548202845808E+05,      /* I = 94 */
(PID.TID 0000.0001)                 1.691744868125388E+05,      /* I = 95 */
(PID.TID 0000.0001)                 1.333130744932167E+05,      /* I = 96 */
(PID.TID 0000.0001)                 8.015229982404485E+04,      /* I = 97 */
(PID.TID 0000.0001)                 1.333130744932167E+05,      /* I = 98 */
(PID.TID 0000.0001)                 1.691744868125388E+05,      /* I = 99 */
(PID.TID 0000.0001)                 1.937548202845808E+05,      /* I =100 */
(PID.TID 0000.0001)                 2.130490056266232E+05,      /* I =101 */
(PID.TID 0000.0001)                 2.290479919482170E+05,      /* I =102 */
(PID.TID 0000.0001)                 2.426774358027187E+05,      /* I =103 */
(PID.TID 0000.0001)                 2.544372984218245E+05,      /* I =104 */
(PID.TID 0000.0001)                 2.646201463833409E+05,      /* I =105 */
(PID.TID 0000.0001)                 2.734046499617742E+05,      /* I =106 */
(PID.TID 0000.0001)                 2.809019351693248E+05,      /* I =107 */
(PID.TID 0000.0001)                 2.871811105272531E+05,      /* I =108 */
(PID.TID 0000.0001)                 2.922844849381013E+05,      /* I =109 */
(PID.TID 0000.0001)                 2.962371870845711E+05,      /* I =110 */
(PID.TID 0000.0001)                 2.990534755671846E+05,      /* I =111 */
(PID.TID 0000.0001)                 3.007409169495762E+05,      /* I =112 */
(PID.TID 0000.0001)                 3.013031486921958E+05,      /* I =113 */
(PID.TID 0000.0001)                 3.007409169495762E+05,      /* I =114 */
(PID.TID 0000.0001)                 2.990534755671846E+05,      /* I =115 */
(PID.TID 0000.0001)                 2.962371870845711E+05,      /* I =116 */
(PID.TID 0000.0001)                 2.922844849381013E+05,      /* I =117 */
(PID.TID 0000.0001)                 2.871811105272531E+05,      /* I =118 */
(PID.TID 0000.0001)                 2.809019351693248E+05,      /* I =119 */
(PID.TID 0000.0001)                 2.734046499617742E+05,      /* I =120 */
(PID.TID 0000.0001)                 2.646201463833409E+05,      /* I =121 */
(PID.TID 0000.0001)                 2.544372984218245E+05,      /* I =122 */
(PID.TID 0000.0001)                 2.426774358027187E+05,      /* I =123 */
(PID.TID 0000.0001)                 2.290479919482170E+05,      /* I =124 */
(PID.TID 0000.0001)                 2.130490056266232E+05,      /* I =125 */
(PID.TID 0000.0001)                 1.937548202845808E+05,      /* I =126 */
(PID.TID 0000.0001)                 1.691744868125388E+05,      /* I =127 */
(PID.TID 0000.0001)                 1.333130744932167E+05,      /* I =128 */
(PID.TID 0000.0001)                 8.015229982404485E+04,      /* I =129 */
(PID.TID 0000.0001)                 1.333130744932167E+05,      /* I =130 */
(PID.TID 0000.0001)                 1.691744868125388E+05,      /* I =131 */
(PID.TID 0000.0001)                 1.937548202845808E+05,      /* I =132 */
(PID.TID 0000.0001)                 2.130490056266232E+05,      /* I =133 */
(PID.TID 0000.0001)                 2.290479919482170E+05,      /* I =134 */
(PID.TID 0000.0001)                 2.426774358027187E+05,      /* I =135 */
(PID.TID 0000.0001)                 2.544372984218245E+05,      /* I =136 */
(PID.TID 0000.0001)                 2.646201463833409E+05,      /* I =137 */
(PID.TID 0000.0001)                 2.734046499617742E+05,      /* I =138 */
(PID.TID 0000.0001)                 2.809019351693248E+05,      /* I =139 */
(PID.TID 0000.0001)                 2.871811105272531E+05,      /* I =140 */
(PID.TID 0000.0001)                 2.922844849381013E+05,      /* I =141 */
(PID.TID 0000.0001)                 2.962371870845711E+05,      /* I =142 */
(PID.TID 0000.0001)                 2.990534755671846E+05,      /* I =143 */
(PID.TID 0000.0001)                 3.007409169495762E+05,      /* I =144 */
(PID.TID 0000.0001)                 3.013031486921958E+05,      /* I =145 */
(PID.TID 0000.0001)                 3.007409169495762E+05,      /* I =146 */
(PID.TID 0000.0001)                 2.990534755671846E+05,      /* I =147 */
(PID.TID 0000.0001)                 2.962371870845711E+05,      /* I =148 */
(PID.TID 0000.0001)                 2.922844849381013E+05,      /* I =149 */
(PID.TID 0000.0001)                 2.871811105272531E+05,      /* I =150 */
(PID.TID 0000.0001)                 2.809019351693248E+05,      /* I =151 */
(PID.TID 0000.0001)                 2.734046499617742E+05,      /* I =152 */
(PID.TID 0000.0001)                 2.646201463833409E+05,      /* I =153 */
(PID.TID 0000.0001)                 2.544372984218245E+05,      /* I =154 */
(PID.TID 0000.0001)                 2.426774358027187E+05,      /* I =155 */
(PID.TID 0000.0001)                 2.290479919482170E+05,      /* I =156 */
(PID.TID 0000.0001)                 2.130490056266232E+05,      /* I =157 */
(PID.TID 0000.0001)                 1.937548202845808E+05,      /* I =158 */
(PID.TID 0000.0001)                 1.691744868125388E+05,      /* I =159 */
(PID.TID 0000.0001)                 1.333130744932167E+05,      /* I =160 */
(PID.TID 0000.0001)                 8.015229982404485E+04,      /* I =161 */
(PID.TID 0000.0001)                 1.333130744932167E+05,      /* I =162 */
(PID.TID 0000.0001)                 1.691744868125388E+05,      /* I =163 */
(PID.TID 0000.0001)                 1.937548202845808E+05,      /* I =164 */
(PID.TID 0000.0001)                 2.130490056266232E+05,      /* I =165 */
(PID.TID 0000.0001)                 2.290479919482170E+05,      /* I =166 */
(PID.TID 0000.0001)                 2.426774358027187E+05,      /* I =167 */
(PID.TID 0000.0001)                 2.544372984218245E+05,      /* I =168 */
(PID.TID 0000.0001)                 2.646201463833409E+05,      /* I =169 */
(PID.TID 0000.0001)                 2.734046499617742E+05,      /* I =170 */
(PID.TID 0000.0001)                 2.809019351693248E+05,      /* I =171 */
(PID.TID 0000.0001)                 2.871811105272531E+05,      /* I =172 */
(PID.TID 0000.0001)                 2.922844849381013E+05,      /* I =173 */
(PID.TID 0000.0001)                 2.962371870845711E+05,      /* I =174 */
(PID.TID 0000.0001)                 2.990534755671846E+05,      /* I =175 */
(PID.TID 0000.0001)                 3.007409169495762E+05,      /* I =176 */
(PID.TID 0000.0001)                 3.013031486921958E+05,      /* I =177 */
(PID.TID 0000.0001)                 3.007409169495762E+05,      /* I =178 */
(PID.TID 0000.0001)                 2.990534755671846E+05,      /* I =179 */
(PID.TID 0000.0001)                 2.962371870845711E+05,      /* I =180 */
(PID.TID 0000.0001)                 2.922844849381013E+05,      /* I =181 */
(PID.TID 0000.0001)                 2.871811105272531E+05,      /* I =182 */
(PID.TID 0000.0001)                 2.809019351693248E+05,      /* I =183 */
(PID.TID 0000.0001)                 2.734046499617742E+05,      /* I =184 */
(PID.TID 0000.0001)                 2.646201463833409E+05,      /* I =185 */
(PID.TID 0000.0001)                 2.544372984218245E+05,      /* I =186 */
(PID.TID 0000.0001)                 2.426774358027187E+05,      /* I =187 */
(PID.TID 0000.0001)                 2.290479919482170E+05,      /* I =188 */
(PID.TID 0000.0001)                 2.130490056266232E+05,      /* I =189 */
(PID.TID 0000.0001)                 1.937548202845808E+05,      /* I =190 */
(PID.TID 0000.0001)                 1.691744868125388E+05,      /* I =191 */
(PID.TID 0000.0001)                 1.333130744932167E+05       /* I =192 */
(PID.TID 0000.0001)     ;
(PID.TID 0000.0001) dxV =  /* dxV(1,:,1,:) ( m - cartesian, degrees - spherical ) */
(PID.TID 0000.0001)                 8.015229982404485E+04,      /* J =  1 */
(PID.TID 0000.0001)                 1.363686624762857E+05,      /* J =  2 */
(PID.TID 0000.0001)                 1.701434472301228E+05,      /* J =  3 */
(PID.TID 0000.0001)                 1.942512285132079E+05,      /* J =  4 */
(PID.TID 0000.0001)                 2.133596519724930E+05,      /* J =  5 */
(PID.TID 0000.0001)                 2.292657670664826E+05,      /* J =  6 */
(PID.TID 0000.0001)                 2.428421011082736E+05,      /* J =  7 */
(PID.TID 0000.0001)                 2.545689482926672E+05,      /* J =  8 */
(PID.TID 0000.0001)                 2.647301290465471E+05,      /* J =  9 */
(PID.TID 0000.0001)                 2.734999039571499E+05,      /* J = 10 */
(PID.TID 0000.0001)                 2.809869621221908E+05,      /* J = 11 */
(PID.TID 0000.0001)                 2.872589691757398E+05,      /* J = 12 */
(PID.TID 0000.0001)                 2.923573353492430E+05,      /* J = 13 */
(PID.TID 0000.0001)                 2.963066114700798E+05,      /* J = 14 */
(PID.TID 0000.0001)                 2.991206817612058E+05,      /* J = 15 */
(PID.TID 0000.0001)                 3.008068781660835E+05,      /* J = 16 */
(PID.TID 0000.0001)                 3.013686170437830E+05,      /* J = 17 */
(PID.TID 0000.0001)                 3.008068781660835E+05,      /* J = 18 */
(PID.TID 0000.0001)                 2.991206817612058E+05,      /* J = 19 */
(PID.TID 0000.0001)                 2.963066114700798E+05,      /* J = 20 */
(PID.TID 0000.0001)                 2.923573353492430E+05,      /* J = 21 */
(PID.TID 0000.0001)                 2.872589691757398E+05,      /* J = 22 */
(PID.TID 0000.0001)                 2.809869621221908E+05,      /* J = 23 */
(PID.TID 0000.0001)                 2.734999039571499E+05,      /* J = 24 */
(PID.TID 0000.0001)                 2.647301290465471E+05,      /* J = 25 */
(PID.TID 0000.0001)                 2.545689482926672E+05,      /* J = 26 */
(PID.TID 0000.0001)                 2.428421011082736E+05,      /* J = 27 */
(PID.TID 0000.0001)                 2.292657670664826E+05,      /* J = 28 */
(PID.TID 0000.0001)                 2.133596519724930E+05,      /* J = 29 */
(PID.TID 0000.0001)                 1.942512285132079E+05,      /* J = 30 */
(PID.TID 0000.0001)                 1.701434472301228E+05,      /* J = 31 */
(PID.TID 0000.0001)                 1.363686624762857E+05       /* J = 32 */
(PID.TID 0000.0001)     ;
(PID.TID 0000.0001) dyU =  /* dyU(:,1,:,1) ( m - cartesian, degrees - spherical ) */
(PID.TID 0000.0001)                 8.015229982404485E+04,      /* I =  1 */
(PID.TID 0000.0001)                 1.363686624762857E+05,      /* I =  2 */
(PID.TID 0000.0001)                 1.701434472301228E+05,      /* I =  3 */
(PID.TID 0000.0001)                 1.942512285132079E+05,      /* I =  4 */
(PID.TID 0000.0001)                 2.133596519724930E+05,      /* I =  5 */
(PID.TID 0000.0001)                 2.292657670664826E+05,      /* I =  6 */
(PID.TID 0000.0001)                 2.428421011082736E+05,      /* I =  7 */
(PID.TID 0000.0001)                 2.545689482926672E+05,      /* I =  8 */
(PID.TID 0000.0001)                 2.647301290465471E+05,      /* I =  9 */
(PID.TID 0000.0001)                 2.734999039571499E+05,      /* I = 10 */
(PID.TID 0000.0001)                 2.809869621221908E+05,      /* I = 11 */
(PID.TID 0000.0001)                 2.872589691757398E+05,      /* I = 12 */
(PID.TID 0000.0001)                 2.923573353492430E+05,      /* I = 13 */
(PID.TID 0000.0001)                 2.963066114700798E+05,      /* I = 14 */
(PID.TID 0000.0001)                 2.991206817612058E+05,      /* I = 15 */
(PID.TID 0000.0001)                 3.008068781660835E+05,      /* I = 16 */
(PID.TID 0000.0001)                 3.013686170437830E+05,      /* I = 17 */
(PID.TID 0000.0001)                 3.008068781660835E+05,      /* I = 18 */
(PID.TID 0000.0001)                 2.991206817612058E+05,      /* I = 19 */
(PID.TID 0000.0001)                 2.963066114700798E+05,      /* I = 20 */
(PID.TID 0000.0001)                 2.923573353492430E+05,      /* I = 21 */
(PID.TID 0000.0001)                 2.872589691757398E+05,      /* I = 22 */
(PID.TID 0000.0001)                 2.809869621221908E+05,      /* I = 23 */
(PID.TID 0000.0001)                 2.734999039571499E+05,      /* I = 24 */
(PID.TID 0000.0001)                 2.647301290465471E+05,      /* I = 25 */
(PID.TID 0000.0001)                 2.545689482926672E+05,      /* I = 26 */
(PID.TID 0000.0001)                 2.428421011082736E+05,      /* I = 27 */
(PID.TID 0000.0001)                 2.292657670664826E+05,      /* I = 28 */
(PID.TID 0000.0001)                 2.133596519724930E+05,      /* I = 29 */
(PID.TID 0000.0001)                 1.942512285132079E+05,      /* I = 30 */
(PID.TID 0000.0001)                 1.701434472301228E+05,      /* I = 31 */
(PID.TID 0000.0001)                 1.363686624762857E+05,      /* I = 32 */
(PID.TID 0000.0001)                 8.015229982404485E+04,      /* I = 33 */
(PID.TID 0000.0001)                 1.363686624762857E+05,      /* I = 34 */
(PID.TID 0000.0001)                 1.701434472301228E+05,      /* I = 35 */
(PID.TID 0000.0001)                 1.942512285132079E+05,      /* I = 36 */
(PID.TID 0000.0001)                 2.133596519724930E+05,      /* I = 37 */
(PID.TID 0000.0001)                 2.292657670664826E+05,      /* I = 38 */
(PID.TID 0000.0001)                 2.428421011082736E+05,      /* I = 39 */
(PID.TID 0000.0001)                 2.545689482926672E+05,      /* I = 40 */
(PID.TID 0000.0001)                 2.647301290465471E+05,      /* I = 41 */
(PID.TID 0000.0001)                 2.734999039571499E+05,      /* I = 42 */
(PID.TID 0000.0001)                 2.809869621221908E+05,      /* I = 43 */
(PID.TID 0000.0001)                 2.872589691757398E+05,      /* I = 44 */
(PID.TID 0000.0001)                 2.923573353492430E+05,      /* I = 45 */
(PID.TID 0000.0001)                 2.963066114700798E+05,      /* I = 46 */
(PID.TID 0000.0001)                 2.991206817612058E+05,      /* I = 47 */
(PID.TID 0000.0001)                 3.008068781660835E+05,      /* I = 48 */
(PID.TID 0000.0001)                 3.013686170437830E+05,      /* I = 49 */
(PID.TID 0000.0001)                 3.008068781660835E+05,      /* I = 50 */
(PID.TID 0000.0001)                 2.991206817612058E+05,      /* I = 51 */
(PID.TID 0000.0001)                 2.963066114700798E+05,      /* I = 52 */
(PID.TID 0000.0001)                 2.923573353492430E+05,      /* I = 53 */
(PID.TID 0000.0001)                 2.872589691757398E+05,      /* I = 54 */
(PID.TID 0000.0001)                 2.809869621221908E+05,      /* I = 55 */
(PID.TID 0000.0001)                 2.734999039571499E+05,      /* I = 56 */
(PID.TID 0000.0001)                 2.647301290465471E+05,      /* I = 57 */
(PID.TID 0000.0001)                 2.545689482926672E+05,      /* I = 58 */
(PID.TID 0000.0001)                 2.428421011082736E+05,      /* I = 59 */
(PID.TID 0000.0001)                 2.292657670664826E+05,      /* I = 60 */
(PID.TID 0000.0001)                 2.133596519724930E+05,      /* I = 61 */
(PID.TID 0000.0001)                 1.942512285132079E+05,      /* I = 62 */
(PID.TID 0000.0001)                 1.701434472301228E+05,      /* I = 63 */
(PID.TID 0000.0001)                 1.363686624762857E+05,      /* I = 64 */
(PID.TID 0000.0001)                 8.015229982404485E+04,      /* I = 65 */
(PID.TID 0000.0001)                 1.363686624762857E+05,      /* I = 66 */
(PID.TID 0000.0001)                 1.701434472301228E+05,      /* I = 67 */
(PID.TID 0000.0001)                 1.942512285132079E+05,      /* I = 68 */
(PID.TID 0000.0001)                 2.133596519724930E+05,      /* I = 69 */
(PID.TID 0000.0001)                 2.292657670664826E+05,      /* I = 70 */
(PID.TID 0000.0001)                 2.428421011082736E+05,      /* I = 71 */
(PID.TID 0000.0001)                 2.545689482926672E+05,      /* I = 72 */
(PID.TID 0000.0001)                 2.647301290465471E+05,      /* I = 73 */
(PID.TID 0000.0001)                 2.734999039571499E+05,      /* I = 74 */
(PID.TID 0000.0001)                 2.809869621221908E+05,      /* I = 75 */
(PID.TID 0000.0001)                 2.872589691757398E+05,      /* I = 76 */
(PID.TID 0000.0001)                 2.923573353492430E+05,      /* I = 77 */
(PID.TID 0000.0001)                 2.963066114700798E+05,      /* I = 78 */
(PID.TID 0000.0001)                 2.991206817612058E+05,      /* I = 79 */
(PID.TID 0000.0001)                 3.008068781660835E+05,      /* I = 80 */
(PID.TID 0000.0001)                 3.013686170437830E+05,      /* I = 81 */
(PID.TID 0000.0001)                 3.008068781660835E+05,      /* I = 82 */
(PID.TID 0000.0001)                 2.991206817612058E+05,      /* I = 83 */
(PID.TID 0000.0001)                 2.963066114700798E+05,      /* I = 84 */
(PID.TID 0000.0001)                 2.923573353492430E+05,      /* I = 85 */
(PID.TID 0000.0001)                 2.872589691757398E+05,      /* I = 86 */
(PID.TID 0000.0001)                 2.809869621221908E+05,      /* I = 87 */
(PID.TID 0000.0001)                 2.734999039571499E+05,      /* I = 88 */
(PID.TID 0000.0001)                 2.647301290465471E+05,      /* I = 89 */
(PID.TID 0000.0001)                 2.545689482926672E+05,      /* I = 90 */
(PID.TID 0000.0001)                 2.428421011082736E+05,      /* I = 91 */
(PID.TID 0000.0001)                 2.292657670664826E+05,      /* I = 92 */
(PID.TID 0000.0001)                 2.133596519724930E+05,      /* I = 93 */
(PID.TID 0000.0001)                 1.942512285132079E+05,      /* I = 94 */
(PID.TID 0000.0001)                 1.701434472301228E+05,      /* I = 95 */
(PID.TID 0000.0001)                 1.363686624762857E+05,      /* I = 96 */
(PID.TID 0000.0001)                 8.015229982404485E+04,      /* I = 97 */
(PID.TID 0000.0001)                 1.363686624762857E+05,      /* I = 98 */
(PID.TID 0000.0001)                 1.701434472301228E+05,      /* I = 99 */
(PID.TID 0000.0001)                 1.942512285132079E+05,      /* I =100 */
(PID.TID 0000.0001)                 2.133596519724930E+05,      /* I =101 */
(PID.TID 0000.0001)                 2.292657670664826E+05,      /* I =102 */
(PID.TID 0000.0001)                 2.428421011082736E+05,      /* I =103 */
(PID.TID 0000.0001)                 2.545689482926672E+05,      /* I =104 */
(PID.TID 0000.0001)                 2.647301290465471E+05,      /* I =105 */
(PID.TID 0000.0001)                 2.734999039571499E+05,      /* I =106 */
(PID.TID 0000.0001)                 2.809869621221908E+05,      /* I =107 */
(PID.TID 0000.0001)                 2.872589691757398E+05,      /* I =108 */
(PID.TID 0000.0001)                 2.923573353492430E+05,      /* I =109 */
(PID.TID 0000.0001)                 2.963066114700798E+05,      /* I =110 */
(PID.TID 0000.0001)                 2.991206817612058E+05,      /* I =111 */
(PID.TID 0000.0001)                 3.008068781660835E+05,      /* I =112 */
(PID.TID 0000.0001)                 3.013686170437830E+05,      /* I =113 */
(PID.TID 0000.0001)                 3.008068781660835E+05,      /* I =114 */
(PID.TID 0000.0001)                 2.991206817612058E+05,      /* I =115 */
(PID.TID 0000.0001)                 2.963066114700798E+05,      /* I =116 */
(PID.TID 0000.0001)                 2.923573353492430E+05,      /* I =117 */
(PID.TID 0000.0001)                 2.872589691757398E+05,      /* I =118 */
(PID.TID 0000.0001)                 2.809869621221908E+05,      /* I =119 */
(PID.TID 0000.0001)                 2.734999039571499E+05,      /* I =120 */
(PID.TID 0000.0001)                 2.647301290465471E+05,      /* I =121 */
(PID.TID 0000.0001)                 2.545689482926672E+05,      /* I =122 */
(PID.TID 0000.0001)                 2.428421011082736E+05,      /* I =123 */
(PID.TID 0000.0001)                 2.292657670664826E+05,      /* I =124 */
(PID.TID 0000.0001)                 2.133596519724930E+05,      /* I =125 */
(PID.TID 0000.0001)                 1.942512285132079E+05,      /* I =126 */
(PID.TID 0000.0001)                 1.701434472301228E+05,      /* I =127 */
(PID.TID 0000.0001)                 1.363686624762857E+05,      /* I =128 */
(PID.TID 0000.0001)                 8.015229982404485E+04,      /* I =129 */
(PID.TID 0000.0001)                 1.363686624762857E+05,      /* I =130 */
(PID.TID 0000.0001)                 1.701434472301228E+05,      /* I =131 */
(PID.TID 0000.0001)                 1.942512285132079E+05,      /* I =132 */
(PID.TID 0000.0001)                 2.133596519724930E+05,      /* I =133 */
(PID.TID 0000.0001)                 2.292657670664826E+05,      /* I =134 */
(PID.TID 0000.0001)                 2.428421011082736E+05,      /* I =135 */
(PID.TID 0000.0001)                 2.545689482926672E+05,      /* I =136 */
(PID.TID 0000.0001)                 2.647301290465471E+05,      /* I =137 */
(PID.TID 0000.0001)                 2.734999039571499E+05,      /* I =138 */
(PID.TID 0000.0001)                 2.809869621221908E+05,      /* I =139 */
(PID.TID 0000.0001)                 2.872589691757398E+05,      /* I =140 */
(PID.TID 0000.0001)                 2.923573353492430E+05,      /* I =141 */
(PID.TID 0000.0001)                 2.963066114700798E+05,      /* I =142 */
(PID.TID 0000.0001)                 2.991206817612058E+05,      /* I =143 */
(PID.TID 0000.0001)                 3.008068781660835E+05,      /* I =144 */
(PID.TID 0000.0001)                 3.013686170437830E+05,      /* I =145 */
(PID.TID 0000.0001)                 3.008068781660835E+05,      /* I =146 */
(PID.TID 0000.0001)                 2.991206817612058E+05,      /* I =147 */
(PID.TID 0000.0001)                 2.963066114700798E+05,      /* I =148 */
(PID.TID 0000.0001)                 2.923573353492430E+05,      /* I =149 */
(PID.TID 0000.0001)                 2.872589691757398E+05,      /* I =150 */
(PID.TID 0000.0001)                 2.809869621221908E+05,      /* I =151 */
(PID.TID 0000.0001)                 2.734999039571499E+05,      /* I =152 */
(PID.TID 0000.0001)                 2.647301290465471E+05,      /* I =153 */
(PID.TID 0000.0001)                 2.545689482926672E+05,      /* I =154 */
(PID.TID 0000.0001)                 2.428421011082736E+05,      /* I =155 */
(PID.TID 0000.0001)                 2.292657670664826E+05,      /* I =156 */
(PID.TID 0000.0001)                 2.133596519724930E+05,      /* I =157 */
(PID.TID 0000.0001)                 1.942512285132079E+05,      /* I =158 */
(PID.TID 0000.0001)                 1.701434472301228E+05,      /* I =159 */
(PID.TID 0000.0001)                 1.363686624762857E+05,      /* I =160 */
(PID.TID 0000.0001)                 8.015229982404485E+04,      /* I =161 */
(PID.TID 0000.0001)                 1.363686624762857E+05,      /* I =162 */
(PID.TID 0000.0001)                 1.701434472301228E+05,      /* I =163 */
(PID.TID 0000.0001)                 1.942512285132079E+05,      /* I =164 */
(PID.TID 0000.0001)                 2.133596519724930E+05,      /* I =165 */
(PID.TID 0000.0001)                 2.292657670664826E+05,      /* I =166 */
(PID.TID 0000.0001)                 2.428421011082736E+05,      /* I =167 */
(PID.TID 0000.0001)                 2.545689482926672E+05,      /* I =168 */
(PID.TID 0000.0001)                 2.647301290465471E+05,      /* I =169 */
(PID.TID 0000.0001)                 2.734999039571499E+05,      /* I =170 */
(PID.TID 0000.0001)                 2.809869621221908E+05,      /* I =171 */
(PID.TID 0000.0001)                 2.872589691757398E+05,      /* I =172 */
(PID.TID 0000.0001)                 2.923573353492430E+05,      /* I =173 */
(PID.TID 0000.0001)                 2.963066114700798E+05,      /* I =174 */
(PID.TID 0000.0001)                 2.991206817612058E+05,      /* I =175 */
(PID.TID 0000.0001)                 3.008068781660835E+05,      /* I =176 */
(PID.TID 0000.0001)                 3.013686170437830E+05,      /* I =177 */
(PID.TID 0000.0001)                 3.008068781660835E+05,      /* I =178 */
(PID.TID 0000.0001)                 2.991206817612058E+05,      /* I =179 */
(PID.TID 0000.0001)                 2.963066114700798E+05,      /* I =180 */
(PID.TID 0000.0001)                 2.923573353492430E+05,      /* I =181 */
(PID.TID 0000.0001)                 2.872589691757398E+05,      /* I =182 */
(PID.TID 0000.0001)                 2.809869621221908E+05,      /* I =183 */
(PID.TID 0000.0001)                 2.734999039571499E+05,      /* I =184 */
(PID.TID 0000.0001)                 2.647301290465471E+05,      /* I =185 */
(PID.TID 0000.0001)                 2.545689482926672E+05,      /* I =186 */
(PID.TID 0000.0001)                 2.428421011082736E+05,      /* I =187 */
(PID.TID 0000.0001)                 2.292657670664826E+05,      /* I =188 */
(PID.TID 0000.0001)                 2.133596519724930E+05,      /* I =189 */
(PID.TID 0000.0001)                 1.942512285132079E+05,      /* I =190 */
(PID.TID 0000.0001)                 1.701434472301228E+05,      /* I =191 */
(PID.TID 0000.0001)                 1.363686624762857E+05       /* I =192 */
(PID.TID 0000.0001)     ;
(PID.TID 0000.0001) dyU =  /* dyU(1,:,1,:) ( m - cartesian, degrees - spherical ) */
(PID.TID 0000.0001)                 8.015229982404485E+04,      /* J =  1 */
(PID.TID 0000.0001)                 1.333130744932167E+05,      /* J =  2 */
(PID.TID 0000.0001)                 1.691744868125388E+05,      /* J =  3 */
(PID.TID 0000.0001)                 1.937548202845808E+05,      /* J =  4 */
(PID.TID 0000.0001)                 2.130490056266232E+05,      /* J =  5 */
(PID.TID 0000.0001)                 2.290479919482170E+05,      /* J =  6 */
(PID.TID 0000.0001)                 2.426774358027187E+05,      /* J =  7 */
(PID.TID 0000.0001)                 2.544372984218245E+05,      /* J =  8 */
(PID.TID 0000.0001)                 2.646201463833409E+05,      /* J =  9 */
(PID.TID 0000.0001)                 2.734046499617742E+05,      /* J = 10 */
(PID.TID 0000.0001)                 2.809019351693248E+05,      /* J = 11 */
(PID.TID 0000.0001)                 2.871811105272531E+05,      /* J = 12 */
(PID.TID 0000.0001)                 2.922844849381013E+05,      /* J = 13 */
(PID.TID 0000.0001)                 2.962371870845711E+05,      /* J = 14 */
(PID.TID 0000.0001)                 2.990534755671846E+05,      /* J = 15 */
(PID.TID 0000.0001)                 3.007409169495762E+05,      /* J = 16 */
(PID.TID 0000.0001)                 3.013031486921958E+05,      /* J = 17 */
(PID.TID 0000.0001)                 3.007409169495762E+05,      /* J = 18 */
(PID.TID 0000.0001)                 2.990534755671846E+05,      /* J = 19 */
(PID.TID 0000.0001)                 2.962371870845711E+05,      /* J = 20 */
(PID.TID 0000.0001)                 2.922844849381013E+05,      /* J = 21 */
(PID.TID 0000.0001)                 2.871811105272531E+05,      /* J = 22 */
(PID.TID 0000.0001)                 2.809019351693248E+05,      /* J = 23 */
(PID.TID 0000.0001)                 2.734046499617742E+05,      /* J = 24 */
(PID.TID 0000.0001)                 2.646201463833409E+05,      /* J = 25 */
(PID.TID 0000.0001)                 2.544372984218245E+05,      /* J = 26 */
(PID.TID 0000.0001)                 2.426774358027187E+05,      /* J = 27 */
(PID.TID 0000.0001)                 2.290479919482170E+05,      /* J = 28 */
(PID.TID 0000.0001)                 2.130490056266232E+05,      /* J = 29 */
(PID.TID 0000.0001)                 1.937548202845808E+05,      /* J = 30 */
(PID.TID 0000.0001)                 1.691744868125388E+05,      /* J = 31 */
(PID.TID 0000.0001)                 1.333130744932167E+05       /* J = 32 */
(PID.TID 0000.0001)     ;
(PID.TID 0000.0001) rA =  /* rA(:,1,:,1) ( m - cartesian, degrees - spherical ) */
(PID.TID 0000.0001)                 1.483193709397766E+10,      /* I =  1 */
(PID.TID 0000.0001)                 2.476789293979550E+10,      /* I =  2 */
(PID.TID 0000.0001)                 3.387112505847638E+10,      /* I =  3 */
(PID.TID 0000.0001)                 4.197302689155780E+10,      /* I =  4 */
(PID.TID 0000.0001)                 4.929378289714742E+10,      /* I =  5 */
(PID.TID 0000.0001)                 5.596406977246146E+10,      /* I =  6 */
(PID.TID 0000.0001)                 6.205077247510580E+10,      /* I =  7 */
(PID.TID 0000.0001)                 6.758266883915286E+10,      /* I =  8 */
(PID.TID 0000.0001)                 7.256536165779025E+10,      /* I =  9 */
(PID.TID 0000.0001)                 7.699024655653084E+10,      /* I = 10 */
(PID.TID 0000.0001)                 8.084038186855891E+10,      /* I = 11 */
(PID.TID 0000.0001)                 8.409466866853806E+10,      /* I = 12 */
(PID.TID 0000.0001)                 8.673102186020337E+10,      /* I = 13 */
(PID.TID 0000.0001)                 8.872885597085371E+10,      /* I = 14 */
(PID.TID 0000.0001)                 9.007102933895001E+10,      /* I = 15 */
(PID.TID 0000.0001)     2 @  9.074531328717996E+10,             /* I = 16: 17 */
(PID.TID 0000.0001)                 9.007102933895001E+10,      /* I = 18 */
(PID.TID 0000.0001)                 8.872885597085371E+10,      /* I = 19 */
(PID.TID 0000.0001)                 8.673102186020337E+10,      /* I = 20 */
(PID.TID 0000.0001)                 8.409466866853806E+10,      /* I = 21 */
(PID.TID 0000.0001)                 8.084038186855891E+10,      /* I = 22 */
(PID.TID 0000.0001)                 7.699024655653084E+10,      /* I = 23 */
(PID.TID 0000.0001)                 7.256536165779025E+10,      /* I = 24 */
(PID.TID 0000.0001)                 6.758266883915286E+10,      /* I = 25 */
(PID.TID 0000.0001)                 6.205077247510580E+10,      /* I = 26 */
(PID.TID 0000.0001)                 5.596406977246146E+10,      /* I = 27 */
(PID.TID 0000.0001)                 4.929378289714742E+10,      /* I = 28 */
(PID.TID 0000.0001)                 4.197302689155780E+10,      /* I = 29 */
(PID.TID 0000.0001)                 3.387112505847638E+10,      /* I = 30 */
(PID.TID 0000.0001)                 2.476789293979550E+10,      /* I = 31 */
(PID.TID 0000.0001)     2 @  1.483193709397766E+10,             /* I = 32: 33 */
(PID.TID 0000.0001)                 2.476789293979550E+10,      /* I = 34 */
(PID.TID 0000.0001)                 3.387112505847638E+10,      /* I = 35 */
(PID.TID 0000.0001)                 4.197302689155780E+10,      /* I = 36 */
(PID.TID 0000.0001)                 4.929378289714742E+10,      /* I = 37 */
(PID.TID 0000.0001)                 5.596406977246146E+10,      /* I = 38 */
(PID.TID 0000.0001)                 6.205077247510580E+10,      /* I = 39 */
(PID.TID 0000.0001)                 6.758266883915286E+10,      /* I = 40 */
(PID.TID 0000.0001)                 7.256536165779025E+10,      /* I = 41 */
(PID.TID 0000.0001)                 7.699024655653084E+10,      /* I = 42 */
(PID.TID 0000.0001)                 8.084038186855891E+10,      /* I = 43 */
(PID.TID 0000.0001)                 8.409466866853806E+10,      /* I = 44 */
(PID.TID 0000.0001)                 8.673102186020337E+10,      /* I = 45 */
(PID.TID 0000.0001)                 8.872885597085371E+10,      /* I = 46 */
(PID.TID 0000.0001)                 9.007102933895001E+10,      /* I = 47 */
(PID.TID 0000.0001)     2 @  9.074531328717996E+10,             /* I = 48: 49 */
(PID.TID 0000.0001)                 9.007102933895001E+10,      /* I = 50 */
(PID.TID 0000.0001)                 8.872885597085371E+10,      /* I = 51 */
(PID.TID 0000.0001)                 8.673102186020337E+10,      /* I = 52 */
(PID.TID 0000.0001)                 8.409466866853806E+10,      /* I = 53 */
(PID.TID 0000.0001)                 8.084038186855891E+10,      /* I = 54 */
(PID.TID 0000.0001)                 7.699024655653084E+10,      /* I = 55 */
(PID.TID 0000.0001)                 7.256536165779025E+10,      /* I = 56 */
(PID.TID 0000.0001)                 6.758266883915286E+10,      /* I = 57 */
(PID.TID 0000.0001)                 6.205077247510580E+10,      /* I = 58 */
(PID.TID 0000.0001)                 5.596406977246146E+10,      /* I = 59 */
(PID.TID 0000.0001)                 4.929378289714742E+10,      /* I = 60 */
(PID.TID 0000.0001)                 4.197302689155780E+10,      /* I = 61 */
(PID.TID 0000.0001)                 3.387112505847638E+10,      /* I = 62 */
(PID.TID 0000.0001)                 2.476789293979550E+10,      /* I = 63 */
(PID.TID 0000.0001)     2 @  1.483193709397766E+10,             /* I = 64: 65 */
(PID.TID 0000.0001)                 2.476789293979550E+10,      /* I = 66 */
(PID.TID 0000.0001)                 3.387112505847638E+10,      /* I = 67 */
(PID.TID 0000.0001)                 4.197302689155780E+10,      /* I = 68 */
(PID.TID 0000.0001)                 4.929378289714742E+10,      /* I = 69 */
(PID.TID 0000.0001)                 5.596406977246146E+10,      /* I = 70 */
(PID.TID 0000.0001)                 6.205077247510580E+10,      /* I = 71 */
(PID.TID 0000.0001)                 6.758266883915286E+10,      /* I = 72 */
(PID.TID 0000.0001)                 7.256536165779025E+10,      /* I = 73 */
(PID.TID 0000.0001)                 7.699024655653084E+10,      /* I = 74 */
(PID.TID 0000.0001)                 8.084038186855891E+10,      /* I = 75 */
(PID.TID 0000.0001)                 8.409466866853806E+10,      /* I = 76 */
(PID.TID 0000.0001)                 8.673102186020337E+10,      /* I = 77 */
(PID.TID 0000.0001)                 8.872885597085371E+10,      /* I = 78 */
(PID.TID 0000.0001)                 9.007102933895001E+10,      /* I = 79 */
(PID.TID 0000.0001)     2 @  9.074531328717996E+10,             /* I = 80: 81 */
(PID.TID 0000.0001)                 9.007102933895001E+10,      /* I = 82 */
(PID.TID 0000.0001)                 8.872885597085371E+10,      /* I = 83 */
(PID.TID 0000.0001)                 8.673102186020337E+10,      /* I = 84 */
(PID.TID 0000.0001)                 8.409466866853806E+10,      /* I = 85 */
(PID.TID 0000.0001)                 8.084038186855891E+10,      /* I = 86 */
(PID.TID 0000.0001)                 7.699024655653084E+10,      /* I = 87 */
(PID.TID 0000.0001)                 7.256536165779025E+10,      /* I = 88 */
(PID.TID 0000.0001)                 6.758266883915286E+10,      /* I = 89 */
(PID.TID 0000.0001)                 6.205077247510580E+10,      /* I = 90 */
(PID.TID 0000.0001)                 5.596406977246146E+10,      /* I = 91 */
(PID.TID 0000.0001)                 4.929378289714742E+10,      /* I = 92 */
(PID.TID 0000.0001)                 4.197302689155780E+10,      /* I = 93 */
(PID.TID 0000.0001)                 3.387112505847638E+10,      /* I = 94 */
(PID.TID 0000.0001)                 2.476789293979550E+10,      /* I = 95 */
(PID.TID 0000.0001)     2 @  1.483193709397766E+10,             /* I = 96: 97 */
(PID.TID 0000.0001)                 2.476789293979550E+10,      /* I = 98 */
(PID.TID 0000.0001)                 3.387112505847638E+10,      /* I = 99 */
(PID.TID 0000.0001)                 4.197302689155780E+10,      /* I =100 */
(PID.TID 0000.0001)                 4.929378289714742E+10,      /* I =101 */
(PID.TID 0000.0001)                 5.596406977246146E+10,      /* I =102 */
(PID.TID 0000.0001)                 6.205077247510580E+10,      /* I =103 */
(PID.TID 0000.0001)                 6.758266883915286E+10,      /* I =104 */
(PID.TID 0000.0001)                 7.256536165779025E+10,      /* I =105 */
(PID.TID 0000.0001)                 7.699024655653084E+10,      /* I =106 */
(PID.TID 0000.0001)                 8.084038186855891E+10,      /* I =107 */
(PID.TID 0000.0001)                 8.409466866853806E+10,      /* I =108 */
(PID.TID 0000.0001)                 8.673102186020337E+10,      /* I =109 */
(PID.TID 0000.0001)                 8.872885597085371E+10,      /* I =110 */
(PID.TID 0000.0001)                 9.007102933895001E+10,      /* I =111 */
(PID.TID 0000.0001)     2 @  9.074531328717996E+10,             /* I =112:113 */
(PID.TID 0000.0001)                 9.007102933895001E+10,      /* I =114 */
(PID.TID 0000.0001)                 8.872885597085371E+10,      /* I =115 */
(PID.TID 0000.0001)                 8.673102186020337E+10,      /* I =116 */
(PID.TID 0000.0001)                 8.409466866853806E+10,      /* I =117 */
(PID.TID 0000.0001)                 8.084038186855891E+10,      /* I =118 */
(PID.TID 0000.0001)                 7.699024655653084E+10,      /* I =119 */
(PID.TID 0000.0001)                 7.256536165779025E+10,      /* I =120 */
(PID.TID 0000.0001)                 6.758266883915286E+10,      /* I =121 */
(PID.TID 0000.0001)                 6.205077247510580E+10,      /* I =122 */
(PID.TID 0000.0001)                 5.596406977246146E+10,      /* I =123 */
(PID.TID 0000.0001)                 4.929378289714742E+10,      /* I =124 */
(PID.TID 0000.0001)                 4.197302689155780E+10,      /* I =125 */
(PID.TID 0000.0001)                 3.387112505847638E+10,      /* I =126 */
(PID.TID 0000.0001)                 2.476789293979550E+10,      /* I =127 */
(PID.TID 0000.0001)     2 @  1.483193709397766E+10,             /* I =128:129 */
(PID.TID 0000.0001)                 2.476789293979550E+10,      /* I =130 */
(PID.TID 0000.0001)                 3.387112505847638E+10,      /* I =131 */
(PID.TID 0000.0001)                 4.197302689155780E+10,      /* I =132 */
(PID.TID 0000.0001)                 4.929378289714742E+10,      /* I =133 */
(PID.TID 0000.0001)                 5.596406977246146E+10,      /* I =134 */
(PID.TID 0000.0001)                 6.205077247510580E+10,      /* I =135 */
(PID.TID 0000.0001)                 6.758266883915286E+10,      /* I =136 */
(PID.TID 0000.0001)                 7.256536165779025E+10,      /* I =137 */
(PID.TID 0000.0001)                 7.699024655653084E+10,      /* I =138 */
(PID.TID 0000.0001)                 8.084038186855891E+10,      /* I =139 */
(PID.TID 0000.0001)                 8.409466866853806E+10,      /* I =140 */
(PID.TID 0000.0001)                 8.673102186020337E+10,      /* I =141 */
(PID.TID 0000.0001)                 8.872885597085371E+10,      /* I =142 */
(PID.TID 0000.0001)                 9.007102933895001E+10,      /* I =143 */
(PID.TID 0000.0001)     2 @  9.074531328717996E+10,             /* I =144:145 */
(PID.TID 0000.0001)                 9.007102933895001E+10,      /* I =146 */
(PID.TID 0000.0001)                 8.872885597085371E+10,      /* I =147 */
(PID.TID 0000.0001)                 8.673102186020337E+10,      /* I =148 */
(PID.TID 0000.0001)                 8.409466866853806E+10,      /* I =149 */
(PID.TID 0000.0001)                 8.084038186855891E+10,      /* I =150 */
(PID.TID 0000.0001)                 7.699024655653084E+10,      /* I =151 */
(PID.TID 0000.0001)                 7.256536165779025E+10,      /* I =152 */
(PID.TID 0000.0001)                 6.758266883915286E+10,      /* I =153 */
(PID.TID 0000.0001)                 6.205077247510580E+10,      /* I =154 */
(PID.TID 0000.0001)                 5.596406977246146E+10,      /* I =155 */
(PID.TID 0000.0001)                 4.929378289714742E+10,      /* I =156 */
(PID.TID 0000.0001)                 4.197302689155780E+10,      /* I =157 */
(PID.TID 0000.0001)                 3.387112505847638E+10,      /* I =158 */
(PID.TID 0000.0001)                 2.476789293979550E+10,      /* I =159 */
(PID.TID 0000.0001)     2 @  1.483193709397766E+10,             /* I =160:161 */
(PID.TID 0000.0001)                 2.476789293979550E+10,      /* I =162 */
(PID.TID 0000.0001)                 3.387112505847638E+10,      /* I =163 */
(PID.TID 0000.0001)                 4.197302689155780E+10,      /* I =164 */
(PID.TID 0000.0001)                 4.929378289714742E+10,      /* I =165 */
(PID.TID 0000.0001)                 5.596406977246146E+10,      /* I =166 */
(PID.TID 0000.0001)                 6.205077247510580E+10,      /* I =167 */
(PID.TID 0000.0001)                 6.758266883915286E+10,      /* I =168 */
(PID.TID 0000.0001)                 7.256536165779025E+10,      /* I =169 */
(PID.TID 0000.0001)                 7.699024655653084E+10,      /* I =170 */
(PID.TID 0000.0001)                 8.084038186855891E+10,      /* I =171 */
(PID.TID 0000.0001)                 8.409466866853806E+10,      /* I =172 */
(PID.TID 0000.0001)                 8.673102186020337E+10,      /* I =173 */
(PID.TID 0000.0001)                 8.872885597085371E+10,      /* I =174 */
(PID.TID 0000.0001)                 9.007102933895001E+10,      /* I =175 */
(PID.TID 0000.0001)     2 @  9.074531328717996E+10,             /* I =176:177 */
(PID.TID 0000.0001)                 9.007102933895001E+10,      /* I =178 */
(PID.TID 0000.0001)                 8.872885597085371E+10,      /* I =179 */
(PID.TID 0000.0001)                 8.673102186020337E+10,      /* I =180 */
(PID.TID 0000.0001)                 8.409466866853806E+10,      /* I =181 */
(PID.TID 0000.0001)                 8.084038186855891E+10,      /* I =182 */
(PID.TID 0000.0001)                 7.699024655653084E+10,      /* I =183 */
(PID.TID 0000.0001)                 7.256536165779025E+10,      /* I =184 */
(PID.TID 0000.0001)                 6.758266883915286E+10,      /* I =185 */
(PID.TID 0000.0001)                 6.205077247510580E+10,      /* I =186 */
(PID.TID 0000.0001)                 5.596406977246146E+10,      /* I =187 */
(PID.TID 0000.0001)                 4.929378289714742E+10,      /* I =188 */
(PID.TID 0000.0001)                 4.197302689155780E+10,      /* I =189 */
(PID.TID 0000.0001)                 3.387112505847638E+10,      /* I =190 */
(PID.TID 0000.0001)                 2.476789293979550E+10,      /* I =191 */
(PID.TID 0000.0001)                 1.483193709397766E+10       /* I =192 */
(PID.TID 0000.0001)     ;
(PID.TID 0000.0001) rA =  /* rA(1,:,1,:) ( m - cartesian, degrees - spherical ) */
(PID.TID 0000.0001)                 1.483193709397766E+10,      /* J =  1 */
(PID.TID 0000.0001)                 2.476789293979550E+10,      /* J =  2 */
(PID.TID 0000.0001)                 3.387112505847638E+10,      /* J =  3 */
(PID.TID 0000.0001)                 4.197302689155780E+10,      /* J =  4 */
(PID.TID 0000.0001)                 4.929378289714742E+10,      /* J =  5 */
(PID.TID 0000.0001)                 5.596406977246146E+10,      /* J =  6 */
(PID.TID 0000.0001)                 6.205077247510580E+10,      /* J =  7 */
(PID.TID 0000.0001)                 6.758266883915286E+10,      /* J =  8 */
(PID.TID 0000.0001)                 7.256536165779025E+10,      /* J =  9 */
(PID.TID 0000.0001)                 7.699024655653084E+10,      /* J = 10 */
(PID.TID 0000.0001)                 8.084038186855891E+10,      /* J = 11 */
(PID.TID 0000.0001)                 8.409466866853806E+10,      /* J = 12 */
(PID.TID 0000.0001)                 8.673102186020337E+10,      /* J = 13 */
(PID.TID 0000.0001)                 8.872885597085371E+10,      /* J = 14 */
(PID.TID 0000.0001)                 9.007102933895001E+10,      /* J = 15 */
(PID.TID 0000.0001)     2 @  9.074531328717996E+10,             /* J = 16: 17 */
(PID.TID 0000.0001)                 9.007102933895001E+10,      /* J = 18 */
(PID.TID 0000.0001)                 8.872885597085371E+10,      /* J = 19 */
(PID.TID 0000.0001)                 8.673102186020337E+10,      /* J = 20 */
(PID.TID 0000.0001)                 8.409466866853806E+10,      /* J = 21 */
(PID.TID 0000.0001)                 8.084038186855891E+10,      /* J = 22 */
(PID.TID 0000.0001)                 7.699024655653084E+10,      /* J = 23 */
(PID.TID 0000.0001)                 7.256536165779025E+10,      /* J = 24 */
(PID.TID 0000.0001)                 6.758266883915286E+10,      /* J = 25 */
(PID.TID 0000.0001)                 6.205077247510580E+10,      /* J = 26 */
(PID.TID 0000.0001)                 5.596406977246146E+10,      /* J = 27 */
(PID.TID 0000.0001)                 4.929378289714742E+10,      /* J = 28 */
(PID.TID 0000.0001)                 4.197302689155780E+10,      /* J = 29 */
(PID.TID 0000.0001)                 3.387112505847638E+10,      /* J = 30 */
(PID.TID 0000.0001)                 2.476789293979550E+10,      /* J = 31 */
(PID.TID 0000.0001)                 1.483193709397766E+10       /* J = 32 */
(PID.TID 0000.0001)     ;
(PID.TID 0000.0001) rAw =  /* rAw(:,1,:,1) ( m - cartesian, degrees - spherical ) */
(PID.TID 0000.0001)                 1.241518061276850E+10,      /* I =  1 */
(PID.TID 0000.0001)                 1.979784032141267E+10,      /* I =  2 */
(PID.TID 0000.0001)                 2.946081672068642E+10,      /* I =  3 */
(PID.TID 0000.0001)                 3.803135270871054E+10,      /* I =  4 */
(PID.TID 0000.0001)                 4.572098922333179E+10,      /* I =  5 */
(PID.TID 0000.0001)                 5.270492648776427E+10,      /* I =  6 */
(PID.TID 0000.0001)                 5.907789136457927E+10,      /* I =  7 */
(PID.TID 0000.0001)                 6.488530324370350E+10,      /* I =  8 */
(PID.TID 0000.0001)                 7.014294990279657E+10,      /* I =  9 */
(PID.TID 0000.0001)                 7.484844860455585E+10,      /* I = 10 */
(PID.TID 0000.0001)                 7.898842019812308E+10,      /* I = 11 */
(PID.TID 0000.0001)                 8.254339553226024E+10,      /* I = 12 */
(PID.TID 0000.0001)                 8.549143393905247E+10,      /* I = 13 */
(PID.TID 0000.0001)                 8.781092525894122E+10,      /* I = 14 */
(PID.TID 0000.0001)                 8.948279401613618E+10,      /* I = 15 */
(PID.TID 0000.0001)                 9.049219610247414E+10,      /* I = 16 */
(PID.TID 0000.0001)                 9.082976249073500E+10,      /* I = 17 */
(PID.TID 0000.0001)                 9.049219610247414E+10,      /* I = 18 */
(PID.TID 0000.0001)                 8.948279401613618E+10,      /* I = 19 */
(PID.TID 0000.0001)                 8.781092525894122E+10,      /* I = 20 */
(PID.TID 0000.0001)                 8.549143393905247E+10,      /* I = 21 */
(PID.TID 0000.0001)                 8.254339553226024E+10,      /* I = 22 */
(PID.TID 0000.0001)                 7.898842019812308E+10,      /* I = 23 */
(PID.TID 0000.0001)                 7.484844860455585E+10,      /* I = 24 */
(PID.TID 0000.0001)                 7.014294990279657E+10,      /* I = 25 */
(PID.TID 0000.0001)                 6.488530324370350E+10,      /* I = 26 */
(PID.TID 0000.0001)                 5.907789136457927E+10,      /* I = 27 */
(PID.TID 0000.0001)                 5.270492648776427E+10,      /* I = 28 */
(PID.TID 0000.0001)                 4.572098922333179E+10,      /* I = 29 */
(PID.TID 0000.0001)                 3.803135270871054E+10,      /* I = 30 */
(PID.TID 0000.0001)                 2.946081672068642E+10,      /* I = 31 */
(PID.TID 0000.0001)                 1.979784032141267E+10,      /* I = 32 */
(PID.TID 0000.0001)                 1.241518061276850E+10,      /* I = 33 */
(PID.TID 0000.0001)                 1.979784032141267E+10,      /* I = 34 */
(PID.TID 0000.0001)                 2.946081672068642E+10,      /* I = 35 */
(PID.TID 0000.0001)                 3.803135270871054E+10,      /* I = 36 */
(PID.TID 0000.0001)                 4.572098922333179E+10,      /* I = 37 */
(PID.TID 0000.0001)                 5.270492648776427E+10,      /* I = 38 */
(PID.TID 0000.0001)                 5.907789136457927E+10,      /* I = 39 */
(PID.TID 0000.0001)                 6.488530324370350E+10,      /* I = 40 */
(PID.TID 0000.0001)                 7.014294990279657E+10,      /* I = 41 */
(PID.TID 0000.0001)                 7.484844860455585E+10,      /* I = 42 */
(PID.TID 0000.0001)                 7.898842019812308E+10,      /* I = 43 */
(PID.TID 0000.0001)                 8.254339553226024E+10,      /* I = 44 */
(PID.TID 0000.0001)                 8.549143393905247E+10,      /* I = 45 */
(PID.TID 0000.0001)                 8.781092525894122E+10,      /* I = 46 */
(PID.TID 0000.0001)                 8.948279401613618E+10,      /* I = 47 */
(PID.TID 0000.0001)                 9.049219610247414E+10,      /* I = 48 */
(PID.TID 0000.0001)                 9.082976249073500E+10,      /* I = 49 */
(PID.TID 0000.0001)                 9.049219610247414E+10,      /* I = 50 */
(PID.TID 0000.0001)                 8.948279401613618E+10,      /* I = 51 */
(PID.TID 0000.0001)                 8.781092525894122E+10,      /* I = 52 */
(PID.TID 0000.0001)                 8.549143393905247E+10,      /* I = 53 */
(PID.TID 0000.0001)                 8.254339553226024E+10,      /* I = 54 */
(PID.TID 0000.0001)                 7.898842019812308E+10,      /* I = 55 */
(PID.TID 0000.0001)                 7.484844860455585E+10,      /* I = 56 */
(PID.TID 0000.0001)                 7.014294990279657E+10,      /* I = 57 */
(PID.TID 0000.0001)                 6.488530324370350E+10,      /* I = 58 */
(PID.TID 0000.0001)                 5.907789136457927E+10,      /* I = 59 */
(PID.TID 0000.0001)                 5.270492648776427E+10,      /* I = 60 */
(PID.TID 0000.0001)                 4.572098922333179E+10,      /* I = 61 */
(PID.TID 0000.0001)                 3.803135270871054E+10,      /* I = 62 */
(PID.TID 0000.0001)                 2.946081672068642E+10,      /* I = 63 */
(PID.TID 0000.0001)                 1.979784032141267E+10,      /* I = 64 */
(PID.TID 0000.0001)                 1.241518061276850E+10,      /* I = 65 */
(PID.TID 0000.0001)                 1.979784032141267E+10,      /* I = 66 */
(PID.TID 0000.0001)                 2.946081672068642E+10,      /* I = 67 */
(PID.TID 0000.0001)                 3.803135270871054E+10,      /* I = 68 */
(PID.TID 0000.0001)                 4.572098922333179E+10,      /* I = 69 */
(PID.TID 0000.0001)                 5.270492648776427E+10,      /* I = 70 */
(PID.TID 0000.0001)                 5.907789136457927E+10,      /* I = 71 */
(PID.TID 0000.0001)                 6.488530324370350E+10,      /* I = 72 */
(PID.TID 0000.0001)                 7.014294990279657E+10,      /* I = 73 */
(PID.TID 0000.0001)                 7.484844860455585E+10,      /* I = 74 */
(PID.TID 0000.0001)                 7.898842019812308E+10,      /* I = 75 */
(PID.TID 0000.0001)                 8.254339553226024E+10,      /* I = 76 */
(PID.TID 0000.0001)                 8.549143393905247E+10,      /* I = 77 */
(PID.TID 0000.0001)                 8.781092525894122E+10,      /* I = 78 */
(PID.TID 0000.0001)                 8.948279401613618E+10,      /* I = 79 */
(PID.TID 0000.0001)                 9.049219610247414E+10,      /* I = 80 */
(PID.TID 0000.0001)                 9.082976249073500E+10,      /* I = 81 */
(PID.TID 0000.0001)                 9.049219610247414E+10,      /* I = 82 */
(PID.TID 0000.0001)                 8.948279401613618E+10,      /* I = 83 */
(PID.TID 0000.0001)                 8.781092525894122E+10,      /* I = 84 */
(PID.TID 0000.0001)                 8.549143393905247E+10,      /* I = 85 */
(PID.TID 0000.0001)                 8.254339553226024E+10,      /* I = 86 */
(PID.TID 0000.0001)                 7.898842019812308E+10,      /* I = 87 */
(PID.TID 0000.0001)                 7.484844860455585E+10,      /* I = 88 */
(PID.TID 0000.0001)                 7.014294990279657E+10,      /* I = 89 */
(PID.TID 0000.0001)                 6.488530324370350E+10,      /* I = 90 */
(PID.TID 0000.0001)                 5.907789136457927E+10,      /* I = 91 */
(PID.TID 0000.0001)                 5.270492648776427E+10,      /* I = 92 */
(PID.TID 0000.0001)                 4.572098922333179E+10,      /* I = 93 */
(PID.TID 0000.0001)                 3.803135270871054E+10,      /* I = 94 */
(PID.TID 0000.0001)                 2.946081672068642E+10,      /* I = 95 */
(PID.TID 0000.0001)                 1.979784032141267E+10,      /* I = 96 */
(PID.TID 0000.0001)                 1.241518061276850E+10,      /* I = 97 */
(PID.TID 0000.0001)                 1.979784032141267E+10,      /* I = 98 */
(PID.TID 0000.0001)                 2.946081672068642E+10,      /* I = 99 */
(PID.TID 0000.0001)                 3.803135270871054E+10,      /* I =100 */
(PID.TID 0000.0001)                 4.572098922333179E+10,      /* I =101 */
(PID.TID 0000.0001)                 5.270492648776427E+10,      /* I =102 */
(PID.TID 0000.0001)                 5.907789136457927E+10,      /* I =103 */
(PID.TID 0000.0001)                 6.488530324370350E+10,      /* I =104 */
(PID.TID 0000.0001)                 7.014294990279657E+10,      /* I =105 */
(PID.TID 0000.0001)                 7.484844860455585E+10,      /* I =106 */
(PID.TID 0000.0001)                 7.898842019812308E+10,      /* I =107 */
(PID.TID 0000.0001)                 8.254339553226024E+10,      /* I =108 */
(PID.TID 0000.0001)                 8.549143393905247E+10,      /* I =109 */
(PID.TID 0000.0001)                 8.781092525894122E+10,      /* I =110 */
(PID.TID 0000.0001)                 8.948279401613618E+10,      /* I =111 */
(PID.TID 0000.0001)                 9.049219610247414E+10,      /* I =112 */
(PID.TID 0000.0001)                 9.082976249073500E+10,      /* I =113 */
(PID.TID 0000.0001)                 9.049219610247414E+10,      /* I =114 */
(PID.TID 0000.0001)                 8.948279401613618E+10,      /* I =115 */
(PID.TID 0000.0001)                 8.781092525894122E+10,      /* I =116 */
(PID.TID 0000.0001)                 8.549143393905247E+10,      /* I =117 */
(PID.TID 0000.0001)                 8.254339553226024E+10,      /* I =118 */
(PID.TID 0000.0001)                 7.898842019812308E+10,      /* I =119 */
(PID.TID 0000.0001)                 7.484844860455585E+10,      /* I =120 */
(PID.TID 0000.0001)                 7.014294990279657E+10,      /* I =121 */
(PID.TID 0000.0001)                 6.488530324370350E+10,      /* I =122 */
(PID.TID 0000.0001)                 5.907789136457927E+10,      /* I =123 */
(PID.TID 0000.0001)                 5.270492648776427E+10,      /* I =124 */
(PID.TID 0000.0001)                 4.572098922333179E+10,      /* I =125 */
(PID.TID 0000.0001)                 3.803135270871054E+10,      /* I =126 */
(PID.TID 0000.0001)                 2.946081672068642E+10,      /* I =127 */
(PID.TID 0000.0001)                 1.979784032141267E+10,      /* I =128 */
(PID.TID 0000.0001)                 1.241518061276850E+10,      /* I =129 */
(PID.TID 0000.0001)                 1.979784032141267E+10,      /* I =130 */
(PID.TID 0000.0001)                 2.946081672068642E+10,      /* I =131 */
(PID.TID 0000.0001)                 3.803135270871054E+10,      /* I =132 */
(PID.TID 0000.0001)                 4.572098922333179E+10,      /* I =133 */
(PID.TID 0000.0001)                 5.270492648776427E+10,      /* I =134 */
(PID.TID 0000.0001)                 5.907789136457927E+10,      /* I =135 */
(PID.TID 0000.0001)                 6.488530324370350E+10,      /* I =136 */
(PID.TID 0000.0001)                 7.014294990279657E+10,      /* I =137 */
(PID.TID 0000.0001)                 7.484844860455585E+10,      /* I =138 */
(PID.TID 0000.0001)                 7.898842019812308E+10,      /* I =139 */
(PID.TID 0000.0001)                 8.254339553226024E+10,      /* I =140 */
(PID.TID 0000.0001)                 8.549143393905247E+10,      /* I =141 */
(PID.TID 0000.0001)                 8.781092525894122E+10,      /* I =142 */
(PID.TID 0000.0001)                 8.948279401613618E+10,      /* I =143 */
(PID.TID 0000.0001)                 9.049219610247414E+10,      /* I =144 */
(PID.TID 0000.0001)                 9.082976249073500E+10,      /* I =145 */
(PID.TID 0000.0001)                 9.049219610247414E+10,      /* I =146 */
(PID.TID 0000.0001)                 8.948279401613618E+10,      /* I =147 */
(PID.TID 0000.0001)                 8.781092525894122E+10,      /* I =148 */
(PID.TID 0000.0001)                 8.549143393905247E+10,      /* I =149 */
(PID.TID 0000.0001)                 8.254339553226024E+10,      /* I =150 */
(PID.TID 0000.0001)                 7.898842019812308E+10,      /* I =151 */
(PID.TID 0000.0001)                 7.484844860455585E+10,      /* I =152 */
(PID.TID 0000.0001)                 7.014294990279657E+10,      /* I =153 */
(PID.TID 0000.0001)                 6.488530324370350E+10,      /* I =154 */
(PID.TID 0000.0001)                 5.907789136457927E+10,      /* I =155 */
(PID.TID 0000.0001)                 5.270492648776427E+10,      /* I =156 */
(PID.TID 0000.0001)                 4.572098922333179E+10,      /* I =157 */
(PID.TID 0000.0001)                 3.803135270871054E+10,      /* I =158 */
(PID.TID 0000.0001)                 2.946081672068642E+10,      /* I =159 */
(PID.TID 0000.0001)                 1.979784032141267E+10,      /* I =160 */
(PID.TID 0000.0001)                 1.241518061276850E+10,      /* I =161 */
(PID.TID 0000.0001)                 1.979784032141267E+10,      /* I =162 */
(PID.TID 0000.0001)                 2.946081672068642E+10,      /* I =163 */
(PID.TID 0000.0001)                 3.803135270871054E+10,      /* I =164 */
(PID.TID 0000.0001)                 4.572098922333179E+10,      /* I =165 */
(PID.TID 0000.0001)                 5.270492648776427E+10,      /* I =166 */
(PID.TID 0000.0001)                 5.907789136457927E+10,      /* I =167 */
(PID.TID 0000.0001)                 6.488530324370350E+10,      /* I =168 */
(PID.TID 0000.0001)                 7.014294990279657E+10,      /* I =169 */
(PID.TID 0000.0001)                 7.484844860455585E+10,      /* I =170 */
(PID.TID 0000.0001)                 7.898842019812308E+10,      /* I =171 */
(PID.TID 0000.0001)                 8.254339553226024E+10,      /* I =172 */
(PID.TID 0000.0001)                 8.549143393905247E+10,      /* I =173 */
(PID.TID 0000.0001)                 8.781092525894122E+10,      /* I =174 */
(PID.TID 0000.0001)                 8.948279401613618E+10,      /* I =175 */
(PID.TID 0000.0001)                 9.049219610247414E+10,      /* I =176 */
(PID.TID 0000.0001)                 9.082976249073500E+10,      /* I =177 */
(PID.TID 0000.0001)                 9.049219610247414E+10,      /* I =178 */
(PID.TID 0000.0001)                 8.948279401613618E+10,      /* I =179 */
(PID.TID 0000.0001)                 8.781092525894122E+10,      /* I =180 */
(PID.TID 0000.0001)                 8.549143393905247E+10,      /* I =181 */
(PID.TID 0000.0001)                 8.254339553226024E+10,      /* I =182 */
(PID.TID 0000.0001)                 7.898842019812308E+10,      /* I =183 */
(PID.TID 0000.0001)                 7.484844860455585E+10,      /* I =184 */
(PID.TID 0000.0001)                 7.014294990279657E+10,      /* I =185 */
(PID.TID 0000.0001)                 6.488530324370350E+10,      /* I =186 */
(PID.TID 0000.0001)                 5.907789136457927E+10,      /* I =187 */
(PID.TID 0000.0001)                 5.270492648776427E+10,      /* I =188 */
(PID.TID 0000.0001)                 4.572098922333179E+10,      /* I =189 */
(PID.TID 0000.0001)                 3.803135270871054E+10,      /* I =190 */
(PID.TID 0000.0001)                 2.946081672068642E+10,      /* I =191 */
(PID.TID 0000.0001)                 1.979784032141267E+10       /* I =192 */
(PID.TID 0000.0001)     ;
(PID.TID 0000.0001) rAw =  /* rAw(1,:,1,:) ( m - cartesian, degrees - spherical ) */
(PID.TID 0000.0001)                 1.241518061276850E+10,      /* J =  1 */
(PID.TID 0000.0001)                 2.393793937228070E+10,      /* J =  2 */
(PID.TID 0000.0001)                 3.343760957395816E+10,      /* J =  3 */
(PID.TID 0000.0001)                 4.169613171585213E+10,      /* J =  4 */
(PID.TID 0000.0001)                 4.909775059622826E+10,      /* J =  5 */
(PID.TID 0000.0001)                 5.581661164420262E+10,      /* J =  6 */
(PID.TID 0000.0001)                 6.193540432691364E+10,      /* J =  7 */
(PID.TID 0000.0001)                 6.748988037450198E+10,      /* J =  8 */
(PID.TID 0000.0001)                 7.248914191201054E+10,      /* J =  9 */
(PID.TID 0000.0001)                 7.692650633841550E+10,      /* J = 10 */
(PID.TID 0000.0001)                 8.078615851706480E+10,      /* J = 11 */
(PID.TID 0000.0001)                 8.404769146494269E+10,      /* J = 12 */
(PID.TID 0000.0001)                 8.668945829241028E+10,      /* J = 13 */
(PID.TID 0000.0001)                 8.869115459489229E+10,      /* J = 14 */
(PID.TID 0000.0001)                 9.003581649199794E+10,      /* J = 15 */
(PID.TID 0000.0001)     2 @  9.071132029984613E+10,             /* J = 16: 17 */
(PID.TID 0000.0001)                 9.003581649199794E+10,      /* J = 18 */
(PID.TID 0000.0001)                 8.869115459489229E+10,      /* J = 19 */
(PID.TID 0000.0001)                 8.668945829241028E+10,      /* J = 20 */
(PID.TID 0000.0001)                 8.404769146494269E+10,      /* J = 21 */
(PID.TID 0000.0001)                 8.078615851706480E+10,      /* J = 22 */
(PID.TID 0000.0001)                 7.692650633841550E+10,      /* J = 23 */
(PID.TID 0000.0001)                 7.248914191201054E+10,      /* J = 24 */
(PID.TID 0000.0001)                 6.748988037450198E+10,      /* J = 25 */
(PID.TID 0000.0001)                 6.193540432691364E+10,      /* J = 26 */
(PID.TID 0000.0001)                 5.581661164420262E+10,      /* J = 27 */
(PID.TID 0000.0001)                 4.909775059622826E+10,      /* J = 28 */
(PID.TID 0000.0001)                 4.169613171585213E+10,      /* J = 29 */
(PID.TID 0000.0001)                 3.343760957395816E+10,      /* J = 30 */
(PID.TID 0000.0001)                 2.393793937228070E+10,      /* J = 31 */
(PID.TID 0000.0001)                 1.241518061276850E+10       /* J = 32 */
(PID.TID 0000.0001)     ;
(PID.TID 0000.0001) rAs =  /* rAs(:,1,:,1) ( m - cartesian, degrees - spherical ) */
(PID.TID 0000.0001)                 1.241518061276850E+10,      /* I =  1 */
(PID.TID 0000.0001)                 2.393793937228070E+10,      /* I =  2 */
(PID.TID 0000.0001)                 3.343760957395816E+10,      /* I =  3 */
(PID.TID 0000.0001)                 4.169613171585213E+10,      /* I =  4 */
(PID.TID 0000.0001)                 4.909775059622826E+10,      /* I =  5 */
(PID.TID 0000.0001)                 5.581661164420262E+10,      /* I =  6 */
(PID.TID 0000.0001)                 6.193540432691364E+10,      /* I =  7 */
(PID.TID 0000.0001)                 6.748988037450198E+10,      /* I =  8 */
(PID.TID 0000.0001)                 7.248914191201054E+10,      /* I =  9 */
(PID.TID 0000.0001)                 7.692650633841550E+10,      /* I = 10 */
(PID.TID 0000.0001)                 8.078615851706480E+10,      /* I = 11 */
(PID.TID 0000.0001)                 8.404769146494269E+10,      /* I = 12 */
(PID.TID 0000.0001)                 8.668945829241028E+10,      /* I = 13 */
(PID.TID 0000.0001)                 8.869115459489229E+10,      /* I = 14 */
(PID.TID 0000.0001)                 9.003581649199794E+10,      /* I = 15 */
(PID.TID 0000.0001)     2 @  9.071132029984613E+10,             /* I = 16: 17 */
(PID.TID 0000.0001)                 9.003581649199794E+10,      /* I = 18 */
(PID.TID 0000.0001)                 8.869115459489229E+10,      /* I = 19 */
(PID.TID 0000.0001)                 8.668945829241028E+10,      /* I = 20 */
(PID.TID 0000.0001)                 8.404769146494269E+10,      /* I = 21 */
(PID.TID 0000.0001)                 8.078615851706480E+10,      /* I = 22 */
(PID.TID 0000.0001)                 7.692650633841550E+10,      /* I = 23 */
(PID.TID 0000.0001)                 7.248914191201054E+10,      /* I = 24 */
(PID.TID 0000.0001)                 6.748988037450198E+10,      /* I = 25 */
(PID.TID 0000.0001)                 6.193540432691364E+10,      /* I = 26 */
(PID.TID 0000.0001)                 5.581661164420262E+10,      /* I = 27 */
(PID.TID 0000.0001)                 4.909775059622826E+10,      /* I = 28 */
(PID.TID 0000.0001)                 4.169613171585213E+10,      /* I = 29 */
(PID.TID 0000.0001)                 3.343760957395816E+10,      /* I = 30 */
(PID.TID 0000.0001)                 2.393793937228070E+10,      /* I = 31 */
(PID.TID 0000.0001)     2 @  1.241518061276850E+10,             /* I = 32: 33 */
(PID.TID 0000.0001)                 2.393793937228070E+10,      /* I = 34 */
(PID.TID 0000.0001)                 3.343760957395816E+10,      /* I = 35 */
(PID.TID 0000.0001)                 4.169613171585213E+10,      /* I = 36 */
(PID.TID 0000.0001)                 4.909775059622826E+10,      /* I = 37 */
(PID.TID 0000.0001)                 5.581661164420262E+10,      /* I = 38 */
(PID.TID 0000.0001)                 6.193540432691364E+10,      /* I = 39 */
(PID.TID 0000.0001)                 6.748988037450198E+10,      /* I = 40 */
(PID.TID 0000.0001)                 7.248914191201054E+10,      /* I = 41 */
(PID.TID 0000.0001)                 7.692650633841550E+10,      /* I = 42 */
(PID.TID 0000.0001)                 8.078615851706480E+10,      /* I = 43 */
(PID.TID 0000.0001)                 8.404769146494269E+10,      /* I = 44 */
(PID.TID 0000.0001)                 8.668945829241028E+10,      /* I = 45 */
(PID.TID 0000.0001)                 8.869115459489229E+10,      /* I = 46 */
(PID.TID 0000.0001)                 9.003581649199794E+10,      /* I = 47 */
(PID.TID 0000.0001)     2 @  9.071132029984613E+10,             /* I = 48: 49 */
(PID.TID 0000.0001)                 9.003581649199794E+10,      /* I = 50 */
(PID.TID 0000.0001)                 8.869115459489229E+10,      /* I = 51 */
(PID.TID 0000.0001)                 8.668945829241028E+10,      /* I = 52 */
(PID.TID 0000.0001)                 8.404769146494269E+10,      /* I = 53 */
(PID.TID 0000.0001)                 8.078615851706480E+10,      /* I = 54 */
(PID.TID 0000.0001)                 7.692650633841550E+10,      /* I = 55 */
(PID.TID 0000.0001)                 7.248914191201054E+10,      /* I = 56 */
(PID.TID 0000.0001)                 6.748988037450198E+10,      /* I = 57 */
(PID.TID 0000.0001)                 6.193540432691364E+10,      /* I = 58 */
(PID.TID 0000.0001)                 5.581661164420262E+10,      /* I = 59 */
(PID.TID 0000.0001)                 4.909775059622826E+10,      /* I = 60 */
(PID.TID 0000.0001)                 4.169613171585213E+10,      /* I = 61 */
(PID.TID 0000.0001)                 3.343760957395816E+10,      /* I = 62 */
(PID.TID 0000.0001)                 2.393793937228070E+10,      /* I = 63 */
(PID.TID 0000.0001)     2 @  1.241518061276850E+10,             /* I = 64: 65 */
(PID.TID 0000.0001)                 2.393793937228070E+10,      /* I = 66 */
(PID.TID 0000.0001)                 3.343760957395816E+10,      /* I = 67 */
(PID.TID 0000.0001)                 4.169613171585213E+10,      /* I = 68 */
(PID.TID 0000.0001)                 4.909775059622826E+10,      /* I = 69 */
(PID.TID 0000.0001)                 5.581661164420262E+10,      /* I = 70 */
(PID.TID 0000.0001)                 6.193540432691364E+10,      /* I = 71 */
(PID.TID 0000.0001)                 6.748988037450198E+10,      /* I = 72 */
(PID.TID 0000.0001)                 7.248914191201054E+10,      /* I = 73 */
(PID.TID 0000.0001)                 7.692650633841550E+10,      /* I = 74 */
(PID.TID 0000.0001)                 8.078615851706480E+10,      /* I = 75 */
(PID.TID 0000.0001)                 8.404769146494269E+10,      /* I = 76 */
(PID.TID 0000.0001)                 8.668945829241028E+10,      /* I = 77 */
(PID.TID 0000.0001)                 8.869115459489229E+10,      /* I = 78 */
(PID.TID 0000.0001)                 9.003581649199794E+10,      /* I = 79 */
(PID.TID 0000.0001)     2 @  9.071132029984613E+10,             /* I = 80: 81 */
(PID.TID 0000.0001)                 9.003581649199794E+10,      /* I = 82 */
(PID.TID 0000.0001)                 8.869115459489229E+10,      /* I = 83 */
(PID.TID 0000.0001)                 8.668945829241028E+10,      /* I = 84 */
(PID.TID 0000.0001)                 8.404769146494269E+10,      /* I = 85 */
(PID.TID 0000.0001)                 8.078615851706480E+10,      /* I = 86 */
(PID.TID 0000.0001)                 7.692650633841550E+10,      /* I = 87 */
(PID.TID 0000.0001)                 7.248914191201054E+10,      /* I = 88 */
(PID.TID 0000.0001)                 6.748988037450198E+10,      /* I = 89 */
(PID.TID 0000.0001)                 6.193540432691364E+10,      /* I = 90 */
(PID.TID 0000.0001)                 5.581661164420262E+10,      /* I = 91 */
(PID.TID 0000.0001)                 4.909775059622826E+10,      /* I = 92 */
(PID.TID 0000.0001)                 4.169613171585213E+10,      /* I = 93 */
(PID.TID 0000.0001)                 3.343760957395816E+10,      /* I = 94 */
(PID.TID 0000.0001)                 2.393793937228070E+10,      /* I = 95 */
(PID.TID 0000.0001)     2 @  1.241518061276850E+10,             /* I = 96: 97 */
(PID.TID 0000.0001)                 2.393793937228070E+10,      /* I = 98 */
(PID.TID 0000.0001)                 3.343760957395816E+10,      /* I = 99 */
(PID.TID 0000.0001)                 4.169613171585213E+10,      /* I =100 */
(PID.TID 0000.0001)                 4.909775059622826E+10,      /* I =101 */
(PID.TID 0000.0001)                 5.581661164420262E+10,      /* I =102 */
(PID.TID 0000.0001)                 6.193540432691364E+10,      /* I =103 */
(PID.TID 0000.0001)                 6.748988037450198E+10,      /* I =104 */
(PID.TID 0000.0001)                 7.248914191201054E+10,      /* I =105 */
(PID.TID 0000.0001)                 7.692650633841550E+10,      /* I =106 */
(PID.TID 0000.0001)                 8.078615851706480E+10,      /* I =107 */
(PID.TID 0000.0001)                 8.404769146494269E+10,      /* I =108 */
(PID.TID 0000.0001)                 8.668945829241028E+10,      /* I =109 */
(PID.TID 0000.0001)                 8.869115459489229E+10,      /* I =110 */
(PID.TID 0000.0001)                 9.003581649199794E+10,      /* I =111 */
(PID.TID 0000.0001)     2 @  9.071132029984613E+10,             /* I =112:113 */
(PID.TID 0000.0001)                 9.003581649199794E+10,      /* I =114 */
(PID.TID 0000.0001)                 8.869115459489229E+10,      /* I =115 */
(PID.TID 0000.0001)                 8.668945829241028E+10,      /* I =116 */
(PID.TID 0000.0001)                 8.404769146494269E+10,      /* I =117 */
(PID.TID 0000.0001)                 8.078615851706480E+10,      /* I =118 */
(PID.TID 0000.0001)                 7.692650633841550E+10,      /* I =119 */
(PID.TID 0000.0001)                 7.248914191201054E+10,      /* I =120 */
(PID.TID 0000.0001)                 6.748988037450198E+10,      /* I =121 */
(PID.TID 0000.0001)                 6.193540432691364E+10,      /* I =122 */
(PID.TID 0000.0001)                 5.581661164420262E+10,      /* I =123 */
(PID.TID 0000.0001)                 4.909775059622826E+10,      /* I =124 */
(PID.TID 0000.0001)                 4.169613171585213E+10,      /* I =125 */
(PID.TID 0000.0001)                 3.343760957395816E+10,      /* I =126 */
(PID.TID 0000.0001)                 2.393793937228070E+10,      /* I =127 */
(PID.TID 0000.0001)     2 @  1.241518061276850E+10,             /* I =128:129 */
(PID.TID 0000.0001)                 2.393793937228070E+10,      /* I =130 */
(PID.TID 0000.0001)                 3.343760957395816E+10,      /* I =131 */
(PID.TID 0000.0001)                 4.169613171585213E+10,      /* I =132 */
(PID.TID 0000.0001)                 4.909775059622826E+10,      /* I =133 */
(PID.TID 0000.0001)                 5.581661164420262E+10,      /* I =134 */
(PID.TID 0000.0001)                 6.193540432691364E+10,      /* I =135 */
(PID.TID 0000.0001)                 6.748988037450198E+10,      /* I =136 */
(PID.TID 0000.0001)                 7.248914191201054E+10,      /* I =137 */
(PID.TID 0000.0001)                 7.692650633841550E+10,      /* I =138 */
(PID.TID 0000.0001)                 8.078615851706480E+10,      /* I =139 */
(PID.TID 0000.0001)                 8.404769146494269E+10,      /* I =140 */
(PID.TID 0000.0001)                 8.668945829241028E+10,      /* I =141 */
(PID.TID 0000.0001)                 8.869115459489229E+10,      /* I =142 */
(PID.TID 0000.0001)                 9.003581649199794E+10,      /* I =143 */
(PID.TID 0000.0001)     2 @  9.071132029984613E+10,             /* I =144:145 */
(PID.TID 0000.0001)                 9.003581649199794E+10,      /* I =146 */
(PID.TID 0000.0001)                 8.869115459489229E+10,      /* I =147 */
(PID.TID 0000.0001)                 8.668945829241028E+10,      /* I =148 */
(PID.TID 0000.0001)                 8.404769146494269E+10,      /* I =149 */
(PID.TID 0000.0001)                 8.078615851706480E+10,      /* I =150 */
(PID.TID 0000.0001)                 7.692650633841550E+10,      /* I =151 */
(PID.TID 0000.0001)                 7.248914191201054E+10,      /* I =152 */
(PID.TID 0000.0001)                 6.748988037450198E+10,      /* I =153 */
(PID.TID 0000.0001)                 6.193540432691364E+10,      /* I =154 */
(PID.TID 0000.0001)                 5.581661164420262E+10,      /* I =155 */
(PID.TID 0000.0001)                 4.909775059622826E+10,      /* I =156 */
(PID.TID 0000.0001)                 4.169613171585213E+10,      /* I =157 */
(PID.TID 0000.0001)                 3.343760957395816E+10,      /* I =158 */
(PID.TID 0000.0001)                 2.393793937228070E+10,      /* I =159 */
(PID.TID 0000.0001)     2 @  1.241518061276850E+10,             /* I =160:161 */
(PID.TID 0000.0001)                 2.393793937228070E+10,      /* I =162 */
(PID.TID 0000.0001)                 3.343760957395816E+10,      /* I =163 */
(PID.TID 0000.0001)                 4.169613171585213E+10,      /* I =164 */
(PID.TID 0000.0001)                 4.909775059622826E+10,      /* I =165 */
(PID.TID 0000.0001)                 5.581661164420262E+10,      /* I =166 */
(PID.TID 0000.0001)                 6.193540432691364E+10,      /* I =167 */
(PID.TID 0000.0001)                 6.748988037450198E+10,      /* I =168 */
(PID.TID 0000.0001)                 7.248914191201054E+10,      /* I =169 */
(PID.TID 0000.0001)                 7.692650633841550E+10,      /* I =170 */
(PID.TID 0000.0001)                 8.078615851706480E+10,      /* I =171 */
(PID.TID 0000.0001)                 8.404769146494269E+10,      /* I =172 */
(PID.TID 0000.0001)                 8.668945829241028E+10,      /* I =173 */
(PID.TID 0000.0001)                 8.869115459489229E+10,      /* I =174 */
(PID.TID 0000.0001)                 9.003581649199794E+10,      /* I =175 */
(PID.TID 0000.0001)     2 @  9.071132029984613E+10,             /* I =176:177 */
(PID.TID 0000.0001)                 9.003581649199794E+10,      /* I =178 */
(PID.TID 0000.0001)                 8.869115459489229E+10,      /* I =179 */
(PID.TID 0000.0001)                 8.668945829241028E+10,      /* I =180 */
(PID.TID 0000.0001)                 8.404769146494269E+10,      /* I =181 */
(PID.TID 0000.0001)                 8.078615851706480E+10,      /* I =182 */
(PID.TID 0000.0001)                 7.692650633841550E+10,      /* I =183 */
(PID.TID 0000.0001)                 7.248914191201054E+10,      /* I =184 */
(PID.TID 0000.0001)                 6.748988037450198E+10,      /* I =185 */
(PID.TID 0000.0001)                 6.193540432691364E+10,      /* I =186 */
(PID.TID 0000.0001)                 5.581661164420262E+10,      /* I =187 */
(PID.TID 0000.0001)                 4.909775059622826E+10,      /* I =188 */
(PID.TID 0000.0001)                 4.169613171585213E+10,      /* I =189 */
(PID.TID 0000.0001)                 3.343760957395816E+10,      /* I =190 */
(PID.TID 0000.0001)                 2.393793937228070E+10,      /* I =191 */
(PID.TID 0000.0001)                 1.241518061276850E+10       /* I =192 */
(PID.TID 0000.0001)     ;
(PID.TID 0000.0001) rAs =  /* rAs(1,:,1,:) ( m - cartesian, degrees - spherical ) */
(PID.TID 0000.0001)                 1.241518061276850E+10,      /* J =  1 */
(PID.TID 0000.0001)                 1.979784032141267E+10,      /* J =  2 */
(PID.TID 0000.0001)                 2.946081672068642E+10,      /* J =  3 */
(PID.TID 0000.0001)                 3.803135270871054E+10,      /* J =  4 */
(PID.TID 0000.0001)                 4.572098922333179E+10,      /* J =  5 */
(PID.TID 0000.0001)                 5.270492648776427E+10,      /* J =  6 */
(PID.TID 0000.0001)                 5.907789136457927E+10,      /* J =  7 */
(PID.TID 0000.0001)                 6.488530324370350E+10,      /* J =  8 */
(PID.TID 0000.0001)                 7.014294990279657E+10,      /* J =  9 */
(PID.TID 0000.0001)                 7.484844860455585E+10,      /* J = 10 */
(PID.TID 0000.0001)                 7.898842019812308E+10,      /* J = 11 */
(PID.TID 0000.0001)                 8.254339553226024E+10,      /* J = 12 */
(PID.TID 0000.0001)                 8.549143393905247E+10,      /* J = 13 */
(PID.TID 0000.0001)                 8.781092525894122E+10,      /* J = 14 */
(PID.TID 0000.0001)                 8.948279401613618E+10,      /* J = 15 */
(PID.TID 0000.0001)                 9.049219610247414E+10,      /* J = 16 */
(PID.TID 0000.0001)                 9.082976249073500E+10,      /* J = 17 */
(PID.TID 0000.0001)                 9.049219610247414E+10,      /* J = 18 */
(PID.TID 0000.0001)                 8.948279401613618E+10,      /* J = 19 */
(PID.TID 0000.0001)                 8.781092525894122E+10,      /* J = 20 */
(PID.TID 0000.0001)                 8.549143393905247E+10,      /* J = 21 */
(PID.TID 0000.0001)                 8.254339553226024E+10,      /* J = 22 */
(PID.TID 0000.0001)                 7.898842019812308E+10,      /* J = 23 */
(PID.TID 0000.0001)                 7.484844860455585E+10,      /* J = 24 */
(PID.TID 0000.0001)                 7.014294990279657E+10,      /* J = 25 */
(PID.TID 0000.0001)                 6.488530324370350E+10,      /* J = 26 */
(PID.TID 0000.0001)                 5.907789136457927E+10,      /* J = 27 */
(PID.TID 0000.0001)                 5.270492648776427E+10,      /* J = 28 */
(PID.TID 0000.0001)                 4.572098922333179E+10,      /* J = 29 */
(PID.TID 0000.0001)                 3.803135270871054E+10,      /* J = 30 */
(PID.TID 0000.0001)                 2.946081672068642E+10,      /* J = 31 */
(PID.TID 0000.0001)                 1.979784032141267E+10       /* J = 32 */
(PID.TID 0000.0001)     ;
(PID.TID 0000.0001) 
(PID.TID 0000.0001) // =======================================================
(PID.TID 0000.0001) // Field Initial Temperature at iteration          1
(PID.TID 0000.0001) // CMIN =          3.000000000000000E+02
(PID.TID 0000.0001) // CMAX =          3.000000000000000E+02
(PID.TID 0000.0001) // CINT =          0.000000000000000E+00
(PID.TID 0000.0001) // SYMBOLS (CMIN->CMAX): -abcdefghijklmnopqrstuvwxyz+
(PID.TID 0000.0001) //                  0.0: .
(PID.TID 0000.0001) // RANGE I (Lo:Hi:Step):(   1: 192:   1)
(PID.TID 0000.0001) // RANGE J (Lo:Hi:Step):(  32:   1:  -1)
(PID.TID 0000.0001) // RANGE K (Lo:Hi:Step):(   1:   1:   1)
(PID.TID 0000.0001) // =======================================================
(PID.TID 0000.0001) K =   1
(PID.TID 0000.0001)                I=10      I=20      I=30      I=40      I=50      I=60      I=70      I=80      I=90      I=100     I=110     I=120     I=130     I=140     I=150     I=160     I=170     I=180     I=190
(PID.TID 0000.0001) |--J--|123456789|123456789|123456789|123456789|123456789|123456789|123456789|123456789|123456789|123456789|123456789|123456789|123456789|123456789|123456789|123456789|123456789|123456789|123456789|12
(PID.TID 0000.0001)     32 ------------------------------------------------------------------------------------------------------------------------------------------------------------------------------------------------
(PID.TID 0000.0001)     31 ------------------------------------------------------------------------------------------------------------------------------------------------------------------------------------------------
(PID.TID 0000.0001)     30 ------------------------------------------------------------------------------------------------------------------------------------------------------------------------------------------------
(PID.TID 0000.0001)     29 ------------------------------------------------------------------------------------------------------------------------------------------------------------------------------------------------
(PID.TID 0000.0001)     28 ------------------------------------------------------------------------------------------------------------------------------------------------------------------------------------------------
(PID.TID 0000.0001)     27 ------------------------------------------------------------------------------------------------------------------------------------------------------------------------------------------------
(PID.TID 0000.0001)     26 ------------------------------------------------------------------------------------------------------------------------------------------------------------------------------------------------
(PID.TID 0000.0001)     25 ------------------------------------------------------------------------------------------------------------------------------------------------------------------------------------------------
(PID.TID 0000.0001)     24 ------------------------------------------------------------------------------------------------------------------------------------------------------------------------------------------------
(PID.TID 0000.0001)     23 ------------------------------------------------------------------------------------------------------------------------------------------------------------------------------------------------
(PID.TID 0000.0001)     22 ------------------------------------------------------------------------------------------------------------------------------------------------------------------------------------------------
(PID.TID 0000.0001)     21 ------------------------------------------------------------------------------------------------------------------------------------------------------------------------------------------------
(PID.TID 0000.0001)     20 ------------------------------------------------------------------------------------------------------------------------------------------------------------------------------------------------
(PID.TID 0000.0001)     19 ------------------------------------------------------------------------------------------------------------------------------------------------------------------------------------------------
(PID.TID 0000.0001)     18 ------------------------------------------------------------------------------------------------------------------------------------------------------------------------------------------------
(PID.TID 0000.0001)     17 ------------------------------------------------------------------------------------------------------------------------------------------------------------------------------------------------
(PID.TID 0000.0001)     16 ------------------------------------------------------------------------------------------------------------------------------------------------------------------------------------------------
(PID.TID 0000.0001)     15 ------------------------------------------------------------------------------------------------------------------------------------------------------------------------------------------------
(PID.TID 0000.0001)     14 ------------------------------------------------------------------------------------------------------------------------------------------------------------------------------------------------
(PID.TID 0000.0001)     13 ------------------------------------------------------------------------------------------------------------------------------------------------------------------------------------------------
(PID.TID 0000.0001)     12 ------------------------------------------------------------------------------------------------------------------------------------------------------------------------------------------------
(PID.TID 0000.0001)     11 ------------------------------------------------------------------------------------------------------------------------------------------------------------------------------------------------
(PID.TID 0000.0001)     10 ------------------------------------------------------------------------------------------------------------------------------------------------------------------------------------------------
(PID.TID 0000.0001)      9 ------------------------------------------------------------------------------------------------------------------------------------------------------------------------------------------------
(PID.TID 0000.0001)      8 ------------------------------------------------------------------------------------------------------------------------------------------------------------------------------------------------
(PID.TID 0000.0001)      7 ------------------------------------------------------------------------------------------------------------------------------------------------------------------------------------------------
(PID.TID 0000.0001)      6 ------------------------------------------------------------------------------------------------------------------------------------------------------------------------------------------------
(PID.TID 0000.0001)      5 ------------------------------------------------------------------------------------------------------------------------------------------------------------------------------------------------
(PID.TID 0000.0001)      4 ------------------------------------------------------------------------------------------------------------------------------------------------------------------------------------------------
(PID.TID 0000.0001)      3 ------------------------------------------------------------------------------------------------------------------------------------------------------------------------------------------------
(PID.TID 0000.0001)      2 ------------------------------------------------------------------------------------------------------------------------------------------------------------------------------------------------
(PID.TID 0000.0001)      1 ------------------------------------------------------------------------------------------------------------------------------------------------------------------------------------------------
(PID.TID 0000.0001) // =======================================================
(PID.TID 0000.0001) // END OF FIELD                                          =
(PID.TID 0000.0001) // =======================================================
(PID.TID 0000.0001) 
(PID.TID 0000.0001)  MDSREADFIELD: opening global file: S.init
(PID.TID 0000.0001) // =======================================================
(PID.TID 0000.0001) // Field Initial Salinity at iteration          1
(PID.TID 0000.0001) // CMIN =          1.904418288867227E-05
(PID.TID 0000.0001) // CMAX =          9.696425854136990E-01
(PID.TID 0000.0001) // CINT =          3.591198300854853E-02
(PID.TID 0000.0001) // SYMBOLS (CMIN->CMAX): -abcdefghijklmnopqrstuvwxyz+
(PID.TID 0000.0001) //                  0.0: .
(PID.TID 0000.0001) // RANGE I (Lo:Hi:Step):(   1: 192:   1)
(PID.TID 0000.0001) // RANGE J (Lo:Hi:Step):(  32:   1:  -1)
(PID.TID 0000.0001) // RANGE K (Lo:Hi:Step):(   1:   1:   1)
(PID.TID 0000.0001) // =======================================================
(PID.TID 0000.0001) K =   1
(PID.TID 0000.0001)                I=10      I=20      I=30      I=40      I=50      I=60      I=70      I=80      I=90      I=100     I=110     I=120     I=130     I=140     I=150     I=160     I=170     I=180     I=190
(PID.TID 0000.0001) |--J--|123456789|123456789|123456789|123456789|123456789|123456789|123456789|123456789|123456789|123456789|123456789|123456789|123456789|123456789|123456789|123456789|123456789|123456789|123456789|12
(PID.TID 0000.0001)     32 .........................................-aflrx++xrlfa-.........................................................................................................................................
(PID.TID 0000.0001)     31 ..........................................adjpuxxupjda..........................................................................................................................................
(PID.TID 0000.0001)     30 ..........................................-cglprrplgc-..........................................................................................................................................
(PID.TID 0000.0001)     29 ...........................................acgjkkjgca...........................................................................................................................................
(PID.TID 0000.0001)     28 ...........................................-abdeedba-...........................................................................................................................................
(PID.TID 0000.0001)     27 .............................................-aaaa-.............................................................................................................................................
(PID.TID 0000.0001)     26 ................................................................................................................................................................................................
(PID.TID 0000.0001)     25 ................................................................................................................................................................................................
(PID.TID 0000.0001)     24 ................................................................................................................................................................................................
(PID.TID 0000.0001)     23 ................................................................................................................................................................................................
(PID.TID 0000.0001)     22 ................................................................................................................................................................................................
(PID.TID 0000.0001)     21 ................................................................................................................................................................................................
(PID.TID 0000.0001)     20 ................................................................................................................................................................................................
(PID.TID 0000.0001)     19 ................................................................................................................................................................................................
(PID.TID 0000.0001)     18 ................................................................................................................................................................................................
(PID.TID 0000.0001)     17 ................................................................................................................................................................................................
(PID.TID 0000.0001)     16 ................................................................................................................................................................................................
(PID.TID 0000.0001)     15 ................................................................................................................................................................................................
(PID.TID 0000.0001)     14 ................................................................................................................................................................................................
(PID.TID 0000.0001)     13 ................................................................................................................................................................................................
(PID.TID 0000.0001)     12 ................................................................................................................................................................................................
(PID.TID 0000.0001)     11 ................................................................................................................................................................................................
(PID.TID 0000.0001)     10 ................................................................................................................................................................................................
(PID.TID 0000.0001)      9 ................................................................................................................................................................................................
(PID.TID 0000.0001)      8 ................................................................................................................................................................................................
(PID.TID 0000.0001)      7 ................................................................................................................................................................................................
(PID.TID 0000.0001)      6 .............................................................................-aaaa-.............................................................................................................
(PID.TID 0000.0001)      5 ...........................................................................-abdeedba-...........................................................................................................
(PID.TID 0000.0001)      4 ...........................................................................acgjkkjgca...........................................................................................................
(PID.TID 0000.0001)      3 ..........................................................................-cglprrplgc-..........................................................................................................
(PID.TID 0000.0001)      2 ..........................................................................adjpuxxupjda..........................................................................................................
(PID.TID 0000.0001)      1 .........................................................................-aflrx++xrlfa-.........................................................................................................
(PID.TID 0000.0001) // =======================================================
(PID.TID 0000.0001) // END OF FIELD                                          =
(PID.TID 0000.0001) // =======================================================
(PID.TID 0000.0001) 
(PID.TID 0000.0001) // =======================================================
(PID.TID 0000.0001) // Model current state
(PID.TID 0000.0001) // =======================================================
(PID.TID 0000.0001) 
(PID.TID 0000.0001) // =======================================================
(PID.TID 0000.0001) // Begin MONITOR dynamic field statistics
(PID.TID 0000.0001) // =======================================================
(PID.TID 0000.0001) %MON time_tsnumber                =                     0
(PID.TID 0000.0001) %MON time_secondsf                =   0.0000000000000E+00
(PID.TID 0000.0001) %MON time_secondsi                =                     0
(PID.TID 0000.0001) %MON dynstat_eta_max              =  -1.0837810708482E+01
(PID.TID 0000.0001) %MON dynstat_eta_min              =  -1.9347765553844E+04
(PID.TID 0000.0001) %MON dynstat_eta_mean             =  -6.4575937802317E+03
(PID.TID 0000.0001) %MON dynstat_eta_sd               =   5.7754111494237E+03
(PID.TID 0000.0001) %MON dynstat_eta_del2             =   1.5273206396551E+01
(PID.TID 0000.0001) %MON dynstat_uvel_max             =   3.8588909729170E+01
(PID.TID 0000.0001) %MON dynstat_uvel_min             =  -2.6640751857540E+01
(PID.TID 0000.0001) %MON dynstat_uvel_mean            =   1.1767582051515E+01
(PID.TID 0000.0001) %MON dynstat_uvel_sd              =   1.8925013763619E+01
(PID.TID 0000.0001) %MON dynstat_uvel_del2            =   3.3977035061841E-02
(PID.TID 0000.0001) %MON dynstat_vvel_max             =   3.8588909729170E+01
(PID.TID 0000.0001) %MON dynstat_vvel_min             =  -2.6640751857540E+01
(PID.TID 0000.0001) %MON dynstat_vvel_mean            =   1.1767582051515E+01
(PID.TID 0000.0001) %MON dynstat_vvel_sd              =   1.8925013763619E+01
(PID.TID 0000.0001) %MON dynstat_vvel_del2            =   3.3977035061841E-02
(PID.TID 0000.0001) %MON dynstat_wvel_max             =   4.8259469367879E-15
(PID.TID 0000.0001) %MON dynstat_wvel_min             =  -4.8259469367879E-15
(PID.TID 0000.0001) %MON dynstat_wvel_mean            =  -2.6408038640800E-34
(PID.TID 0000.0001) %MON dynstat_wvel_sd              =   1.3451301434752E-15
(PID.TID 0000.0001) %MON dynstat_wvel_del2            =   1.3733452540939E-15
(PID.TID 0000.0001) %MON dynstat_theta_max            =   3.0000000000000E+02
(PID.TID 0000.0001) %MON dynstat_theta_min            =   3.0000000000000E+02
(PID.TID 0000.0001) %MON dynstat_theta_mean           =   3.0000000000000E+02
(PID.TID 0000.0001) %MON dynstat_theta_sd             =   3.2969182939269E-12
(PID.TID 0000.0001) %MON dynstat_theta_del2           =   0.0000000000000E+00
(PID.TID 0000.0001) %MON dynstat_salt_max             =   9.6964258541370E-01
(PID.TID 0000.0001) %MON dynstat_salt_min             =   0.0000000000000E+00
(PID.TID 0000.0001) %MON dynstat_salt_mean            =   6.6909333292948E-03
(PID.TID 0000.0001) %MON dynstat_salt_sd              =   6.1908067065611E-02
(PID.TID 0000.0001) %MON dynstat_salt_del2            =   4.5398302203466E-04
(PID.TID 0000.0001) %MON advcfl_uvel_max              =   3.4060671851488E-01
(PID.TID 0000.0001) %MON advcfl_vvel_max              =   3.4060671851488E-01
(PID.TID 0000.0001) %MON advcfl_wvel_max              =   1.1582272648291E-16
(PID.TID 0000.0001) %MON advcfl_W_hf_max              =   0.0000000000000E+00
(PID.TID 0000.0001) %MON ke_max                       =   7.4455150023606E+02
(PID.TID 0000.0001) %MON ke_mean                      =   4.9661803126781E+02
(PID.TID 0000.0001) %MON ke_volint                    =   2.5323489810542E+22
(PID.TID 0000.0001) %MON ke_volmean                   =   4.9663214534537E+02
(PID.TID 0000.0001) // =======================================================
(PID.TID 0000.0001) // End MONITOR dynamic field statistics
(PID.TID 0000.0001) // =======================================================
 cg2d: Sum(rhs),rhsMax =   1.60256532282296E+03  1.41158551406643E+04
(PID.TID 0000.0001)                    cg2d_init_res =    7.67615014588542E-02
(PID.TID 0000.0001)                       cg2d_iters =    26
(PID.TID 0000.0001)                         cg2d_res =    4.50156218542397E-13
(PID.TID 0000.0001) // =======================================================
(PID.TID 0000.0001) // Begin MONITOR dynamic field statistics
(PID.TID 0000.0001) // =======================================================
(PID.TID 0000.0001) %MON time_tsnumber                =                     1
(PID.TID 0000.0001) %MON time_secondsf                =   1.2000000000000E+03
(PID.TID 0000.0001) %MON time_secondsi                =                  1200
(PID.TID 0000.0001) %MON dynstat_eta_max              =  -1.5947361166253E+01
(PID.TID 0000.0001) %MON dynstat_eta_min              =  -1.9337099268440E+04
(PID.TID 0000.0001) %MON dynstat_eta_mean             =  -6.4575937802317E+03
(PID.TID 0000.0001) %MON dynstat_eta_sd               =   5.7707250781807E+03
(PID.TID 0000.0001) %MON dynstat_eta_del2             =   1.5464157267317E+01
(PID.TID 0000.0001) %MON dynstat_uvel_max             =   3.8588909729170E+01
(PID.TID 0000.0001) %MON dynstat_uvel_min             =  -2.6659582164863E+01
(PID.TID 0000.0001) %MON dynstat_uvel_mean            =   1.1767582051515E+01
(PID.TID 0000.0001) %MON dynstat_uvel_sd              =   1.8925150208566E+01
(PID.TID 0000.0001) %MON dynstat_uvel_del2            =   3.3955096210043E-02
(PID.TID 0000.0001) %MON dynstat_vvel_max             =   3.8588909729170E+01
(PID.TID 0000.0001) %MON dynstat_vvel_min             =  -2.6659582164863E+01
(PID.TID 0000.0001) %MON dynstat_vvel_mean            =   1.1767582051515E+01
(PID.TID 0000.0001) %MON dynstat_vvel_sd              =   1.8925150208566E+01
(PID.TID 0000.0001) %MON dynstat_vvel_del2            =   3.3955096210043E-02
(PID.TID 0000.0001) %MON dynstat_wvel_max             =   4.8259469367879E-15
(PID.TID 0000.0001) %MON dynstat_wvel_min             =  -4.8259469367879E-15
(PID.TID 0000.0001) %MON dynstat_wvel_mean            =  -2.6408038640800E-34
(PID.TID 0000.0001) %MON dynstat_wvel_sd              =   1.3451301434752E-15
(PID.TID 0000.0001) %MON dynstat_wvel_del2            =   1.3733452540939E-15
(PID.TID 0000.0001) %MON dynstat_theta_max            =   3.0000000000000E+02
(PID.TID 0000.0001) %MON dynstat_theta_min            =   3.0000000000000E+02
(PID.TID 0000.0001) %MON dynstat_theta_mean           =   3.0000000000000E+02
(PID.TID 0000.0001) %MON dynstat_theta_sd             =   3.2969182939269E-12
(PID.TID 0000.0001) %MON dynstat_theta_del2           =   0.0000000000000E+00
(PID.TID 0000.0001) %MON dynstat_salt_max             =   9.7589235569134E-01
(PID.TID 0000.0001) %MON dynstat_salt_min             =  -3.2231620263484E-03
(PID.TID 0000.0001) %MON dynstat_salt_mean            =   6.6909333292948E-03
(PID.TID 0000.0001) %MON dynstat_salt_sd              =   6.1938184614217E-02
(PID.TID 0000.0001) %MON dynstat_salt_del2            =   4.5624446389030E-04
(PID.TID 0000.0001) %MON advcfl_uvel_max              =   3.4060671851488E-01
(PID.TID 0000.0001) %MON advcfl_vvel_max              =   3.4060671851488E-01
(PID.TID 0000.0001) %MON advcfl_wvel_max              =   1.1582272648291E-16
(PID.TID 0000.0001) %MON advcfl_W_hf_max              =   0.0000000000000E+00
(PID.TID 0000.0001) %MON ke_max                       =   7.4455163578248E+02
(PID.TID 0000.0001) %MON ke_mean                      =   4.9662357473881E+02
(PID.TID 0000.0001) %MON ke_volint                    =   2.5323753289746E+22
(PID.TID 0000.0001) %MON ke_volmean                   =   4.9663731257325E+02
(PID.TID 0000.0001) // =======================================================
(PID.TID 0000.0001) // End MONITOR dynamic field statistics
(PID.TID 0000.0001) // =======================================================
 cg2d: Sum(rhs),rhsMax =   1.60431053941430E+03  1.41004994947422E+04
(PID.TID 0000.0001)                    cg2d_init_res =    3.19768273404622E-02
(PID.TID 0000.0001)                       cg2d_iters =    24
(PID.TID 0000.0001)                         cg2d_res =    6.33381485110667E-13
(PID.TID 0000.0001) // =======================================================
(PID.TID 0000.0001) // Begin MONITOR dynamic field statistics
(PID.TID 0000.0001) // =======================================================
(PID.TID 0000.0001) %MON time_tsnumber                =                     2
(PID.TID 0000.0001) %MON time_secondsf                =   2.4000000000000E+03
(PID.TID 0000.0001) %MON time_secondsi                =                  2400
(PID.TID 0000.0001) %MON dynstat_eta_max              =  -2.5948920269785E+01
(PID.TID 0000.0001) %MON dynstat_eta_min              =  -1.9316220127586E+04
(PID.TID 0000.0001) %MON dynstat_eta_mean             =  -6.4575937802317E+03
(PID.TID 0000.0001) %MON dynstat_eta_sd               =   5.7615479591094E+03
(PID.TID 0000.0001) %MON dynstat_eta_del2             =   1.5447933312543E+01
(PID.TID 0000.0001) %MON dynstat_uvel_max             =   3.8588964740541E+01
(PID.TID 0000.0001) %MON dynstat_uvel_min             =  -2.6722572951623E+01
(PID.TID 0000.0001) %MON dynstat_uvel_mean            =   1.1771061295721E+01
(PID.TID 0000.0001) %MON dynstat_uvel_sd              =   1.8934798060920E+01
(PID.TID 0000.0001) %MON dynstat_uvel_del2            =   3.3968425678247E-02
(PID.TID 0000.0001) %MON dynstat_vvel_max             =   3.8588964740541E+01
(PID.TID 0000.0001) %MON dynstat_vvel_min             =  -2.6722572951623E+01
(PID.TID 0000.0001) %MON dynstat_vvel_mean            =   1.1771061295721E+01
(PID.TID 0000.0001) %MON dynstat_vvel_sd              =   1.8934798060920E+01
(PID.TID 0000.0001) %MON dynstat_vvel_del2            =   3.3968425678247E-02
(PID.TID 0000.0001) %MON dynstat_wvel_max             =   4.9482309333610E-02
(PID.TID 0000.0001) %MON dynstat_wvel_min             =  -3.2089443657099E-02
(PID.TID 0000.0001) %MON dynstat_wvel_mean            =   7.1031703556714E-19
(PID.TID 0000.0001) %MON dynstat_wvel_sd              =   4.0536759604367E-03
(PID.TID 0000.0001) %MON dynstat_wvel_del2            =   2.3946980199058E-04
(PID.TID 0000.0001) %MON dynstat_theta_max            =   3.0000000000000E+02
(PID.TID 0000.0001) %MON dynstat_theta_min            =   3.0000000000000E+02
(PID.TID 0000.0001) %MON dynstat_theta_mean           =   3.0000000000000E+02
(PID.TID 0000.0001) %MON dynstat_theta_sd             =   3.2969182939269E-12
(PID.TID 0000.0001) %MON dynstat_theta_del2           =   0.0000000000000E+00
(PID.TID 0000.0001) %MON dynstat_salt_max             =   9.8019963242740E-01
(PID.TID 0000.0001) %MON dynstat_salt_min             =  -5.3534772527836E-03
(PID.TID 0000.0001) %MON dynstat_salt_mean            =   6.6906568155925E-03
(PID.TID 0000.0001) %MON dynstat_salt_sd              =   6.1931076948942E-02
(PID.TID 0000.0001) %MON dynstat_salt_del2            =   4.5663027518809E-04
(PID.TID 0000.0001) %MON advcfl_uvel_max              =   3.4093001542077E-01
(PID.TID 0000.0001) %MON advcfl_vvel_max              =   3.4093001542077E-01
(PID.TID 0000.0001) %MON advcfl_wvel_max              =   1.1875754240066E-03
(PID.TID 0000.0001) %MON advcfl_W_hf_max              =   0.0000000000000E+00
(PID.TID 0000.0001) %MON ke_max                       =   7.4455390440446E+02
(PID.TID 0000.0001) %MON ke_mean                      =   4.9710412676183E+02
(PID.TID 0000.0001) %MON ke_volint                    =   2.5346551877879E+22
(PID.TID 0000.0001) %MON ke_volmean                   =   4.9708442755700E+02
(PID.TID 0000.0001) // =======================================================
(PID.TID 0000.0001) // End MONITOR dynamic field statistics
(PID.TID 0000.0001) // =======================================================
 cg2d: Sum(rhs),rhsMax =   1.60678170468425E+03  1.40788134968629E+04
(PID.TID 0000.0001)                    cg2d_init_res =    4.57307766656220E-02
(PID.TID 0000.0001)                       cg2d_iters =    23
(PID.TID 0000.0001)                         cg2d_res =    9.12563459848085E-13
(PID.TID 0000.0001) // =======================================================
(PID.TID 0000.0001) // Begin MONITOR dynamic field statistics
(PID.TID 0000.0001) // =======================================================
(PID.TID 0000.0001) %MON time_tsnumber                =                     3
(PID.TID 0000.0001) %MON time_secondsf                =   3.6000000000000E+03
(PID.TID 0000.0001) %MON time_secondsi                =                  3600
(PID.TID 0000.0001) %MON dynstat_eta_max              =  -4.0519360730538E+01
(PID.TID 0000.0001) %MON dynstat_eta_min              =  -1.9286708988965E+04
(PID.TID 0000.0001) %MON dynstat_eta_mean             =  -6.4575937802318E+03
(PID.TID 0000.0001) %MON dynstat_eta_sd               =   5.7483450481021E+03
(PID.TID 0000.0001) %MON dynstat_eta_del2             =   1.5409567397079E+01
(PID.TID 0000.0001) %MON dynstat_uvel_max             =   3.8589084546987E+01
(PID.TID 0000.0001) %MON dynstat_uvel_min             =  -2.6801296370217E+01
(PID.TID 0000.0001) %MON dynstat_uvel_mean            =   1.1776575355634E+01
(PID.TID 0000.0001) %MON dynstat_uvel_sd              =   1.8950027803416E+01
(PID.TID 0000.0001) %MON dynstat_uvel_del2            =   3.3993646372496E-02
(PID.TID 0000.0001) %MON dynstat_vvel_max             =   3.8589084546987E+01
(PID.TID 0000.0001) %MON dynstat_vvel_min             =  -2.6801296370217E+01
(PID.TID 0000.0001) %MON dynstat_vvel_mean            =   1.1776575355634E+01
(PID.TID 0000.0001) %MON dynstat_vvel_sd              =   1.8950027803416E+01
(PID.TID 0000.0001) %MON dynstat_vvel_del2            =   3.3993646372496E-02
(PID.TID 0000.0001) %MON dynstat_wvel_max             =   1.7399284045234E-02
(PID.TID 0000.0001) %MON dynstat_wvel_min             =  -8.4969049905347E-03
(PID.TID 0000.0001) %MON dynstat_wvel_mean            =   4.0278414663060E-18
(PID.TID 0000.0001) %MON dynstat_wvel_sd              =   7.6538610732162E-03
(PID.TID 0000.0001) %MON dynstat_wvel_del2            =   3.6886357216208E-05
(PID.TID 0000.0001) %MON dynstat_theta_max            =   3.0000000000000E+02
(PID.TID 0000.0001) %MON dynstat_theta_min            =   3.0000000000000E+02
(PID.TID 0000.0001) %MON dynstat_theta_mean           =   3.0000000000000E+02
(PID.TID 0000.0001) %MON dynstat_theta_sd             =   3.2969182939269E-12
(PID.TID 0000.0001) %MON dynstat_theta_del2           =   0.0000000000000E+00
(PID.TID 0000.0001) %MON dynstat_salt_max             =   9.8325694495013E-01
(PID.TID 0000.0001) %MON dynstat_salt_min             =  -6.9024757521669E-03
(PID.TID 0000.0001) %MON dynstat_salt_mean            =   6.6902201439323E-03
(PID.TID 0000.0001) %MON dynstat_salt_sd              =   6.1923116441796E-02
(PID.TID 0000.0001) %MON dynstat_salt_del2            =   4.5720161513968E-04
(PID.TID 0000.0001) %MON advcfl_uvel_max              =   3.4141151094569E-01
(PID.TID 0000.0001) %MON advcfl_vvel_max              =   3.4141151094569E-01
(PID.TID 0000.0001) %MON advcfl_wvel_max              =   4.1758281708562E-04
(PID.TID 0000.0001) %MON advcfl_W_hf_max              =   0.0000000000000E+00
(PID.TID 0000.0001) %MON ke_max                       =   7.4455995716740E+02
(PID.TID 0000.0001) %MON ke_mean                      =   4.9786366707565E+02
(PID.TID 0000.0001) %MON ke_volint                    =   2.5382588834154E+22
(PID.TID 0000.0001) %MON ke_volmean                   =   4.9779116707199E+02
(PID.TID 0000.0001) // =======================================================
(PID.TID 0000.0001) // End MONITOR dynamic field statistics
(PID.TID 0000.0001) // =======================================================
 cg2d: Sum(rhs),rhsMax =   1.60982517122622E+03  1.40521966948686E+04
(PID.TID 0000.0001)                    cg2d_init_res =    5.77173187298176E-02
(PID.TID 0000.0001)                       cg2d_iters =    23
(PID.TID 0000.0001)                         cg2d_res =    9.86636203685373E-13
(PID.TID 0000.0001) // =======================================================
(PID.TID 0000.0001) // Begin MONITOR dynamic field statistics
(PID.TID 0000.0001) // =======================================================
(PID.TID 0000.0001) %MON time_tsnumber                =                     4
(PID.TID 0000.0001) %MON time_secondsf                =   4.8000000000000E+03
(PID.TID 0000.0001) %MON time_secondsi                =                  4800
(PID.TID 0000.0001) %MON dynstat_eta_max              =  -5.9236743003113E+01
(PID.TID 0000.0001) %MON dynstat_eta_min              =  -1.9250442341748E+04
(PID.TID 0000.0001) %MON dynstat_eta_mean             =  -6.4575937802319E+03
(PID.TID 0000.0001) %MON dynstat_eta_sd               =   5.7316932161268E+03
(PID.TID 0000.0001) %MON dynstat_eta_del2             =   1.5366065298620E+01
(PID.TID 0000.0001) %MON dynstat_uvel_max             =   3.8589340023455E+01
(PID.TID 0000.0001) %MON dynstat_uvel_min             =  -2.6889826021468E+01
(PID.TID 0000.0001) %MON dynstat_uvel_mean            =   1.1783886252983E+01
(PID.TID 0000.0001) %MON dynstat_uvel_sd              =   1.8969950937155E+01
(PID.TID 0000.0001) %MON dynstat_uvel_del2            =   3.4032765082193E-02
(PID.TID 0000.0001) %MON dynstat_vvel_max             =   3.8589340023455E+01
(PID.TID 0000.0001) %MON dynstat_vvel_min             =  -2.6889826021468E+01
(PID.TID 0000.0001) %MON dynstat_vvel_mean            =   1.1783886252983E+01
(PID.TID 0000.0001) %MON dynstat_vvel_sd              =   1.8969950937155E+01
(PID.TID 0000.0001) %MON dynstat_vvel_del2            =   3.4032765082193E-02
(PID.TID 0000.0001) %MON dynstat_wvel_max             =   2.4592615517126E-02
(PID.TID 0000.0001) %MON dynstat_wvel_min             =  -1.2371033915879E-02
(PID.TID 0000.0001) %MON dynstat_wvel_mean            =  -1.3148801104272E-17
(PID.TID 0000.0001) %MON dynstat_wvel_sd              =   1.1005407181192E-02
(PID.TID 0000.0001) %MON dynstat_wvel_del2            =   3.5911118250392E-05
(PID.TID 0000.0001) %MON dynstat_theta_max            =   3.0000000000000E+02
(PID.TID 0000.0001) %MON dynstat_theta_min            =   3.0000000000000E+02
(PID.TID 0000.0001) %MON dynstat_theta_mean           =   3.0000000000000E+02
(PID.TID 0000.0001) %MON dynstat_theta_sd             =   3.2969182939269E-12
(PID.TID 0000.0001) %MON dynstat_theta_del2           =   0.0000000000000E+00
(PID.TID 0000.0001) %MON dynstat_salt_max             =   9.8505363779915E-01
(PID.TID 0000.0001) %MON dynstat_salt_min             =  -7.9061871839221E-03
(PID.TID 0000.0001) %MON dynstat_salt_mean            =   6.6896277519462E-03
(PID.TID 0000.0001) %MON dynstat_salt_sd              =   6.1914489442592E-02
(PID.TID 0000.0001) %MON dynstat_salt_del2            =   4.5872545972812E-04
(PID.TID 0000.0001) %MON advcfl_uvel_max              =   3.4206044599872E-01
(PID.TID 0000.0001) %MON advcfl_vvel_max              =   3.4206044599872E-01
(PID.TID 0000.0001) %MON advcfl_wvel_max              =   5.9022277241102E-04
(PID.TID 0000.0001) %MON advcfl_W_hf_max              =   0.0000000000000E+00
(PID.TID 0000.0001) %MON ke_max                       =   7.4457200750968E+02
(PID.TID 0000.0001) %MON ke_mean                      =   4.9886137749515E+02
(PID.TID 0000.0001) %MON ke_volint                    =   2.5429889185652E+22
(PID.TID 0000.0001) %MON ke_volmean                   =   4.9871879889589E+02
(PID.TID 0000.0001) // =======================================================
(PID.TID 0000.0001) // End MONITOR dynamic field statistics
(PID.TID 0000.0001) // =======================================================
 cg2d: Sum(rhs),rhsMax =   1.61326544485357E+03  1.40222305154964E+04
(PID.TID 0000.0001)                    cg2d_init_res =    6.74171642212808E-02
(PID.TID 0000.0001)                       cg2d_iters =    24
(PID.TID 0000.0001)                         cg2d_res =    3.90869813004770E-13
(PID.TID 0000.0001) // =======================================================
(PID.TID 0000.0001) // Begin MONITOR dynamic field statistics
(PID.TID 0000.0001) // =======================================================
(PID.TID 0000.0001) %MON time_tsnumber                =                     5
(PID.TID 0000.0001) %MON time_secondsf                =   6.0000000000000E+03
(PID.TID 0000.0001) %MON time_secondsi                =                  6000
(PID.TID 0000.0001) %MON dynstat_eta_max              =  -8.1587647827646E+01
(PID.TID 0000.0001) %MON dynstat_eta_min              =  -1.9209545204786E+04
(PID.TID 0000.0001) %MON dynstat_eta_mean             =  -6.4575937802319E+03
(PID.TID 0000.0001) %MON dynstat_eta_sd               =   5.7122778230906E+03
(PID.TID 0000.0001) %MON dynstat_eta_del2             =   1.5315094610441E+01
(PID.TID 0000.0001) %MON dynstat_uvel_max             =   3.8589774066275E+01
(PID.TID 0000.0001) %MON dynstat_uvel_min             =  -2.6982690226654E+01
(PID.TID 0000.0001) %MON dynstat_uvel_mean            =   1.1792732281265E+01
(PID.TID 0000.0001) %MON dynstat_uvel_sd              =   1.8993661136380E+01
(PID.TID 0000.0001) %MON dynstat_uvel_del2            =   3.4084334017835E-02
(PID.TID 0000.0001) %MON dynstat_vvel_max             =   3.8589774066275E+01
(PID.TID 0000.0001) %MON dynstat_vvel_min             =  -2.6982690226654E+01
(PID.TID 0000.0001) %MON dynstat_vvel_mean            =   1.1792732281265E+01
(PID.TID 0000.0001) %MON dynstat_vvel_sd              =   1.8993661136380E+01
(PID.TID 0000.0001) %MON dynstat_vvel_del2            =   3.4084334017835E-02
(PID.TID 0000.0001) %MON dynstat_wvel_max             =   3.0222206014109E-02
(PID.TID 0000.0001) %MON dynstat_wvel_min             =  -1.5871478946202E-02
(PID.TID 0000.0001) %MON dynstat_wvel_mean            =  -2.8945939594656E-18
(PID.TID 0000.0001) %MON dynstat_wvel_sd              =   1.3879709590016E-02
(PID.TID 0000.0001) %MON dynstat_wvel_del2            =   4.0739210203449E-05
(PID.TID 0000.0001) %MON dynstat_theta_max            =   3.0000000000000E+02
(PID.TID 0000.0001) %MON dynstat_theta_min            =   3.0000000000000E+02
(PID.TID 0000.0001) %MON dynstat_theta_mean           =   3.0000000000000E+02
(PID.TID 0000.0001) %MON dynstat_theta_sd             =   3.2969182939269E-12
(PID.TID 0000.0001) %MON dynstat_theta_del2           =   0.0000000000000E+00
(PID.TID 0000.0001) %MON dynstat_salt_max             =   9.8557113919840E-01
(PID.TID 0000.0001) %MON dynstat_salt_min             =  -8.9955378986080E-03
(PID.TID 0000.0001) %MON dynstat_salt_mean            =   6.6888908055564E-03
(PID.TID 0000.0001) %MON dynstat_salt_sd              =   6.1905207866098E-02
(PID.TID 0000.0001) %MON dynstat_salt_del2            =   4.6052474967814E-04
(PID.TID 0000.0001) %MON advcfl_uvel_max              =   3.4284655493154E-01
(PID.TID 0000.0001) %MON advcfl_vvel_max              =   3.4284655493154E-01
(PID.TID 0000.0001) %MON advcfl_wvel_max              =   7.2533294433863E-04
(PID.TID 0000.0001) %MON advcfl_W_hf_max              =   0.0000000000000E+00
(PID.TID 0000.0001) %MON ke_max                       =   7.4459094495704E+02
(PID.TID 0000.0001) %MON ke_mean                      =   5.0005470241793E+02
(PID.TID 0000.0001) %MON ke_volint                    =   2.5486415387666E+22
(PID.TID 0000.0001) %MON ke_volmean                   =   4.9982736367840E+02
(PID.TID 0000.0001) // =======================================================
(PID.TID 0000.0001) // End MONITOR dynamic field statistics
(PID.TID 0000.0001) // =======================================================
 cg2d: Sum(rhs),rhsMax =   1.61691567845125E+03  1.39905749272525E+04
(PID.TID 0000.0001)                    cg2d_init_res =    7.45566235260821E-02
(PID.TID 0000.0001)                       cg2d_iters =    24
(PID.TID 0000.0001)                         cg2d_res =    3.96837566622676E-13
(PID.TID 0000.0001) // =======================================================
(PID.TID 0000.0001) // Begin MONITOR dynamic field statistics
(PID.TID 0000.0001) // =======================================================
(PID.TID 0000.0001) %MON time_tsnumber                =                     6
(PID.TID 0000.0001) %MON time_secondsf                =   7.2000000000000E+03
(PID.TID 0000.0001) %MON time_secondsi                =                  7200
(PID.TID 0000.0001) %MON dynstat_eta_max              =  -1.0697252229370E+02
(PID.TID 0000.0001) %MON dynstat_eta_min              =  -1.9166254286218E+04
(PID.TID 0000.0001) %MON dynstat_eta_mean             =  -6.4575937802319E+03
(PID.TID 0000.0001) %MON dynstat_eta_sd               =   5.6908658611388E+03
(PID.TID 0000.0001) %MON dynstat_eta_del2             =   1.5257545777767E+01
(PID.TID 0000.0001) %MON dynstat_uvel_max             =   3.8590375405217E+01
(PID.TID 0000.0001) %MON dynstat_uvel_min             =  -2.7075906761146E+01
(PID.TID 0000.0001) %MON dynstat_uvel_mean            =   1.1802801583010E+01
(PID.TID 0000.0001) %MON dynstat_uvel_sd              =   1.9020126666724E+01
(PID.TID 0000.0001) %MON dynstat_uvel_del2            =   3.4145723241713E-02
(PID.TID 0000.0001) %MON dynstat_vvel_max             =   3.8590375405217E+01
(PID.TID 0000.0001) %MON dynstat_vvel_min             =  -2.7075906761146E+01
(PID.TID 0000.0001) %MON dynstat_vvel_mean            =   1.1802801583010E+01
(PID.TID 0000.0001) %MON dynstat_vvel_sd              =   1.9020126666724E+01
(PID.TID 0000.0001) %MON dynstat_vvel_del2            =   3.4145723241713E-02
(PID.TID 0000.0001) %MON dynstat_wvel_max             =   3.4080947468318E-02
(PID.TID 0000.0001) %MON dynstat_wvel_min             =  -1.8907546073285E-02
(PID.TID 0000.0001) %MON dynstat_wvel_mean            =  -1.0645546555596E-17
(PID.TID 0000.0001) %MON dynstat_wvel_sd              =   1.6192828626444E-02
(PID.TID 0000.0001) %MON dynstat_wvel_del2            =   4.6796537407434E-05
(PID.TID 0000.0001) %MON dynstat_theta_max            =   3.0000000000000E+02
(PID.TID 0000.0001) %MON dynstat_theta_min            =   3.0000000000000E+02
(PID.TID 0000.0001) %MON dynstat_theta_mean           =   3.0000000000000E+02
(PID.TID 0000.0001) %MON dynstat_theta_sd             =   3.2969182939269E-12
(PID.TID 0000.0001) %MON dynstat_theta_del2           =   0.0000000000000E+00
(PID.TID 0000.0001) %MON dynstat_salt_max             =   9.8479135932298E-01
(PID.TID 0000.0001) %MON dynstat_salt_min             =  -1.0969867914955E-02
(PID.TID 0000.0001) %MON dynstat_salt_mean            =   6.6880243045334E-03
(PID.TID 0000.0001) %MON dynstat_salt_sd              =   6.1895325487032E-02
(PID.TID 0000.0001) %MON dynstat_salt_del2            =   4.6237264076545E-04
(PID.TID 0000.0001) %MON advcfl_uvel_max              =   3.4374139374277E-01
(PID.TID 0000.0001) %MON advcfl_vvel_max              =   3.4374139374277E-01
(PID.TID 0000.0001) %MON advcfl_wvel_max              =   8.1794273923963E-04
(PID.TID 0000.0001) %MON advcfl_W_hf_max              =   0.0000000000000E+00
(PID.TID 0000.0001) %MON ke_max                       =   7.4461561141612E+02
(PID.TID 0000.0001) %MON ke_mean                      =   5.0139454105750E+02
(PID.TID 0000.0001) %MON ke_volint                    =   2.5549822667738E+22
(PID.TID 0000.0001) %MON ke_volmean                   =   5.0107087686589E+02
(PID.TID 0000.0001) // =======================================================
(PID.TID 0000.0001) // End MONITOR dynamic field statistics
(PID.TID 0000.0001) // =======================================================
 cg2d: Sum(rhs),rhsMax =   1.62058942591374E+03  1.39588594055319E+04
(PID.TID 0000.0001)                    cg2d_init_res =    7.89852684271774E-02
(PID.TID 0000.0001)                       cg2d_iters =    24
(PID.TID 0000.0001)                         cg2d_res =    3.87836173584378E-13
(PID.TID 0000.0001) // =======================================================
(PID.TID 0000.0001) // Begin MONITOR dynamic field statistics
(PID.TID 0000.0001) // =======================================================
(PID.TID 0000.0001) %MON time_tsnumber                =                     7
(PID.TID 0000.0001) %MON time_secondsf                =   8.4000000000000E+03
(PID.TID 0000.0001) %MON time_secondsi                =                  8400
(PID.TID 0000.0001) %MON dynstat_eta_max              =  -1.3470569530298E+02
(PID.TID 0000.0001) %MON dynstat_eta_min              =  -1.9122773222776E+04
(PID.TID 0000.0001) %MON dynstat_eta_mean             =  -6.4575937802319E+03
(PID.TID 0000.0001) %MON dynstat_eta_sd               =   5.6682753355093E+03
(PID.TID 0000.0001) %MON dynstat_eta_del2             =   1.5195294861197E+01
(PID.TID 0000.0001) %MON dynstat_uvel_max             =   3.8591077901239E+01
(PID.TID 0000.0001) %MON dynstat_uvel_min             =  -2.7166266771105E+01
(PID.TID 0000.0001) %MON dynstat_uvel_mean            =   1.1813744972796E+01
(PID.TID 0000.0001) %MON dynstat_uvel_sd              =   1.9048255659498E+01
(PID.TID 0000.0001) %MON dynstat_uvel_del2            =   3.4214039230462E-02
(PID.TID 0000.0001) %MON dynstat_vvel_max             =   3.8591077901239E+01
(PID.TID 0000.0001) %MON dynstat_vvel_min             =  -2.7166266771105E+01
(PID.TID 0000.0001) %MON dynstat_vvel_mean            =   1.1813744972796E+01
(PID.TID 0000.0001) %MON dynstat_vvel_sd              =   1.9048255659498E+01
(PID.TID 0000.0001) %MON dynstat_vvel_del2            =   3.4214039230462E-02
(PID.TID 0000.0001) %MON dynstat_wvel_max             =   3.6075765473601E-02
(PID.TID 0000.0001) %MON dynstat_wvel_min             =  -2.1393449793463E-02
(PID.TID 0000.0001) %MON dynstat_wvel_mean            =   3.6746506704929E-18
(PID.TID 0000.0001) %MON dynstat_wvel_sd              =   1.7886282753941E-02
(PID.TID 0000.0001) %MON dynstat_wvel_del2            =   5.2564741008715E-05
(PID.TID 0000.0001) %MON dynstat_theta_max            =   3.0000000000000E+02
(PID.TID 0000.0001) %MON dynstat_theta_min            =   3.0000000000000E+02
(PID.TID 0000.0001) %MON dynstat_theta_mean           =   3.0000000000000E+02
(PID.TID 0000.0001) %MON dynstat_theta_sd             =   3.2969182939269E-12
(PID.TID 0000.0001) %MON dynstat_theta_del2           =   0.0000000000000E+00
(PID.TID 0000.0001) %MON dynstat_salt_max             =   9.8269752361937E-01
(PID.TID 0000.0001) %MON dynstat_salt_min             =  -1.2376908239622E-02
(PID.TID 0000.0001) %MON dynstat_salt_mean            =   6.6870475789832E-03
(PID.TID 0000.0001) %MON dynstat_salt_sd              =   6.1884917184422E-02
(PID.TID 0000.0001) %MON dynstat_salt_del2            =   4.6522819182791E-04
(PID.TID 0000.0001) %MON advcfl_uvel_max              =   3.4471384650088E-01
(PID.TID 0000.0001) %MON advcfl_vvel_max              =   3.4471384650088E-01
(PID.TID 0000.0001) %MON advcfl_wvel_max              =   8.6581837136642E-04
(PID.TID 0000.0001) %MON advcfl_W_hf_max              =   0.0000000000000E+00
(PID.TID 0000.0001) %MON ke_max                       =   7.4464357914447E+02
(PID.TID 0000.0001) %MON ke_mean                      =   5.0282808601480E+02
(PID.TID 0000.0001) %MON ke_volint                    =   2.5617595636572E+22
(PID.TID 0000.0001) %MON ke_volmean                   =   5.0240000784903E+02
(PID.TID 0000.0001) // =======================================================
(PID.TID 0000.0001) // End MONITOR dynamic field statistics
(PID.TID 0000.0001) // =======================================================
 cg2d: Sum(rhs),rhsMax =   1.62411159840828E+03  1.39285871565673E+04
(PID.TID 0000.0001)                    cg2d_init_res =    8.06541710111413E-02
(PID.TID 0000.0001)                       cg2d_iters =    24
(PID.TID 0000.0001)                         cg2d_res =    3.82061394344324E-13
(PID.TID 0000.0001) // =======================================================
(PID.TID 0000.0001) // Begin MONITOR dynamic field statistics
(PID.TID 0000.0001) // =======================================================
(PID.TID 0000.0001) %MON time_tsnumber                =                     8
(PID.TID 0000.0001) %MON time_secondsf                =   9.6000000000000E+03
(PID.TID 0000.0001) %MON time_secondsi                =                  9600
(PID.TID 0000.0001) %MON dynstat_eta_max              =  -1.6401160329986E+02
(PID.TID 0000.0001) %MON dynstat_eta_min              =  -1.9081144590182E+04
(PID.TID 0000.0001) %MON dynstat_eta_mean             =  -6.4575937802319E+03
(PID.TID 0000.0001) %MON dynstat_eta_sd               =   5.6453438220822E+03
(PID.TID 0000.0001) %MON dynstat_eta_del2             =   1.5130846843483E+01
(PID.TID 0000.0001) %MON dynstat_uvel_max             =   3.8591832309617E+01
(PID.TID 0000.0001) %MON dynstat_uvel_min             =  -2.7250742404165E+01
(PID.TID 0000.0001) %MON dynstat_uvel_mean            =   1.1825186822458E+01
(PID.TID 0000.0001) %MON dynstat_uvel_sd              =   1.9076946780392E+01
(PID.TID 0000.0001) %MON dynstat_uvel_del2            =   3.4286135657049E-02
(PID.TID 0000.0001) %MON dynstat_vvel_max             =   3.8591832309617E+01
(PID.TID 0000.0001) %MON dynstat_vvel_min             =  -2.7250742404165E+01
(PID.TID 0000.0001) %MON dynstat_vvel_mean            =   1.1825186822458E+01
(PID.TID 0000.0001) %MON dynstat_vvel_sd              =   1.9076946780392E+01
(PID.TID 0000.0001) %MON dynstat_vvel_del2            =   3.4286135657049E-02
(PID.TID 0000.0001) %MON dynstat_wvel_max             =   3.6234219535152E-02
(PID.TID 0000.0001) %MON dynstat_wvel_min             =  -2.3251976777736E-02
(PID.TID 0000.0001) %MON dynstat_wvel_mean            =   1.2704246661774E-18
(PID.TID 0000.0001) %MON dynstat_wvel_sd              =   1.8927545883551E-02
(PID.TID 0000.0001) %MON dynstat_wvel_del2            =   5.7437497470819E-05
(PID.TID 0000.0001) %MON dynstat_theta_max            =   3.0000000000000E+02
(PID.TID 0000.0001) %MON dynstat_theta_min            =   3.0000000000000E+02
(PID.TID 0000.0001) %MON dynstat_theta_mean           =   3.0000000000000E+02
(PID.TID 0000.0001) %MON dynstat_theta_sd             =   3.2969182939269E-12
(PID.TID 0000.0001) %MON dynstat_theta_del2           =   0.0000000000000E+00
(PID.TID 0000.0001) %MON dynstat_salt_max             =   9.7927558966101E-01
(PID.TID 0000.0001) %MON dynstat_salt_min             =  -1.3254339006228E-02
(PID.TID 0000.0001) %MON dynstat_salt_mean            =   6.6859845521707E-03
(PID.TID 0000.0001) %MON dynstat_salt_sd              =   6.1874080641220E-02
(PID.TID 0000.0001) %MON dynstat_salt_del2            =   4.6852946783739E-04
(PID.TID 0000.0001) %MON advcfl_uvel_max              =   3.4573051528850E-01
(PID.TID 0000.0001) %MON advcfl_vvel_max              =   3.4573051528850E-01
(PID.TID 0000.0001) %MON advcfl_wvel_max              =   8.6962126884364E-04
(PID.TID 0000.0001) %MON advcfl_W_hf_max              =   0.0000000000000E+00
(PID.TID 0000.0001) %MON ke_max                       =   7.4467277384680E+02
(PID.TID 0000.0001) %MON ke_mean                      =   5.0430106347515E+02
(PID.TID 0000.0001) %MON ke_volint                    =   2.5687156175115E+22
(PID.TID 0000.0001) %MON ke_volmean                   =   5.0376419579257E+02
(PID.TID 0000.0001) // =======================================================
(PID.TID 0000.0001) // End MONITOR dynamic field statistics
(PID.TID 0000.0001) // =======================================================
 cg2d: Sum(rhs),rhsMax =   1.62732789984080E+03  1.39010582640627E+04
(PID.TID 0000.0001)                    cg2d_init_res =    7.96101571884629E-02
(PID.TID 0000.0001)                       cg2d_iters =    24
(PID.TID 0000.0001)                         cg2d_res =    3.81725143051411E-13
(PID.TID 0000.0001) // =======================================================
(PID.TID 0000.0001) // Begin MONITOR dynamic field statistics
(PID.TID 0000.0001) // =======================================================
(PID.TID 0000.0001) %MON time_tsnumber                =                     9
(PID.TID 0000.0001) %MON time_secondsf                =   1.0800000000000E+04
(PID.TID 0000.0001) %MON time_secondsi                =                 10800
(PID.TID 0000.0001) %MON dynstat_eta_max              =  -1.9402409216980E+02
(PID.TID 0000.0001) %MON dynstat_eta_min              =  -1.9043146113835E+04
(PID.TID 0000.0001) %MON dynstat_eta_mean             =  -6.4575937802319E+03
(PID.TID 0000.0001) %MON dynstat_eta_sd               =   5.6228972851933E+03
(PID.TID 0000.0001) %MON dynstat_eta_del2             =   1.5066412451862E+01
(PID.TID 0000.0001) %MON dynstat_uvel_max             =   3.8592494840526E+01
(PID.TID 0000.0001) %MON dynstat_uvel_min             =  -2.7327970860728E+01
(PID.TID 0000.0001) %MON dynstat_uvel_mean            =   1.1836736931175E+01
(PID.TID 0000.0001) %MON dynstat_uvel_sd              =   1.9105134103931E+01
(PID.TID 0000.0001) %MON dynstat_uvel_del2            =   3.4359293570335E-02
(PID.TID 0000.0001) %MON dynstat_vvel_max             =   3.8592494840526E+01
(PID.TID 0000.0001) %MON dynstat_vvel_min             =  -2.7327970860728E+01
(PID.TID 0000.0001) %MON dynstat_vvel_mean            =   1.1836736931175E+01
(PID.TID 0000.0001) %MON dynstat_vvel_sd              =   1.9105134103931E+01
(PID.TID 0000.0001) %MON dynstat_vvel_del2            =   3.4359293570335E-02
(PID.TID 0000.0001) %MON dynstat_wvel_max             =   3.4690527161812E-02
(PID.TID 0000.0001) %MON dynstat_wvel_min             =  -2.4421589997341E-02
(PID.TID 0000.0001) %MON dynstat_wvel_mean            =   8.3047201823355E-18
(PID.TID 0000.0001) %MON dynstat_wvel_sd              =   1.9308562257940E-02
(PID.TID 0000.0001) %MON dynstat_wvel_del2            =   6.1091892560617E-05
(PID.TID 0000.0001) %MON dynstat_theta_max            =   3.0000000000000E+02
(PID.TID 0000.0001) %MON dynstat_theta_min            =   3.0000000000000E+02
(PID.TID 0000.0001) %MON dynstat_theta_mean           =   3.0000000000000E+02
(PID.TID 0000.0001) %MON dynstat_theta_sd             =   3.2969182939269E-12
(PID.TID 0000.0001) %MON dynstat_theta_del2           =   0.0000000000000E+00
(PID.TID 0000.0001) %MON dynstat_salt_max             =   9.7451563471784E-01
(PID.TID 0000.0001) %MON dynstat_salt_min             =  -1.5048368195186E-02
(PID.TID 0000.0001) %MON dynstat_salt_mean            =   6.6848636685370E-03
(PID.TID 0000.0001) %MON dynstat_salt_sd              =   6.1862936227751E-02
(PID.TID 0000.0001) %MON dynstat_salt_del2            =   4.7170154548798E-04
(PID.TID 0000.0001) %MON advcfl_uvel_max              =   3.4675713456184E-01
(PID.TID 0000.0001) %MON advcfl_vvel_max              =   3.4675713456184E-01
(PID.TID 0000.0001) %MON advcfl_wvel_max              =   8.3257265188350E-04
(PID.TID 0000.0001) %MON advcfl_W_hf_max              =   0.0000000000000E+00
(PID.TID 0000.0001) %MON ke_max                       =   7.4469931559521E+02
(PID.TID 0000.0001) %MON ke_mean                      =   5.0575983174504E+02
(PID.TID 0000.0001) %MON ke_volint                    =   2.5755963397124E+22
(PID.TID 0000.0001) %MON ke_volmean                   =   5.0511361005330E+02
(PID.TID 0000.0001) // =======================================================
(PID.TID 0000.0001) // End MONITOR dynamic field statistics
(PID.TID 0000.0001) // =======================================================
 cg2d: Sum(rhs),rhsMax =   1.63011215865145E+03  1.38773150242226E+04
(PID.TID 0000.0001)                    cg2d_init_res =    7.59871544468026E-02
(PID.TID 0000.0001)                       cg2d_iters =    24
(PID.TID 0000.0001)                         cg2d_res =    3.87431359843531E-13
(PID.TID 0000.0001) // =======================================================
(PID.TID 0000.0001) // Begin MONITOR dynamic field statistics
(PID.TID 0000.0001) // =======================================================
(PID.TID 0000.0001) %MON time_tsnumber                =                    10
(PID.TID 0000.0001) %MON time_secondsf                =   1.2000000000000E+04
(PID.TID 0000.0001) %MON time_secondsi                =                 12000
(PID.TID 0000.0001) %MON dynstat_eta_max              =  -2.2379718519395E+02
(PID.TID 0000.0001) %MON dynstat_eta_min              =  -1.9010215517650E+04
(PID.TID 0000.0001) %MON dynstat_eta_mean             =  -6.4575937802319E+03
(PID.TID 0000.0001) %MON dynstat_eta_sd               =   5.6017202578242E+03
(PID.TID 0000.0001) %MON dynstat_eta_del2             =   1.5004570399322E+01
(PID.TID 0000.0001) %MON dynstat_uvel_max             =   3.8593058157935E+01
(PID.TID 0000.0001) %MON dynstat_uvel_min             =  -2.7395674790563E+01
(PID.TID 0000.0001) %MON dynstat_uvel_mean            =   1.1848003256713E+01
(PID.TID 0000.0001) %MON dynstat_uvel_sd              =   1.9131826034443E+01
(PID.TID 0000.0001) %MON dynstat_uvel_del2            =   3.4430336809610E-02
(PID.TID 0000.0001) %MON dynstat_vvel_max             =   3.8593058157935E+01
(PID.TID 0000.0001) %MON dynstat_vvel_min             =  -2.7395674790563E+01
(PID.TID 0000.0001) %MON dynstat_vvel_mean            =   1.1848003256713E+01
(PID.TID 0000.0001) %MON dynstat_vvel_sd              =   1.9131826034443E+01
(PID.TID 0000.0001) %MON dynstat_vvel_del2            =   3.4430336809610E-02
(PID.TID 0000.0001) %MON dynstat_wvel_max             =   3.1665396955483E-02
(PID.TID 0000.0001) %MON dynstat_wvel_min             =  -2.5010407391580E-02
(PID.TID 0000.0001) %MON dynstat_wvel_mean            =   1.5245319476319E-17
(PID.TID 0000.0001) %MON dynstat_wvel_sd              =   1.9043517561949E-02
(PID.TID 0000.0001) %MON dynstat_wvel_del2            =   6.3390732487288E-05
(PID.TID 0000.0001) %MON dynstat_theta_max            =   3.0000000000000E+02
(PID.TID 0000.0001) %MON dynstat_theta_min            =   3.0000000000000E+02
(PID.TID 0000.0001) %MON dynstat_theta_mean           =   3.0000000000000E+02
(PID.TID 0000.0001) %MON dynstat_theta_sd             =   3.2969182939269E-12
(PID.TID 0000.0001) %MON dynstat_theta_del2           =   0.0000000000000E+00
(PID.TID 0000.0001) %MON dynstat_salt_max             =   9.7456754204052E-01
(PID.TID 0000.0001) %MON dynstat_salt_min             =  -1.6730364787044E-02
(PID.TID 0000.0001) %MON dynstat_salt_mean            =   6.6837175728998E-03
(PID.TID 0000.0001) %MON dynstat_salt_sd              =   6.1851625755195E-02
(PID.TID 0000.0001) %MON dynstat_salt_del2            =   4.7365631712343E-04
(PID.TID 0000.0001) %MON advcfl_uvel_max              =   3.4775972432846E-01
(PID.TID 0000.0001) %MON advcfl_vvel_max              =   3.4775972432846E-01
(PID.TID 0000.0001) %MON advcfl_wvel_max              =   7.5996952693158E-04
(PID.TID 0000.0001) %MON advcfl_W_hf_max              =   0.0000000000000E+00
(PID.TID 0000.0001) %MON ke_max                       =   7.4472015220648E+02
(PID.TID 0000.0001) %MON ke_mean                      =   5.0715331659774E+02
(PID.TID 0000.0001) %MON ke_volint                    =   2.5821605217076E+22
(PID.TID 0000.0001) %MON ke_volmean                   =   5.0640094596596E+02
(PID.TID 0000.0001) // =======================================================
(PID.TID 0000.0001) // End MONITOR dynamic field statistics
(PID.TID 0000.0001) // =======================================================
 cg2d: Sum(rhs),rhsMax =   1.63237116889713E+03  1.38581104478251E+04
(PID.TID 0000.0001)                    cg2d_init_res =    6.99978309479683E-02
(PID.TID 0000.0001)                       cg2d_iters =    24
(PID.TID 0000.0001)                         cg2d_res =    3.99716739859556E-13
(PID.TID 0000.0001) // =======================================================
(PID.TID 0000.0001) // Begin MONITOR dynamic field statistics
(PID.TID 0000.0001) // =======================================================
(PID.TID 0000.0001) %MON time_tsnumber                =                    11
(PID.TID 0000.0001) %MON time_secondsf                =   1.3200000000000E+04
(PID.TID 0000.0001) %MON time_secondsi                =                 13200
(PID.TID 0000.0001) %MON dynstat_eta_max              =  -2.5232938178292E+02
(PID.TID 0000.0001) %MON dynstat_eta_min              =  -1.8983405634265E+04
(PID.TID 0000.0001) %MON dynstat_eta_mean             =  -6.4575937802320E+03
(PID.TID 0000.0001) %MON dynstat_eta_sd               =   5.5825284481373E+03
(PID.TID 0000.0001) %MON dynstat_eta_del2             =   1.4947336335749E+01
(PID.TID 0000.0001) %MON dynstat_uvel_max             =   3.8593429813609E+01
(PID.TID 0000.0001) %MON dynstat_uvel_min             =  -2.7451666122735E+01
(PID.TID 0000.0001) %MON dynstat_uvel_mean            =   1.1858605091749E+01
(PID.TID 0000.0001) %MON dynstat_uvel_sd              =   1.9156137159953E+01
(PID.TID 0000.0001) %MON dynstat_uvel_del2            =   3.4496555969810E-02
(PID.TID 0000.0001) %MON dynstat_vvel_max             =   3.8593429813609E+01
(PID.TID 0000.0001) %MON dynstat_vvel_min             =  -2.7451666122735E+01
(PID.TID 0000.0001) %MON dynstat_vvel_mean            =   1.1858605091749E+01
(PID.TID 0000.0001) %MON dynstat_vvel_sd              =   1.9156137159953E+01
(PID.TID 0000.0001) %MON dynstat_vvel_del2            =   3.4496555969810E-02
(PID.TID 0000.0001) %MON dynstat_wvel_max             =   2.7442163488126E-02
(PID.TID 0000.0001) %MON dynstat_wvel_min             =  -2.4810910853424E-02
(PID.TID 0000.0001) %MON dynstat_wvel_mean            =  -8.9697224491889E-19
(PID.TID 0000.0001) %MON dynstat_wvel_sd              =   1.8166321107741E-02
(PID.TID 0000.0001) %MON dynstat_wvel_del2            =   6.4039002054229E-05
(PID.TID 0000.0001) %MON dynstat_theta_max            =   3.0000000000000E+02
(PID.TID 0000.0001) %MON dynstat_theta_min            =   3.0000000000000E+02
(PID.TID 0000.0001) %MON dynstat_theta_mean           =   3.0000000000000E+02
(PID.TID 0000.0001) %MON dynstat_theta_sd             =   3.2969182939269E-12
(PID.TID 0000.0001) %MON dynstat_theta_del2           =   0.0000000000000E+00
(PID.TID 0000.0001) %MON dynstat_salt_max             =   9.7991744245628E-01
(PID.TID 0000.0001) %MON dynstat_salt_min             =  -1.8482519630057E-02
(PID.TID 0000.0001) %MON dynstat_salt_mean            =   6.6825824759900E-03
(PID.TID 0000.0001) %MON dynstat_salt_sd              =   6.1840309903017E-02
(PID.TID 0000.0001) %MON dynstat_salt_del2            =   4.7593185848400E-04
(PID.TID 0000.0001) %MON advcfl_uvel_max              =   3.4870572456364E-01
(PID.TID 0000.0001) %MON advcfl_vvel_max              =   3.4870572456364E-01
(PID.TID 0000.0001) %MON advcfl_wvel_max              =   6.5861192371502E-04
(PID.TID 0000.0001) %MON advcfl_W_hf_max              =   0.0000000000000E+00
(PID.TID 0000.0001) %MON ke_max                       =   7.4473509962683E+02
(PID.TID 0000.0001) %MON ke_mean                      =   5.0843471873409E+02
(PID.TID 0000.0001) %MON ke_volint                    =   2.5881878561852E+22
(PID.TID 0000.0001) %MON ke_volmean                   =   5.0758299791643E+02
(PID.TID 0000.0001) // =======================================================
(PID.TID 0000.0001) // End MONITOR dynamic field statistics
(PID.TID 0000.0001) // =======================================================
 cg2d: Sum(rhs),rhsMax =   1.63404689246113E+03  1.38438988836789E+04
(PID.TID 0000.0001)                    cg2d_init_res =    6.19283320451593E-02
(PID.TID 0000.0001)                       cg2d_iters =    24
(PID.TID 0000.0001)                         cg2d_res =    4.12063655563664E-13
(PID.TID 0000.0001) // =======================================================
(PID.TID 0000.0001) // Begin MONITOR dynamic field statistics
(PID.TID 0000.0001) // =======================================================
(PID.TID 0000.0001) %MON time_tsnumber                =                    12
(PID.TID 0000.0001) %MON time_secondsf                =   1.4400000000000E+04
(PID.TID 0000.0001) %MON time_secondsi                =                 14400
(PID.TID 0000.0001) %MON dynstat_eta_max              =  -2.7860798939119E+02
(PID.TID 0000.0001) %MON dynstat_eta_min              =  -1.8963368906911E+04
(PID.TID 0000.0001) %MON dynstat_eta_mean             =  -6.4575937802320E+03
(PID.TID 0000.0001) %MON dynstat_eta_sd               =   5.5659447602266E+03
(PID.TID 0000.0001) %MON dynstat_eta_del2             =   1.4896797294461E+01
(PID.TID 0000.0001) %MON dynstat_uvel_max             =   3.8593606812612E+01
(PID.TID 0000.0001) %MON dynstat_uvel_min             =  -2.7497051817526E+01
(PID.TID 0000.0001) %MON dynstat_uvel_mean            =   1.1868186213089E+01
(PID.TID 0000.0001) %MON dynstat_uvel_sd              =   1.9177312567326E+01
(PID.TID 0000.0001) %MON dynstat_uvel_del2            =   3.4555353985791E-02
(PID.TID 0000.0001) %MON dynstat_vvel_max             =   3.8593606812612E+01
(PID.TID 0000.0001) %MON dynstat_vvel_min             =  -2.7497051817526E+01
(PID.TID 0000.0001) %MON dynstat_vvel_mean            =   1.1868186213089E+01
(PID.TID 0000.0001) %MON dynstat_vvel_sd              =   1.9177312567326E+01
(PID.TID 0000.0001) %MON dynstat_vvel_del2            =   3.4555353985791E-02
(PID.TID 0000.0001) %MON dynstat_wvel_max             =   2.2720035760365E-02
(PID.TID 0000.0001) %MON dynstat_wvel_min             =  -2.3779107349128E-02
(PID.TID 0000.0001) %MON dynstat_wvel_mean            =   2.8837804061617E-19
(PID.TID 0000.0001) %MON dynstat_wvel_sd              =   1.6728363076834E-02
(PID.TID 0000.0001) %MON dynstat_wvel_del2            =   6.3222477971674E-05
(PID.TID 0000.0001) %MON dynstat_theta_max            =   3.0000000000000E+02
(PID.TID 0000.0001) %MON dynstat_theta_min            =   3.0000000000000E+02
(PID.TID 0000.0001) %MON dynstat_theta_mean           =   3.0000000000000E+02
(PID.TID 0000.0001) %MON dynstat_theta_sd             =   3.2969182939269E-12
(PID.TID 0000.0001) %MON dynstat_theta_del2           =   0.0000000000000E+00
(PID.TID 0000.0001) %MON dynstat_salt_max             =   9.8391783374061E-01
(PID.TID 0000.0001) %MON dynstat_salt_min             =  -1.9913041431587E-02
(PID.TID 0000.0001) %MON dynstat_salt_mean            =   6.6814971280001E-03
(PID.TID 0000.0001) %MON dynstat_salt_sd              =   6.1829163875225E-02
(PID.TID 0000.0001) %MON dynstat_salt_del2            =   4.7831291709854E-04
(PID.TID 0000.0001) %MON advcfl_uvel_max              =   3.4956508125775E-01
(PID.TID 0000.0001) %MON advcfl_vvel_max              =   3.4956508125775E-01
(PID.TID 0000.0001) %MON advcfl_wvel_max              =   5.7069857637906E-04
(PID.TID 0000.0001) %MON advcfl_W_hf_max              =   0.0000000000000E+00
(PID.TID 0000.0001) %MON ke_max                       =   7.4474290684418E+02
(PID.TID 0000.0001) %MON ke_mean                      =   5.0956294851852E+02
(PID.TID 0000.0001) %MON ke_volint                    =   2.5934856216669E+22
(PID.TID 0000.0001) %MON ke_volmean                   =   5.0862197029204E+02
(PID.TID 0000.0001) // =======================================================
(PID.TID 0000.0001) // End MONITOR dynamic field statistics
(PID.TID 0000.0001) // =======================================================
 cg2d: Sum(rhs),rhsMax =   1.63511609538673E+03  1.38348463538740E+04
(PID.TID 0000.0001)                    cg2d_init_res =    5.21414364118873E-02
(PID.TID 0000.0001)                       cg2d_iters =    24
(PID.TID 0000.0001)                         cg2d_res =    4.15617917835929E-13
(PID.TID 0000.0001) // =======================================================
(PID.TID 0000.0001) // Begin MONITOR dynamic field statistics
(PID.TID 0000.0001) // =======================================================
(PID.TID 0000.0001) %MON time_tsnumber                =                    13
(PID.TID 0000.0001) %MON time_secondsf                =   1.5600000000000E+04
(PID.TID 0000.0001) %MON time_secondsi                =                 15600
(PID.TID 0000.0001) %MON dynstat_eta_max              =  -3.0166895858611E+02
(PID.TID 0000.0001) %MON dynstat_eta_min              =  -1.8950368607116E+04
(PID.TID 0000.0001) %MON dynstat_eta_mean             =  -6.4575937802320E+03
(PID.TID 0000.0001) %MON dynstat_eta_sd               =   5.5524795983095E+03
(PID.TID 0000.0001) %MON dynstat_eta_del2             =   1.4854796299376E+01
(PID.TID 0000.0001) %MON dynstat_uvel_max             =   3.8593620742143E+01
(PID.TID 0000.0001) %MON dynstat_uvel_min             =  -2.7531362672165E+01
(PID.TID 0000.0001) %MON dynstat_uvel_mean            =   1.1876427490753E+01
(PID.TID 0000.0001) %MON dynstat_uvel_sd              =   1.9194744677096E+01
(PID.TID 0000.0001) %MON dynstat_uvel_del2            =   3.4604939485358E-02
(PID.TID 0000.0001) %MON dynstat_vvel_max             =   3.8593620742143E+01
(PID.TID 0000.0001) %MON dynstat_vvel_min             =  -2.7531362672165E+01
(PID.TID 0000.0001) %MON dynstat_vvel_mean            =   1.1876427490753E+01
(PID.TID 0000.0001) %MON dynstat_vvel_sd              =   1.9194744677096E+01
(PID.TID 0000.0001) %MON dynstat_vvel_del2            =   3.4604939485358E-02
(PID.TID 0000.0001) %MON dynstat_wvel_max             =   1.8629944093506E-02
(PID.TID 0000.0001) %MON dynstat_wvel_min             =  -2.1905968014041E-02
(PID.TID 0000.0001) %MON dynstat_wvel_mean            =   1.2648743721732E-18
(PID.TID 0000.0001) %MON dynstat_wvel_sd              =   1.4797211610594E-02
(PID.TID 0000.0001) %MON dynstat_wvel_del2            =   6.1515077457218E-05
(PID.TID 0000.0001) %MON dynstat_theta_max            =   3.0000000000000E+02
(PID.TID 0000.0001) %MON dynstat_theta_min            =   3.0000000000000E+02
(PID.TID 0000.0001) %MON dynstat_theta_mean           =   3.0000000000000E+02
(PID.TID 0000.0001) %MON dynstat_theta_sd             =   3.2969182939269E-12
(PID.TID 0000.0001) %MON dynstat_theta_del2           =   0.0000000000000E+00
(PID.TID 0000.0001) %MON dynstat_salt_max             =   9.8654327191348E-01
(PID.TID 0000.0001) %MON dynstat_salt_min             =  -2.0688965263699E-02
(PID.TID 0000.0001) %MON dynstat_salt_mean            =   6.6805013626890E-03
(PID.TID 0000.0001) %MON dynstat_salt_sd              =   6.1818370949618E-02
(PID.TID 0000.0001) %MON dynstat_salt_del2            =   4.8022580057030E-04
(PID.TID 0000.0001) %MON advcfl_uvel_max              =   3.5031124696371E-01
(PID.TID 0000.0001) %MON advcfl_vvel_max              =   3.5031124696371E-01
(PID.TID 0000.0001) %MON advcfl_wvel_max              =   5.2574323233699E-04
(PID.TID 0000.0001) %MON advcfl_W_hf_max              =   0.0000000000000E+00
(PID.TID 0000.0001) %MON ke_max                       =   7.4474433534658E+02
(PID.TID 0000.0001) %MON ke_mean                      =   5.1050376140800E+02
(PID.TID 0000.0001) %MON ke_volint                    =   2.5978939161955E+22
(PID.TID 0000.0001) %MON ke_volmean                   =   5.0948650388729E+02
(PID.TID 0000.0001) // =======================================================
(PID.TID 0000.0001) // End MONITOR dynamic field statistics
(PID.TID 0000.0001) // =======================================================
 cg2d: Sum(rhs),rhsMax =   1.63558767305360E+03  1.38308574484351E+04
(PID.TID 0000.0001)                    cg2d_init_res =    4.11037880906373E-02
(PID.TID 0000.0001)                       cg2d_iters =    24
(PID.TID 0000.0001)                         cg2d_res =    4.03842563883091E-13
(PID.TID 0000.0001) // =======================================================
(PID.TID 0000.0001) // Begin MONITOR dynamic field statistics
(PID.TID 0000.0001) // =======================================================
(PID.TID 0000.0001) %MON time_tsnumber                =                    14
(PID.TID 0000.0001) %MON time_secondsf                =   1.6800000000000E+04
(PID.TID 0000.0001) %MON time_secondsi                =                 16800
(PID.TID 0000.0001) %MON dynstat_eta_max              =  -3.2063287857395E+02
(PID.TID 0000.0001) %MON dynstat_eta_min              =  -1.8944312857831E+04
(PID.TID 0000.0001) %MON dynstat_eta_mean             =  -6.4575937802320E+03
(PID.TID 0000.0001) %MON dynstat_eta_sd               =   5.5425161450142E+03
(PID.TID 0000.0001) %MON dynstat_eta_del2             =   1.4822696767594E+01
(PID.TID 0000.0001) %MON dynstat_uvel_max             =   3.8593525525488E+01
(PID.TID 0000.0001) %MON dynstat_uvel_min             =  -2.7555123171363E+01
(PID.TID 0000.0001) %MON dynstat_uvel_mean            =   1.1883058428450E+01
(PID.TID 0000.0001) %MON dynstat_uvel_sd              =   1.9207983059377E+01
(PID.TID 0000.0001) %MON dynstat_uvel_del2            =   3.4644197108195E-02
(PID.TID 0000.0001) %MON dynstat_vvel_max             =   3.8593525525488E+01
(PID.TID 0000.0001) %MON dynstat_vvel_min             =  -2.7555123171363E+01
(PID.TID 0000.0001) %MON dynstat_vvel_mean            =   1.1883058428450E+01
(PID.TID 0000.0001) %MON dynstat_vvel_sd              =   1.9207983059377E+01
(PID.TID 0000.0001) %MON dynstat_vvel_del2            =   3.4644197108195E-02
(PID.TID 0000.0001) %MON dynstat_wvel_max             =   1.4993291010077E-02
(PID.TID 0000.0001) %MON dynstat_wvel_min             =  -1.9226572131883E-02
(PID.TID 0000.0001) %MON dynstat_wvel_mean            =  -1.1279026445824E-18
(PID.TID 0000.0001) %MON dynstat_wvel_sd              =   1.2457416773793E-02
(PID.TID 0000.0001) %MON dynstat_wvel_del2            =   5.8795444846117E-05
(PID.TID 0000.0001) %MON dynstat_theta_max            =   3.0000000000000E+02
(PID.TID 0000.0001) %MON dynstat_theta_min            =   3.0000000000000E+02
(PID.TID 0000.0001) %MON dynstat_theta_mean           =   3.0000000000000E+02
(PID.TID 0000.0001) %MON dynstat_theta_sd             =   3.2969182939269E-12
(PID.TID 0000.0001) %MON dynstat_theta_del2           =   0.0000000000000E+00
(PID.TID 0000.0001) %MON dynstat_salt_max             =   9.8777533877890E-01
(PID.TID 0000.0001) %MON dynstat_salt_min             =  -2.0867848075537E-02
(PID.TID 0000.0001) %MON dynstat_salt_mean            =   6.6796342513281E-03
(PID.TID 0000.0001) %MON dynstat_salt_sd              =   6.1808113964306E-02
(PID.TID 0000.0001) %MON dynstat_salt_del2            =   4.8190576175429E-04
(PID.TID 0000.0001) %MON advcfl_uvel_max              =   3.5092206908042E-01
(PID.TID 0000.0001) %MON advcfl_vvel_max              =   3.5092206908042E-01
(PID.TID 0000.0001) %MON advcfl_wvel_max              =   4.6143773116520E-04
(PID.TID 0000.0001) %MON advcfl_W_hf_max              =   0.0000000000000E+00
(PID.TID 0000.0001) %MON ke_max                       =   7.4474147238144E+02
(PID.TID 0000.0001) %MON ke_mean                      =   5.1123058365555E+02
(PID.TID 0000.0001) %MON ke_volint                    =   2.6012894012722E+22
(PID.TID 0000.0001) %MON ke_volmean                   =   5.1015241014696E+02
(PID.TID 0000.0001) // =======================================================
(PID.TID 0000.0001) // End MONITOR dynamic field statistics
(PID.TID 0000.0001) // =======================================================
 cg2d: Sum(rhs),rhsMax =   1.63549807072679E+03  1.38316151851950E+04
(PID.TID 0000.0001)                    cg2d_init_res =    2.95023686334881E-02
(PID.TID 0000.0001)                       cg2d_iters =    24
(PID.TID 0000.0001)                         cg2d_res =    3.71652685915912E-13
(PID.TID 0000.0001) // =======================================================
(PID.TID 0000.0001) // Begin MONITOR dynamic field statistics
(PID.TID 0000.0001) // =======================================================
(PID.TID 0000.0001) %MON time_tsnumber                =                    15
(PID.TID 0000.0001) %MON time_secondsf                =   1.8000000000000E+04
(PID.TID 0000.0001) %MON time_secondsi                =                 18000
(PID.TID 0000.0001) %MON dynstat_eta_max              =  -3.3475627066421E+02
(PID.TID 0000.0001) %MON dynstat_eta_min              =  -1.8944806591568E+04
(PID.TID 0000.0001) %MON dynstat_eta_mean             =  -6.4575937802320E+03
(PID.TID 0000.0001) %MON dynstat_eta_sd               =   5.5363010614419E+03
(PID.TID 0000.0001) %MON dynstat_eta_del2             =   1.4801827330421E+01
(PID.TID 0000.0001) %MON dynstat_uvel_max             =   3.8593384504106E+01
(PID.TID 0000.0001) %MON dynstat_uvel_min             =  -2.7569242331775E+01
(PID.TID 0000.0001) %MON dynstat_uvel_mean            =   1.1887867120704E+01
(PID.TID 0000.0001) %MON dynstat_uvel_sd              =   1.9216737983603E+01
(PID.TID 0000.0001) %MON dynstat_uvel_del2            =   3.4677220469875E-02
(PID.TID 0000.0001) %MON dynstat_vvel_max             =   3.8593384504106E+01
(PID.TID 0000.0001) %MON dynstat_vvel_min             =  -2.7569242331775E+01
(PID.TID 0000.0001) %MON dynstat_vvel_mean            =   1.1887867120704E+01
(PID.TID 0000.0001) %MON dynstat_vvel_sd              =   1.9216737983603E+01
(PID.TID 0000.0001) %MON dynstat_vvel_del2            =   3.4677220469875E-02
(PID.TID 0000.0001) %MON dynstat_wvel_max             =   1.1572456716464E-02
(PID.TID 0000.0001) %MON dynstat_wvel_min             =  -1.5816555575082E-02
(PID.TID 0000.0001) %MON dynstat_wvel_mean            =   3.0646105276285E-18
(PID.TID 0000.0001) %MON dynstat_wvel_sd              =   9.8169089457148E-03
(PID.TID 0000.0001) %MON dynstat_wvel_del2            =   5.4200996590768E-05
(PID.TID 0000.0001) %MON dynstat_theta_max            =   3.0000000000000E+02
(PID.TID 0000.0001) %MON dynstat_theta_min            =   3.0000000000000E+02
(PID.TID 0000.0001) %MON dynstat_theta_mean           =   3.0000000000000E+02
(PID.TID 0000.0001) %MON dynstat_theta_sd             =   3.2969182939269E-12
(PID.TID 0000.0001) %MON dynstat_theta_del2           =   0.0000000000000E+00
(PID.TID 0000.0001) %MON dynstat_salt_max             =   9.8760324505153E-01
(PID.TID 0000.0001) %MON dynstat_salt_min             =  -2.0510207605153E-02
(PID.TID 0000.0001) %MON dynstat_salt_mean            =   6.6789319901157E-03
(PID.TID 0000.0001) %MON dynstat_salt_sd              =   6.1798565269003E-02
(PID.TID 0000.0001) %MON dynstat_salt_del2            =   4.8357788112073E-04
(PID.TID 0000.0001) %MON advcfl_uvel_max              =   3.5138053863598E-01
(PID.TID 0000.0001) %MON advcfl_vvel_max              =   3.5138053863598E-01
(PID.TID 0000.0001) %MON advcfl_wvel_max              =   3.7959733380197E-04
(PID.TID 0000.0001) %MON advcfl_W_hf_max              =   0.0000000000000E+00
(PID.TID 0000.0001) %MON ke_max                       =   7.4473700983490E+02
(PID.TID 0000.0001) %MON ke_mean                      =   5.1172503185335E+02
(PID.TID 0000.0001) %MON ke_volint                    =   2.6035875831158E+22
(PID.TID 0000.0001) %MON ke_volmean                   =   5.1060311855561E+02
(PID.TID 0000.0001) // =======================================================
(PID.TID 0000.0001) // End MONITOR dynamic field statistics
(PID.TID 0000.0001) // =======================================================
 cg2d: Sum(rhs),rhsMax =   1.63490534302313E+03  1.38366297761263E+04
(PID.TID 0000.0001)                    cg2d_init_res =    1.88069818222691E-02
(PID.TID 0000.0001)                       cg2d_iters =    24
(PID.TID 0000.0001)                         cg2d_res =    3.15039441087860E-13
(PID.TID 0000.0001) // =======================================================
(PID.TID 0000.0001) // Begin MONITOR dynamic field statistics
(PID.TID 0000.0001) // =======================================================
(PID.TID 0000.0001) %MON time_tsnumber                =                    16
(PID.TID 0000.0001) %MON time_secondsf                =   1.9200000000000E+04
(PID.TID 0000.0001) %MON time_secondsi                =                 19200
(PID.TID 0000.0001) %MON dynstat_eta_max              =  -3.4348836978951E+02
(PID.TID 0000.0001) %MON dynstat_eta_min              =  -1.8951215701298E+04
(PID.TID 0000.0001) %MON dynstat_eta_mean             =  -6.4575937802320E+03
(PID.TID 0000.0001) %MON dynstat_eta_sd               =   5.5339407640115E+03
(PID.TID 0000.0001) %MON dynstat_eta_del2             =   1.4792522831240E+01
(PID.TID 0000.0001) %MON dynstat_uvel_max             =   3.8593258969315E+01
(PID.TID 0000.0001) %MON dynstat_uvel_min             =  -2.7575149388058E+01
(PID.TID 0000.0001) %MON dynstat_uvel_mean            =   1.1890708155767E+01
(PID.TID 0000.0001) %MON dynstat_uvel_sd              =   1.9220878638205E+01
(PID.TID 0000.0001) %MON dynstat_uvel_del2            =   3.4698278183678E-02
(PID.TID 0000.0001) %MON dynstat_vvel_max             =   3.8593258969315E+01
(PID.TID 0000.0001) %MON dynstat_vvel_min             =  -2.7575149388058E+01
(PID.TID 0000.0001) %MON dynstat_vvel_mean            =   1.1890708155767E+01
(PID.TID 0000.0001) %MON dynstat_vvel_sd              =   1.9220878638205E+01
(PID.TID 0000.0001) %MON dynstat_vvel_del2            =   3.4698278183678E-02
(PID.TID 0000.0001) %MON dynstat_wvel_max             =   8.4318837427310E-03
(PID.TID 0000.0001) %MON dynstat_wvel_min             =  -1.1800346974477E-02
(PID.TID 0000.0001) %MON dynstat_wvel_mean            =   2.3625306876208E-19
(PID.TID 0000.0001) %MON dynstat_wvel_sd              =   7.0338208726440E-03
(PID.TID 0000.0001) %MON dynstat_wvel_del2            =   4.7801746616442E-05
(PID.TID 0000.0001) %MON dynstat_theta_max            =   3.0000000000000E+02
(PID.TID 0000.0001) %MON dynstat_theta_min            =   3.0000000000000E+02
(PID.TID 0000.0001) %MON dynstat_theta_mean           =   3.0000000000000E+02
(PID.TID 0000.0001) %MON dynstat_theta_sd             =   3.2969182939269E-12
(PID.TID 0000.0001) %MON dynstat_theta_del2           =   0.0000000000000E+00
(PID.TID 0000.0001) %MON dynstat_salt_max             =   9.8602414931550E-01
(PID.TID 0000.0001) %MON dynstat_salt_min             =  -2.1559037047321E-02
(PID.TID 0000.0001) %MON dynstat_salt_mean            =   6.6784257081322E-03
(PID.TID 0000.0001) %MON dynstat_salt_sd              =   6.1789876060541E-02
(PID.TID 0000.0001) %MON dynstat_salt_del2            =   4.8535927554490E-04
(PID.TID 0000.0001) %MON advcfl_uvel_max              =   3.5167537113488E-01
(PID.TID 0000.0001) %MON advcfl_vvel_max              =   3.5167537113488E-01
(PID.TID 0000.0001) %MON advcfl_wvel_max              =   2.8320832738746E-04
(PID.TID 0000.0001) %MON advcfl_W_hf_max              =   0.0000000000000E+00
(PID.TID 0000.0001) %MON ke_max                       =   7.4473460679491E+02
(PID.TID 0000.0001) %MON ke_mean                      =   5.1197714126522E+02
(PID.TID 0000.0001) %MON ke_volint                    =   2.6047437128285E+22
(PID.TID 0000.0001) %MON ke_volmean                   =   5.1082985317387E+02
(PID.TID 0000.0001) // =======================================================
(PID.TID 0000.0001) // End MONITOR dynamic field statistics
(PID.TID 0000.0001) // =======================================================
 cg2d: Sum(rhs),rhsMax =   1.63388250901825E+03  1.38452917058366E+04
(PID.TID 0000.0001)                    cg2d_init_res =    1.38012799333408E-02
(PID.TID 0000.0001)                       cg2d_iters =    23
(PID.TID 0000.0001)                         cg2d_res =    9.09511284781106E-13
(PID.TID 0000.0001) // =======================================================
(PID.TID 0000.0001) // Begin MONITOR dynamic field statistics
(PID.TID 0000.0001) // =======================================================
(PID.TID 0000.0001) %MON time_tsnumber                =                    17
(PID.TID 0000.0001) %MON time_secondsf                =   2.0400000000000E+04
(PID.TID 0000.0001) %MON time_secondsi                =                 20400
(PID.TID 0000.0001) %MON dynstat_eta_max              =  -3.4647577590632E+02
(PID.TID 0000.0001) %MON dynstat_eta_min              =  -1.8962736962333E+04
(PID.TID 0000.0001) %MON dynstat_eta_mean             =  -6.4575937802320E+03
(PID.TID 0000.0001) %MON dynstat_eta_sd               =   5.5354031232160E+03
(PID.TID 0000.0001) %MON dynstat_eta_del2             =   1.4794810978191E+01
(PID.TID 0000.0001) %MON dynstat_uvel_max             =   3.8593231619058E+01
(PID.TID 0000.0001) %MON dynstat_uvel_min             =  -2.7572735324297E+01
(PID.TID 0000.0001) %MON dynstat_uvel_mean            =   1.1891508066470E+01
(PID.TID 0000.0001) %MON dynstat_uvel_sd              =   1.9220427032278E+01
(PID.TID 0000.0001) %MON dynstat_uvel_del2            =   3.4708140616643E-02
(PID.TID 0000.0001) %MON dynstat_vvel_max             =   3.8593231619058E+01
(PID.TID 0000.0001) %MON dynstat_vvel_min             =  -2.7572735324297E+01
(PID.TID 0000.0001) %MON dynstat_vvel_mean            =   1.1891508066470E+01
(PID.TID 0000.0001) %MON dynstat_vvel_sd              =   1.9220427032278E+01
(PID.TID 0000.0001) %MON dynstat_vvel_del2            =   3.4708140616643E-02
(PID.TID 0000.0001) %MON dynstat_wvel_max             =   5.7391557331216E-03
(PID.TID 0000.0001) %MON dynstat_wvel_min             =  -7.3680160684583E-03
(PID.TID 0000.0001) %MON dynstat_wvel_mean            =   4.7998397243339E-20
(PID.TID 0000.0001) %MON dynstat_wvel_sd              =   4.4473185274502E-03
(PID.TID 0000.0001) %MON dynstat_wvel_del2            =   3.9688974831817E-05
(PID.TID 0000.0001) %MON dynstat_theta_max            =   3.0000000000000E+02
(PID.TID 0000.0001) %MON dynstat_theta_min            =   3.0000000000000E+02
(PID.TID 0000.0001) %MON dynstat_theta_mean           =   3.0000000000000E+02
(PID.TID 0000.0001) %MON dynstat_theta_sd             =   3.2969182939269E-12
(PID.TID 0000.0001) %MON dynstat_theta_del2           =   0.0000000000000E+00
(PID.TID 0000.0001) %MON dynstat_salt_max             =   9.8304319399895E-01
(PID.TID 0000.0001) %MON dynstat_salt_min             =  -2.2558863305415E-02
(PID.TID 0000.0001) %MON dynstat_salt_mean            =   6.6781394090968E-03
(PID.TID 0000.0001) %MON dynstat_salt_sd              =   6.1782166201743E-02
(PID.TID 0000.0001) %MON dynstat_salt_del2            =   4.8754747670080E-04
(PID.TID 0000.0001) %MON advcfl_uvel_max              =   3.5180139068450E-01
(PID.TID 0000.0001) %MON advcfl_vvel_max              =   3.5180139068450E-01
(PID.TID 0000.0001) %MON advcfl_wvel_max              =   1.7683238564300E-04
(PID.TID 0000.0001) %MON advcfl_W_hf_max              =   0.0000000000000E+00
(PID.TID 0000.0001) %MON ke_max                       =   7.4473494063385E+02
(PID.TID 0000.0001) %MON ke_mean                      =   5.1198532621482E+02
(PID.TID 0000.0001) %MON ke_volint                    =   2.6047524273878E+22
(PID.TID 0000.0001) %MON ke_volmean                   =   5.1083156223147E+02
(PID.TID 0000.0001) // =======================================================
(PID.TID 0000.0001) // End MONITOR dynamic field statistics
(PID.TID 0000.0001) // =======================================================
 cg2d: Sum(rhs),rhsMax =   1.63251091084571E+03  1.38569242019356E+04
(PID.TID 0000.0001)                    cg2d_init_res =    1.96054780906934E-02
(PID.TID 0000.0001)                       cg2d_iters =    23
(PID.TID 0000.0001)                         cg2d_res =    6.48914942212366E-13
(PID.TID 0000.0001) // =======================================================
(PID.TID 0000.0001) // Begin MONITOR dynamic field statistics
(PID.TID 0000.0001) // =======================================================
(PID.TID 0000.0001) %MON time_tsnumber                =                    18
(PID.TID 0000.0001) %MON time_secondsf                =   2.1600000000000E+04
(PID.TID 0000.0001) %MON time_secondsi                =                 21600
(PID.TID 0000.0001) %MON dynstat_eta_max              =  -3.4359235328521E+02
(PID.TID 0000.0001) %MON dynstat_eta_min              =  -1.8978467147999E+04
(PID.TID 0000.0001) %MON dynstat_eta_mean             =  -6.4575937802319E+03
(PID.TID 0000.0001) %MON dynstat_eta_sd               =   5.5405241445701E+03
(PID.TID 0000.0001) %MON dynstat_eta_del2             =   1.4808426499312E+01
(PID.TID 0000.0001) %MON dynstat_uvel_max             =   3.8593306201794E+01
(PID.TID 0000.0001) %MON dynstat_uvel_min             =  -2.7561901861942E+01
(PID.TID 0000.0001) %MON dynstat_uvel_mean            =   1.1890268030476E+01
(PID.TID 0000.0001) %MON dynstat_uvel_sd              =   1.9215548561385E+01
(PID.TID 0000.0001) %MON dynstat_uvel_del2            =   3.4709113080930E-02
(PID.TID 0000.0001) %MON dynstat_vvel_max             =   3.8593306201794E+01
(PID.TID 0000.0001) %MON dynstat_vvel_min             =  -2.7561901861942E+01
(PID.TID 0000.0001) %MON dynstat_vvel_mean            =   1.1890268030476E+01
(PID.TID 0000.0001) %MON dynstat_vvel_sd              =   1.9215548561385E+01
(PID.TID 0000.0001) %MON dynstat_vvel_del2            =   3.4709113080930E-02
(PID.TID 0000.0001) %MON dynstat_wvel_max             =   4.0322207561181E-03
(PID.TID 0000.0001) %MON dynstat_wvel_min             =  -9.6010508629255E-03
(PID.TID 0000.0001) %MON dynstat_wvel_mean            =   5.0017564163164E-20
(PID.TID 0000.0001) %MON dynstat_wvel_sd              =   3.2040936463825E-03
(PID.TID 0000.0001) %MON dynstat_wvel_del2            =   3.0723709952954E-05
(PID.TID 0000.0001) %MON dynstat_theta_max            =   3.0000000000000E+02
(PID.TID 0000.0001) %MON dynstat_theta_min            =   3.0000000000000E+02
(PID.TID 0000.0001) %MON dynstat_theta_mean           =   3.0000000000000E+02
(PID.TID 0000.0001) %MON dynstat_theta_sd             =   3.2969182939269E-12
(PID.TID 0000.0001) %MON dynstat_theta_del2           =   0.0000000000000E+00
(PID.TID 0000.0001) %MON dynstat_salt_max             =   9.7867327455466E-01
(PID.TID 0000.0001) %MON dynstat_salt_min             =  -2.4650764831439E-02
(PID.TID 0000.0001) %MON dynstat_salt_mean            =   6.6780882479617E-03
(PID.TID 0000.0001) %MON dynstat_salt_sd              =   6.1775515572463E-02
(PID.TID 0000.0001) %MON dynstat_salt_del2            =   4.8965846083969E-04
(PID.TID 0000.0001) %MON advcfl_uvel_max              =   3.5175969090153E-01
(PID.TID 0000.0001) %MON advcfl_vvel_max              =   3.5175969090153E-01
(PID.TID 0000.0001) %MON advcfl_wvel_max              =   2.3042522071021E-04
(PID.TID 0000.0001) %MON advcfl_W_hf_max              =   0.0000000000000E+00
(PID.TID 0000.0001) %MON ke_max                       =   7.4473923121331E+02
(PID.TID 0000.0001) %MON ke_mean                      =   5.1175610066591E+02
(PID.TID 0000.0001) %MON ke_volint                    =   2.6036462769002E+22
(PID.TID 0000.0001) %MON ke_volmean                   =   5.1061462929930E+02
(PID.TID 0000.0001) // =======================================================
(PID.TID 0000.0001) // End MONITOR dynamic field statistics
(PID.TID 0000.0001) // =======================================================
 cg2d: Sum(rhs),rhsMax =   1.63087423155167E+03  1.38708304495674E+04
(PID.TID 0000.0001)                    cg2d_init_res =    2.98576798986106E-02
(PID.TID 0000.0001)                       cg2d_iters =    23
(PID.TID 0000.0001)                         cg2d_res =    8.51932486381665E-13
(PID.TID 0000.0001) // =======================================================
(PID.TID 0000.0001) // Begin MONITOR dynamic field statistics
(PID.TID 0000.0001) // =======================================================
(PID.TID 0000.0001) %MON time_tsnumber                =                    19
(PID.TID 0000.0001) %MON time_secondsf                =   2.2800000000000E+04
(PID.TID 0000.0001) %MON time_secondsi                =                 22800
(PID.TID 0000.0001) %MON dynstat_eta_max              =  -3.3494853380963E+02
(PID.TID 0000.0001) %MON dynstat_eta_min              =  -1.8997465434693E+04
(PID.TID 0000.0001) %MON dynstat_eta_mean             =  -6.4575937802319E+03
(PID.TID 0000.0001) %MON dynstat_eta_sd               =   5.5490189722072E+03
(PID.TID 0000.0001) %MON dynstat_eta_del2             =   1.4832537211309E+01
(PID.TID 0000.0001) %MON dynstat_uvel_max             =   3.8593490424256E+01
(PID.TID 0000.0001) %MON dynstat_uvel_min             =  -2.7542690967067E+01
(PID.TID 0000.0001) %MON dynstat_uvel_mean            =   1.1887063642211E+01
(PID.TID 0000.0001) %MON dynstat_uvel_sd              =   1.9206540091188E+01
(PID.TID 0000.0001) %MON dynstat_uvel_del2            =   3.4705816535447E-02
(PID.TID 0000.0001) %MON dynstat_vvel_max             =   3.8593490424256E+01
(PID.TID 0000.0001) %MON dynstat_vvel_min             =  -2.7542690967067E+01
(PID.TID 0000.0001) %MON dynstat_vvel_mean            =   1.1887063642211E+01
(PID.TID 0000.0001) %MON dynstat_vvel_sd              =   1.9206540091188E+01
(PID.TID 0000.0001) %MON dynstat_vvel_del2            =   3.4705816535447E-02
(PID.TID 0000.0001) %MON dynstat_wvel_max             =   3.6368644097987E-03
(PID.TID 0000.0001) %MON dynstat_wvel_min             =  -1.3108488055017E-02
(PID.TID 0000.0001) %MON dynstat_wvel_mean            =   3.6267907783429E-18
(PID.TID 0000.0001) %MON dynstat_wvel_sd              =   4.6102158975827E-03
(PID.TID 0000.0001) %MON dynstat_wvel_del2            =   2.2554355687725E-05
(PID.TID 0000.0001) %MON dynstat_theta_max            =   3.0000000000000E+02
(PID.TID 0000.0001) %MON dynstat_theta_min            =   3.0000000000000E+02
(PID.TID 0000.0001) %MON dynstat_theta_mean           =   3.0000000000000E+02
(PID.TID 0000.0001) %MON dynstat_theta_sd             =   3.2969182939269E-12
(PID.TID 0000.0001) %MON dynstat_theta_del2           =   0.0000000000000E+00
(PID.TID 0000.0001) %MON dynstat_salt_max             =   9.7556810590929E-01
(PID.TID 0000.0001) %MON dynstat_salt_min             =  -2.6521383970751E-02
(PID.TID 0000.0001) %MON dynstat_salt_mean            =   6.6782773025939E-03
(PID.TID 0000.0001) %MON dynstat_salt_sd              =   6.1769957781316E-02
(PID.TID 0000.0001) %MON dynstat_salt_del2            =   4.9109720719142E-04
(PID.TID 0000.0001) %MON advcfl_uvel_max              =   3.5155755234019E-01
(PID.TID 0000.0001) %MON advcfl_vvel_max              =   3.5155755234019E-01
(PID.TID 0000.0001) %MON advcfl_wvel_max              =   3.1460371332040E-04
(PID.TID 0000.0001) %MON advcfl_W_hf_max              =   0.0000000000000E+00
(PID.TID 0000.0001) %MON ke_max                       =   7.4474806678037E+02
(PID.TID 0000.0001) %MON ke_mean                      =   5.1130358846938E+02
(PID.TID 0000.0001) %MON ke_volint                    =   2.6014932891399E+22
(PID.TID 0000.0001) %MON ke_volmean                   =   5.1019239565841E+02
(PID.TID 0000.0001) // =======================================================
(PID.TID 0000.0001) // End MONITOR dynamic field statistics
(PID.TID 0000.0001) // =======================================================
 cg2d: Sum(rhs),rhsMax =   1.62905366328569E+03  1.38863319608487E+04
(PID.TID 0000.0001)                    cg2d_init_res =    4.03262479572467E-02
(PID.TID 0000.0001)                       cg2d_iters =    23
(PID.TID 0000.0001)                         cg2d_res =    9.92210286289045E-13
(PID.TID 0000.0001) // =======================================================
(PID.TID 0000.0001) // Begin MONITOR dynamic field statistics
(PID.TID 0000.0001) // =======================================================
(PID.TID 0000.0001) %MON time_tsnumber                =                    20
(PID.TID 0000.0001) %MON time_secondsf                =   2.4000000000000E+04
(PID.TID 0000.0001) %MON time_secondsi                =                 24000
(PID.TID 0000.0001) %MON dynstat_eta_max              =  -3.2088980453467E+02
(PID.TID 0000.0001) %MON dynstat_eta_min              =  -1.9018804723457E+04
(PID.TID 0000.0001) %MON dynstat_eta_mean             =  -6.4575937802320E+03
(PID.TID 0000.0001) %MON dynstat_eta_sd               =   5.5604964266614E+03
(PID.TID 0000.0001) %MON dynstat_eta_del2             =   1.4865938450027E+01
(PID.TID 0000.0001) %MON dynstat_uvel_max             =   3.8593785023993E+01
(PID.TID 0000.0001) %MON dynstat_uvel_min             =  -2.7514952569648E+01
(PID.TID 0000.0001) %MON dynstat_uvel_mean            =   1.1882041714673E+01
(PID.TID 0000.0001) %MON dynstat_uvel_sd              =   1.9193816204949E+01
(PID.TID 0000.0001) %MON dynstat_uvel_del2            =   3.4696940831107E-02
(PID.TID 0000.0001) %MON dynstat_vvel_max             =   3.8593785023993E+01
(PID.TID 0000.0001) %MON dynstat_vvel_min             =  -2.7514952569648E+01
(PID.TID 0000.0001) %MON dynstat_vvel_mean            =   1.1882041714673E+01
(PID.TID 0000.0001) %MON dynstat_vvel_sd              =   1.9193816204949E+01
(PID.TID 0000.0001) %MON dynstat_vvel_del2            =   3.4696940831107E-02
(PID.TID 0000.0001) %MON dynstat_wvel_max             =   7.2060767716395E-03
(PID.TID 0000.0001) %MON dynstat_wvel_min             =  -1.5831905578030E-02
(PID.TID 0000.0001) %MON dynstat_wvel_mean            =   5.3166539729630E-19
(PID.TID 0000.0001) %MON dynstat_wvel_sd              =   7.0952519622580E-03
(PID.TID 0000.0001) %MON dynstat_wvel_del2            =   2.3031358733927E-05
(PID.TID 0000.0001) %MON dynstat_theta_max            =   3.0000000000000E+02
(PID.TID 0000.0001) %MON dynstat_theta_min            =   3.0000000000000E+02
(PID.TID 0000.0001) %MON dynstat_theta_mean           =   3.0000000000000E+02
(PID.TID 0000.0001) %MON dynstat_theta_sd             =   3.2969182939269E-12
(PID.TID 0000.0001) %MON dynstat_theta_del2           =   0.0000000000000E+00
(PID.TID 0000.0001) %MON dynstat_salt_max             =   9.8130806022614E-01
(PID.TID 0000.0001) %MON dynstat_salt_min             =  -2.7820006162230E-02
(PID.TID 0000.0001) %MON dynstat_salt_mean            =   6.6787009454149E-03
(PID.TID 0000.0001) %MON dynstat_salt_sd              =   6.1765476765751E-02
(PID.TID 0000.0001) %MON dynstat_salt_del2            =   4.9182470781216E-04
(PID.TID 0000.0001) %MON advcfl_uvel_max              =   3.5120810666054E-01
(PID.TID 0000.0001) %MON advcfl_vvel_max              =   3.5120810666054E-01
(PID.TID 0000.0001) %MON advcfl_wvel_max              =   3.7996573387272E-04
(PID.TID 0000.0001) %MON advcfl_W_hf_max              =   0.0000000000000E+00
(PID.TID 0000.0001) %MON ke_max                       =   7.4476140343769E+02
(PID.TID 0000.0001) %MON ke_mean                      =   5.1064885097372E+02
(PID.TID 0000.0001) %MON ke_volint                    =   2.5983937117219E+22
(PID.TID 0000.0001) %MON ke_volmean                   =   5.0958452139056E+02
(PID.TID 0000.0001) // =======================================================
(PID.TID 0000.0001) // End MONITOR dynamic field statistics
(PID.TID 0000.0001) // =======================================================
(PID.TID 0000.0001)   Seconds in section "ALL                [THE_MODEL_MAIN]":
(PID.TID 0000.0001)           User time:  6.25999998
(PID.TID 0000.0001)         System time:  0.119999997
(PID.TID 0000.0001)     Wall clock time:  6.47122908
(PID.TID 0000.0001)          No. starts: 1
(PID.TID 0000.0001)           No. stops: 1
(PID.TID 0000.0001)   Seconds in section "INITIALISE_FIXED   [THE_MODEL_MAIN]":
(PID.TID 0000.0001)           User time:  0.73000001
(PID.TID 0000.0001)         System time:  0.0299999993
(PID.TID 0000.0001)     Wall clock time:  0.847741008
(PID.TID 0000.0001)          No. starts: 1
(PID.TID 0000.0001)           No. stops: 1
(PID.TID 0000.0001)   Seconds in section "THE_MAIN_LOOP      [THE_MODEL_MAIN]":
(PID.TID 0000.0001)           User time:  5.47000003
(PID.TID 0000.0001)         System time:  0.0600000042
(PID.TID 0000.0001)     Wall clock time:  5.53272891
(PID.TID 0000.0001)          No. starts: 1
(PID.TID 0000.0001)           No. stops: 1
(PID.TID 0000.0001)   Seconds in section "INITIALISE_VARIA    [THE_MAIN_LOOP]":
(PID.TID 0000.0001)           User time:  0.0299999714
(PID.TID 0000.0001)         System time:  0.0200000014
(PID.TID 0000.0001)     Wall clock time:  0.0462639332
(PID.TID 0000.0001)          No. starts: 1
(PID.TID 0000.0001)           No. stops: 1
(PID.TID 0000.0001)   Seconds in section "WRITE_STATE         [THE_MAIN_LOOP]":
(PID.TID 0000.0001)           User time:  0.0200000405
(PID.TID 0000.0001)         System time:  0.0199999996
(PID.TID 0000.0001)     Wall clock time:  0.0436400175
(PID.TID 0000.0001)          No. starts: 1
(PID.TID 0000.0001)           No. stops: 1
(PID.TID 0000.0001)   Seconds in section "MONITOR             [THE_MAIN_LOOP]":
(PID.TID 0000.0001)           User time:  0.0299999714
(PID.TID 0000.0001)         System time:  0.
(PID.TID 0000.0001)     Wall clock time:  0.0289599895
(PID.TID 0000.0001)          No. starts: 1
(PID.TID 0000.0001)           No. stops: 1
(PID.TID 0000.0001)   Seconds in section "MAIN LOOP           [THE_MAIN_LOOP]":
(PID.TID 0000.0001)           User time:  5.39000005
(PID.TID 0000.0001)         System time:  0.0200000033
(PID.TID 0000.0001)     Wall clock time:  5.41340196
(PID.TID 0000.0001)          No. starts: 1
(PID.TID 0000.0001)           No. stops: 1
(PID.TID 0000.0001)   Seconds in section "FORWARD_STEP        [THE_MAIN_LOOP]":
(PID.TID 0000.0001)           User time:  5.39000005
(PID.TID 0000.0001)         System time:  0.0200000033
(PID.TID 0000.0001)     Wall clock time:  5.41158342
(PID.TID 0000.0001)          No. starts: 20
(PID.TID 0000.0001)           No. stops: 20
(PID.TID 0000.0001)   Seconds in section "EXTERNAL_FIELDS_LOAD[THE_MAIN_LOOP]":
(PID.TID 0000.0001)           User time:  0.
(PID.TID 0000.0001)         System time:  0.
(PID.TID 0000.0001)     Wall clock time:  0.00180065632
(PID.TID 0000.0001)          No. starts: 20
(PID.TID 0000.0001)           No. stops: 20
(PID.TID 0000.0001)   Seconds in section "THERMODYNAMICS      [THE_MAIN_LOOP]":
(PID.TID 0000.0001)           User time:  0.539998591
(PID.TID 0000.0001)         System time:  0.
(PID.TID 0000.0001)     Wall clock time:  0.541031957
(PID.TID 0000.0001)          No. starts: 20
(PID.TID 0000.0001)           No. stops: 20
(PID.TID 0000.0001)   Seconds in section "DYNAMICS            [THE_MAIN_LOOP]":
(PID.TID 0000.0001)           User time:  1.17999941
(PID.TID 0000.0001)         System time:  0.
(PID.TID 0000.0001)     Wall clock time:  1.17437625
(PID.TID 0000.0001)          No. starts: 20
(PID.TID 0000.0001)           No. stops: 20
(PID.TID 0000.0001)   Seconds in section "SOLVE_FOR_PRESSURE  [THE_MAIN_LOOP]":
(PID.TID 0000.0001)           User time:  2.93000203
(PID.TID 0000.0001)         System time:  0.
(PID.TID 0000.0001)     Wall clock time:  2.9455353
(PID.TID 0000.0001)          No. starts: 20
(PID.TID 0000.0001)           No. stops: 20
(PID.TID 0000.0001)   Seconds in section "THE_CORRECTION_STEP [THE_MAIN_LOOP]":
(PID.TID 0000.0001)           User time:  0.109999657
(PID.TID 0000.0001)         System time:  0.
(PID.TID 0000.0001)     Wall clock time:  0.0954223871
(PID.TID 0000.0001)          No. starts: 20
(PID.TID 0000.0001)           No. stops: 20
(PID.TID 0000.0001)   Seconds in section "BLOCKING_EXCHANGES  [THE_MAIN_LOOP]":
(PID.TID 0000.0001)           User time:  0.00999999046
(PID.TID 0000.0001)         System time:  0.
(PID.TID 0000.0001)     Wall clock time:  0.0254193544
(PID.TID 0000.0001)          No. starts: 20
(PID.TID 0000.0001)           No. stops: 20
(PID.TID 0000.0001)   Seconds in section "DO_THE_MODEL_IO     [THE_MAIN_LOOP]":
(PID.TID 0000.0001)           User time:  0.0300002098
(PID.TID 0000.0001)         System time:  0.0100000054
(PID.TID 0000.0001)     Wall clock time:  0.0432322025
(PID.TID 0000.0001)          No. starts: 20
(PID.TID 0000.0001)           No. stops: 20
(PID.TID 0000.0001)   Seconds in section "WRITE_CHECKPOINT    [THE_MAIN_LOOP]":
(PID.TID 0000.0001)           User time:  0.
(PID.TID 0000.0001)         System time:  0.
(PID.TID 0000.0001)     Wall clock time:  0.00174927711
(PID.TID 0000.0001)          No. starts: 20
(PID.TID 0000.0001)           No. stops: 20
(PID.TID 0000.0001)   Seconds in section "WRITE_CHECKPOINT   [THE_MODEL_MAIN]":
(PID.TID 0000.0001)           User time:  0.0599999428
(PID.TID 0000.0001)         System time:  0.0299999937
(PID.TID 0000.0001)     Wall clock time:  0.0902889967
(PID.TID 0000.0001)          No. starts: 1
(PID.TID 0000.0001)           No. stops: 1
(PID.TID 0000.0001) // ======================================================
(PID.TID 0000.0001) // Tile <-> Tile communication statistics
(PID.TID 0000.0001) // ======================================================
(PID.TID 0000.0001) // o Tile number: 000001
(PID.TID 0000.0001) //         No. X exchanges =              0
(PID.TID 0000.0001) //            Max. X spins =              0
(PID.TID 0000.0001) //            Min. X spins =     1000000000
(PID.TID 0000.0001) //          Total. X spins =              0
(PID.TID 0000.0001) //            Avg. X spins =       0.00E+00
(PID.TID 0000.0001) //         No. Y exchanges =              0
(PID.TID 0000.0001) //            Max. Y spins =              0
(PID.TID 0000.0001) //            Min. Y spins =     1000000000
(PID.TID 0000.0001) //          Total. Y spins =              0
(PID.TID 0000.0001) //            Avg. Y spins =       0.00E+00
(PID.TID 0000.0001) // o Tile number: 000002
(PID.TID 0000.0001) //         No. X exchanges =              0
(PID.TID 0000.0001) //            Max. X spins =              0
(PID.TID 0000.0001) //            Min. X spins =     1000000000
(PID.TID 0000.0001) //          Total. X spins =              0
(PID.TID 0000.0001) //            Avg. X spins =       0.00E+00
(PID.TID 0000.0001) //         No. Y exchanges =              0
(PID.TID 0000.0001) //            Max. Y spins =              0
(PID.TID 0000.0001) //            Min. Y spins =     1000000000
(PID.TID 0000.0001) //          Total. Y spins =              0
(PID.TID 0000.0001) //            Avg. Y spins =       0.00E+00
(PID.TID 0000.0001) // o Tile number: 000003
(PID.TID 0000.0001) //         No. X exchanges =              0
(PID.TID 0000.0001) //            Max. X spins =              0
(PID.TID 0000.0001) //            Min. X spins =     1000000000
(PID.TID 0000.0001) //          Total. X spins =              0
(PID.TID 0000.0001) //            Avg. X spins =       0.00E+00
(PID.TID 0000.0001) //         No. Y exchanges =              0
(PID.TID 0000.0001) //            Max. Y spins =              0
(PID.TID 0000.0001) //            Min. Y spins =     1000000000
(PID.TID 0000.0001) //          Total. Y spins =              0
(PID.TID 0000.0001) //            Avg. Y spins =       0.00E+00
(PID.TID 0000.0001) // o Tile number: 000004
(PID.TID 0000.0001) //         No. X exchanges =              0
(PID.TID 0000.0001) //            Max. X spins =              0
(PID.TID 0000.0001) //            Min. X spins =     1000000000
(PID.TID 0000.0001) //          Total. X spins =              0
(PID.TID 0000.0001) //            Avg. X spins =       0.00E+00
(PID.TID 0000.0001) //         No. Y exchanges =              0
(PID.TID 0000.0001) //            Max. Y spins =              0
(PID.TID 0000.0001) //            Min. Y spins =     1000000000
(PID.TID 0000.0001) //          Total. Y spins =              0
(PID.TID 0000.0001) //            Avg. Y spins =       0.00E+00
(PID.TID 0000.0001) // o Tile number: 000005
(PID.TID 0000.0001) //         No. X exchanges =              0
(PID.TID 0000.0001) //            Max. X spins =              0
(PID.TID 0000.0001) //            Min. X spins =     1000000000
(PID.TID 0000.0001) //          Total. X spins =              0
(PID.TID 0000.0001) //            Avg. X spins =       0.00E+00
(PID.TID 0000.0001) //         No. Y exchanges =              0
(PID.TID 0000.0001) //            Max. Y spins =              0
(PID.TID 0000.0001) //            Min. Y spins =     1000000000
(PID.TID 0000.0001) //          Total. Y spins =              0
(PID.TID 0000.0001) //            Avg. Y spins =       0.00E+00
(PID.TID 0000.0001) // o Tile number: 000006
(PID.TID 0000.0001) //         No. X exchanges =              0
(PID.TID 0000.0001) //            Max. X spins =              0
(PID.TID 0000.0001) //            Min. X spins =     1000000000
(PID.TID 0000.0001) //          Total. X spins =              0
(PID.TID 0000.0001) //            Avg. X spins =       0.00E+00
(PID.TID 0000.0001) //         No. Y exchanges =              0
(PID.TID 0000.0001) //            Max. Y spins =              0
(PID.TID 0000.0001) //            Min. Y spins =     1000000000
(PID.TID 0000.0001) //          Total. Y spins =              0
(PID.TID 0000.0001) //            Avg. Y spins =       0.00E+00
(PID.TID 0000.0001) // o Thread number: 000001
(PID.TID 0000.0001) //            No. barriers =          13602
(PID.TID 0000.0001) //      Max. barrier spins =              1
(PID.TID 0000.0001) //      Min. barrier spins =              1
(PID.TID 0000.0001) //     Total barrier spins =          13602
(PID.TID 0000.0001) //      Avg. barrier spins =       1.00E+00
