(PID.TID 0000.0001) 
(PID.TID 0000.0001) // ======================================================
(PID.TID 0000.0001) //                      MITgcm UV
(PID.TID 0000.0001) //                      =========
(PID.TID 0000.0001) // ======================================================
(PID.TID 0000.0001) // execution environment starting up...
(PID.TID 0000.0001) 
(PID.TID 0000.0001) // MITgcmUV version:  checkpoint63e
(PID.TID 0000.0001) // Build user:        jmc
(PID.TID 0000.0001) // Build host:        baudelaire
(PID.TID 0000.0001) // Build date:        Mon Nov  7 16:02:43 EST 2011
(PID.TID 0000.0001) 
(PID.TID 0000.0001) // =======================================================
(PID.TID 0000.0001) // Execution Environment parameter file "eedata"
(PID.TID 0000.0001) // =======================================================
(PID.TID 0000.0001) ># Example "eedata" file
(PID.TID 0000.0001) ># Lines beginning "#" are comments
(PID.TID 0000.0001) ># nTx - No. threads per process in X
(PID.TID 0000.0001) ># nTy - No. threads per process in Y
(PID.TID 0000.0001) > &EEPARMS
(PID.TID 0000.0001) > /
(PID.TID 0000.0001) ># Note: Some systems use & as the
(PID.TID 0000.0001) ># namelist terminator. Other systems
(PID.TID 0000.0001) ># use a / character (as shown here).
(PID.TID 0000.0001) 
(PID.TID 0000.0001) // =======================================================
(PID.TID 0000.0001) // Computational Grid Specification ( see files "SIZE.h" )
(PID.TID 0000.0001) //                                  ( and "eedata"       )
(PID.TID 0000.0001) // =======================================================
(PID.TID 0000.0001)      nPx =    1 ; /* No. processes in X */
(PID.TID 0000.0001)      nPy =    1 ; /* No. processes in Y */
(PID.TID 0000.0001)      nSx =    1 ; /* No. tiles in X per process */
(PID.TID 0000.0001)      nSy =    2 ; /* No. tiles in Y per process */
(PID.TID 0000.0001)      sNx =   50 ; /* Tile size in X */
(PID.TID 0000.0001)      sNy =   50 ; /* Tile size in Y */
(PID.TID 0000.0001)      OLx =    3 ; /* Tile overlap distance in X */
(PID.TID 0000.0001)      OLy =    3 ; /* Tile overlap distance in Y */
(PID.TID 0000.0001)      nTx =    1 ; /* No. threads in X per process */
(PID.TID 0000.0001)      nTy =    1 ; /* No. threads in Y per process */
(PID.TID 0000.0001)       Nr =   30 ; /* No. levels in the vertical   */
(PID.TID 0000.0001)       Nx =   50 ; /* Total domain size in X ( = nPx*nSx*sNx ) */
(PID.TID 0000.0001)       Ny =  100 ; /* Total domain size in Y ( = nPy*nSy*sNy ) */
(PID.TID 0000.0001)   nTiles =    2 ; /* Total no. tiles per process ( = nSx*nSy ) */
(PID.TID 0000.0001)   nProcs =    1 ; /* Total no. processes ( = nPx*nPy ) */
(PID.TID 0000.0001) nThreads =    1 ; /* Total no. threads per process ( = nTx*nTy ) */
(PID.TID 0000.0001) usingMPI =    F ; /* Flag used to control whether MPI is in use */
(PID.TID 0000.0001)                   /*  note: To execute a program with MPI calls */
(PID.TID 0000.0001)                   /*  it must be launched appropriately e.g     */
(PID.TID 0000.0001)                   /*  "mpirun -np 64 ......"                    */
(PID.TID 0000.0001) useCoupler=    F ;/* Flag used to control communications with   */
(PID.TID 0000.0001)                   /*  other model components, through a coupler */
(PID.TID 0000.0001) debugMode =    F ; /* print debug msg. (sequence of S/R calls)  */
(PID.TID 0000.0001) printMapIncludesZeros=    F ; /* print zeros in Std.Output maps */
(PID.TID 0000.0001) maxLengthPrt1D=   65 /* maxLength of 1D array printed to StdOut */
(PID.TID 0000.0001) 
(PID.TID 0000.0001) // ======================================================
(PID.TID 0000.0001) // Mapping of tiles to threads
(PID.TID 0000.0001) // ======================================================
(PID.TID 0000.0001) // -o- Thread   1, tiles (   1:   1,   1:   2)
(PID.TID 0000.0001) 
(PID.TID 0000.0001) // ======================================================
(PID.TID 0000.0001) // Tile <-> Tile connectvity table
(PID.TID 0000.0001) // ======================================================
(PID.TID 0000.0001) // Tile number: 000001 (process no. = 000001)
(PID.TID 0000.0001) //        WEST: Tile = 000001, Process = 000001, Comm = put
(PID.TID 0000.0001) //                bi = 000001, bj = 000001
(PID.TID 0000.0001) //        EAST: Tile = 000001, Process = 000001, Comm = put
(PID.TID 0000.0001) //                bi = 000001, bj = 000001
(PID.TID 0000.0001) //       SOUTH: Tile = 000002, Process = 000001, Comm = put
(PID.TID 0000.0001) //                bi = 000001, bj = 000002
(PID.TID 0000.0001) //       NORTH: Tile = 000002, Process = 000001, Comm = put
(PID.TID 0000.0001) //                bi = 000001, bj = 000002
(PID.TID 0000.0001) // Tile number: 000002 (process no. = 000001)
(PID.TID 0000.0001) //        WEST: Tile = 000002, Process = 000001, Comm = put
(PID.TID 0000.0001) //                bi = 000001, bj = 000002
(PID.TID 0000.0001) //        EAST: Tile = 000002, Process = 000001, Comm = put
(PID.TID 0000.0001) //                bi = 000001, bj = 000002
(PID.TID 0000.0001) //       SOUTH: Tile = 000001, Process = 000001, Comm = put
(PID.TID 0000.0001) //                bi = 000001, bj = 000001
(PID.TID 0000.0001) //       NORTH: Tile = 000001, Process = 000001, Comm = put
(PID.TID 0000.0001) //                bi = 000001, bj = 000001
(PID.TID 0000.0001) 
(PID.TID 0000.0001)  INI_PARMS: opening model parameter file "data"
(PID.TID 0000.0001)  OPEN_COPY_DATA_FILE: opening file data
(PID.TID 0000.0001) // =======================================================
(PID.TID 0000.0001) // Parameter file "data"
(PID.TID 0000.0001) // =======================================================
(PID.TID 0000.0001) ># ====================
(PID.TID 0000.0001) ># | Model parameters |
(PID.TID 0000.0001) ># ====================
(PID.TID 0000.0001) >#
(PID.TID 0000.0001) ># Continuous equation parameters
(PID.TID 0000.0001) > &PARM01
(PID.TID 0000.0001) > Tref = 30*-1.9,
(PID.TID 0000.0001) > Sref = 30*34.4,
(PID.TID 0000.0001) > viscAz=1.E-3,
(PID.TID 0000.0001) > viscAh=600.0,
(PID.TID 0000.0001) > no_slip_sides=.FALSE.,
(PID.TID 0000.0001) > diffKhT=100.0,
(PID.TID 0000.0001) > diffKzT=5.E-5,
(PID.TID 0000.0001) > diffKhS=100.0,
(PID.TID 0000.0001) > diffKzS=5.E-5,
(PID.TID 0000.0001) > bottomDragQuadratic=2.5E-3,
(PID.TID 0000.0001) > eosType='JMD95Z',
(PID.TID 0000.0001) > HeatCapacity_cp = 3974.0,
(PID.TID 0000.0001) > rhoConst=1030.,
(PID.TID 0000.0001) > rhoNil=1030.,
(PID.TID 0000.0001) > gravity=9.81,
(PID.TID 0000.0001) > convertFW2Salt = 33.4,
(PID.TID 0000.0001) > rigidLid=.FALSE.,
(PID.TID 0000.0001) > implicitFreeSurface=.TRUE.,
(PID.TID 0000.0001) > exactConserv=.TRUE.,
(PID.TID 0000.0001) > hFacMin=0.05,
(PID.TID 0000.0001) > nonHydrostatic=.FALSE.,
(PID.TID 0000.0001) > readBinaryPrec=64,
(PID.TID 0000.0001) > useCDScheme = .TRUE.,
(PID.TID 0000.0001) > /
(PID.TID 0000.0001) >
(PID.TID 0000.0001) ># Elliptic solver parameters
(PID.TID 0000.0001) > &PARM02
(PID.TID 0000.0001) > cg2dMaxIters=1000,
(PID.TID 0000.0001) > cg2dTargetResidual=1.E-13,
(PID.TID 0000.0001) > cg3dMaxIters=400,
(PID.TID 0000.0001) > cg3dTargetResidual=1.E-13,
(PID.TID 0000.0001) > /
(PID.TID 0000.0001) >
(PID.TID 0000.0001) ># Time stepping parameters
(PID.TID 0000.0001) > &PARM03
(PID.TID 0000.0001) > nIter0=0,
(PID.TID 0000.0001) > nTimeSteps=20,
(PID.TID 0000.0001) > deltaT=1800.0,
(PID.TID 0000.0001) > abEps=0.1,
(PID.TID 0000.0001) > cAdjFreq = -1.,
(PID.TID 0000.0001) > tauCD = 400000.,
(PID.TID 0000.0001) > pChkptFreq=0.0,
(PID.TID 0000.0001) > chkptFreq=0.0,
(PID.TID 0000.0001) > dumpFreq=0.0,
(PID.TID 0000.0001) > taveFreq=0.0,
(PID.TID 0000.0001) > monitorFreq=1.,
(PID.TID 0000.0001) > monitorSelect=2,
(PID.TID 0000.0001) > /
(PID.TID 0000.0001) >
(PID.TID 0000.0001) ># Gridding parameters
(PID.TID 0000.0001) > &PARM04
(PID.TID 0000.0001) > usingSphericalPolarGrid=.TRUE.,
(PID.TID 0000.0001) > ygOrigin = -80.0,
(PID.TID 0000.0001) > delX=50*0.3,
(PID.TID 0000.0001) > delY=100*0.1,
(PID.TID 0000.0001) > delZ=30*30.0,
(PID.TID 0000.0001) > /
(PID.TID 0000.0001) >
(PID.TID 0000.0001) ># Input datasets
(PID.TID 0000.0001) > &PARM05
(PID.TID 0000.0001) > bathyFile='bathy.box',
(PID.TID 0000.0001) > /
(PID.TID 0000.0001) 
(PID.TID 0000.0001)  INI_PARMS ; starts to read PARM01
(PID.TID 0000.0001)  INI_PARMS ; read PARM01 : OK
(PID.TID 0000.0001)  INI_PARMS ; starts to read PARM02
(PID.TID 0000.0001)  INI_PARMS ; read PARM02 : OK
(PID.TID 0000.0001)  INI_PARMS ; starts to read PARM03
(PID.TID 0000.0001)  INI_PARMS ; read PARM03 : OK
(PID.TID 0000.0001)  INI_PARMS ; starts to read PARM04
(PID.TID 0000.0001)  INI_PARMS ; read PARM04 : OK
(PID.TID 0000.0001)  INI_PARMS ; starts to read PARM05
(PID.TID 0000.0001)  INI_PARMS ; read PARM05 : OK
(PID.TID 0000.0001)  INI_PARMS: finished reading file "data"
(PID.TID 0000.0001)  PACKAGES_BOOT: opening data.pkg
(PID.TID 0000.0001)  OPEN_COPY_DATA_FILE: opening file data.pkg
(PID.TID 0000.0001) // =======================================================
(PID.TID 0000.0001) // Parameter file "data.pkg"
(PID.TID 0000.0001) // =======================================================
(PID.TID 0000.0001) ># Packages
(PID.TID 0000.0001) > &PACKAGES
(PID.TID 0000.0001) > useMNC=.TRUE.,
(PID.TID 0000.0001) > useShelfIce=.true.,
(PID.TID 0000.0001) > /
(PID.TID 0000.0001) 
(PID.TID 0000.0001)  PACKAGES_BOOT: finished reading data.pkg
(PID.TID 0000.0001)  MNC_READPARMS: opening file 'data.mnc'
(PID.TID 0000.0001)  OPEN_COPY_DATA_FILE: opening file data.mnc
(PID.TID 0000.0001) // =======================================================
(PID.TID 0000.0001) // Parameter file "data.mnc"
(PID.TID 0000.0001) // =======================================================
(PID.TID 0000.0001) ># Example "data.mnc" file
(PID.TID 0000.0001) ># Lines beginning "#" are comments
(PID.TID 0000.0001) > &MNC_01
(PID.TID 0000.0001) ># mnc_echo_gvtypes=.FALSE.,
(PID.TID 0000.0001) ># mnc_use_indir=.FALSE.,
(PID.TID 0000.0001) > mnc_use_outdir=.TRUE.,
(PID.TID 0000.0001) > mnc_outdir_str='mnc_test_',
(PID.TID 0000.0001) >#mnc_outdir_date=.TRUE.,
(PID.TID 0000.0001) > monitor_mnc=.FALSE.,
(PID.TID 0000.0001) >#snapshot_mnc=.FALSE.,
(PID.TID 0000.0001) >#timeave_mnc=.FALSE.,
(PID.TID 0000.0001) > pickup_read_mnc=.FALSE.,
(PID.TID 0000.0001) > pickup_write_mnc=.FALSE.,
(PID.TID 0000.0001) > /
(PID.TID 0000.0001) ># Note: Some systems use & as the
(PID.TID 0000.0001) ># namelist terminator. Other systems
(PID.TID 0000.0001) ># use a / character (as shown here).
(PID.TID 0000.0001) 
(PID.TID 0000.0001)  MNC_READPARMS: finished reading data.mnc
(PID.TID 0000.0001)  SHELFICE_READPARMS: opening data.shelfice
(PID.TID 0000.0001)  OPEN_COPY_DATA_FILE: opening file data.shelfice
(PID.TID 0000.0001) // =======================================================
(PID.TID 0000.0001) // Parameter file "data.shelfice"
(PID.TID 0000.0001) // =======================================================
(PID.TID 0000.0001) ># ===================================
(PID.TID 0000.0001) ># | Parameters for SHELFICE package |
(PID.TID 0000.0001) ># ===================================
(PID.TID 0000.0001) > &SHELFICE_PARM01
(PID.TID 0000.0001) > SHELFICEconserve = .TRUE.,
(PID.TID 0000.0001) > SHELFICEboundaryLayer = .TRUE.,
(PID.TID 0000.0001) > SHELFICEtopoFile='icetopo.exp1',
(PID.TID 0000.0001) > SHELFICEloadAnomalyFile = 'phi0surf.exp1.jmd95z',
(PID.TID 0000.0001) > no_slip_shelfice = .false.,
(PID.TID 0000.0001) > SHELFICEwriteState = .TRUE.,
(PID.TID 0000.0001) > SHELFICEuseGammaFrict = .FALSE.
(PID.TID 0000.0001) > /
(PID.TID 0000.0001) 
(PID.TID 0000.0001)  SHELFICE_READPARMS: finished reading data.shelfice
(PID.TID 0000.0001) SET_PARMS: done
(PID.TID 0000.0001) Enter INI_VERTICAL_GRID: setInterFDr=    T ; setCenterDr=    F
(PID.TID 0000.0001) %MON XC_max                       =   1.4850000000000E+01
(PID.TID 0000.0001) %MON XC_min                       =   1.5000000000000E-01
(PID.TID 0000.0001) %MON XC_mean                      =   7.5000000000000E+00
(PID.TID 0000.0001) %MON XC_sd                        =   4.3292609068985E+00
(PID.TID 0000.0001) %MON XG_max                       =   1.4700000000000E+01
(PID.TID 0000.0001) %MON XG_min                       =   1.1102230246252E-16
(PID.TID 0000.0001) %MON XG_mean                      =   7.3500000000000E+00
(PID.TID 0000.0001) %MON XG_sd                        =   4.3292609068985E+00
(PID.TID 0000.0001) %MON DXC_max                      =   1.1380125394806E+04
(PID.TID 0000.0001) %MON DXC_min                      =   5.8203914905589E+03
(PID.TID 0000.0001) %MON DXC_mean                     =   8.6215028627206E+03
(PID.TID 0000.0001) %MON DXC_sd                       =   1.6219001271572E+03
(PID.TID 0000.0001) %MON DXF_max                      =   1.1380125394806E+04
(PID.TID 0000.0001) %MON DXF_min                      =   5.8203914905589E+03
(PID.TID 0000.0001) %MON DXF_mean                     =   8.6215028627206E+03
(PID.TID 0000.0001) %MON DXF_sd                       =   1.6219001271572E+03
(PID.TID 0000.0001) %MON DXG_max                      =   1.1352761512017E+04
(PID.TID 0000.0001) %MON DXG_min                      =   5.7917296935586E+03
(PID.TID 0000.0001) %MON DXG_mean                     =   8.5934208253080E+03
(PID.TID 0000.0001) %MON DXG_sd                       =   1.6222785520817E+03
(PID.TID 0000.0001) %MON DXV_max                      =   1.1352761512017E+04
(PID.TID 0000.0001) %MON DXV_min                      =   5.7917296935586E+03
(PID.TID 0000.0001) %MON DXV_mean                     =   8.5934208253080E+03
(PID.TID 0000.0001) %MON DXV_sd                       =   1.6222785520817E+03
(PID.TID 0000.0001) %MON YC_max                       =  -7.0050000000001E+01
(PID.TID 0000.0001) %MON YC_min                       =  -7.9950000000000E+01
(PID.TID 0000.0001) %MON YC_mean                      =  -7.5000000000000E+01
(PID.TID 0000.0001) %MON YC_sd                        =   2.8866070047720E+00
(PID.TID 0000.0001) %MON YG_max                       =  -7.0100000000001E+01
(PID.TID 0000.0001) %MON YG_min                       =  -8.0000000000000E+01
(PID.TID 0000.0001) %MON YG_mean                      =  -7.5050000000000E+01
(PID.TID 0000.0001) %MON YG_sd                        =   2.8866070047720E+00
(PID.TID 0000.0001) %MON DYC_max                      =   1.1117747335204E+04
(PID.TID 0000.0001) %MON DYC_min                      =   1.1117747335204E+04
(PID.TID 0000.0001) %MON DYC_mean                     =   1.1117747335203E+04
(PID.TID 0000.0001) %MON DYC_sd                       =   6.0754246078432E-10
(PID.TID 0000.0001) %MON DYF_max                      =   1.1117747335204E+04
(PID.TID 0000.0001) %MON DYF_min                      =   1.1117747335204E+04
(PID.TID 0000.0001) %MON DYF_mean                     =   1.1117747335203E+04
(PID.TID 0000.0001) %MON DYF_sd                       =   6.0754246078432E-10
(PID.TID 0000.0001) %MON DYG_max                      =   1.1117747335204E+04
(PID.TID 0000.0001) %MON DYG_min                      =   1.1117747335204E+04
(PID.TID 0000.0001) %MON DYG_mean                     =   1.1117747335203E+04
(PID.TID 0000.0001) %MON DYG_sd                       =   6.0754246078432E-10
(PID.TID 0000.0001) %MON DYU_max                      =   1.1117747335204E+04
(PID.TID 0000.0001) %MON DYU_min                      =   1.1117747335204E+04
(PID.TID 0000.0001) %MON DYU_mean                     =   1.1117747335203E+04
(PID.TID 0000.0001) %MON DYU_sd                       =   6.0754246078432E-10
(PID.TID 0000.0001) %MON RA_max                       =   1.2652134272379E+08
(PID.TID 0000.0001) %MON RA_min                       =   6.4709633770803E+07
(PID.TID 0000.0001) %MON RA_mean                      =   9.5851678311588E+07
(PID.TID 0000.0001) %MON RA_sd                        =   1.8031873527991E+07
(PID.TID 0000.0001) %MON RAW_max                      =   1.2652134272379E+08
(PID.TID 0000.0001) %MON RAW_min                      =   6.4709633770803E+07
(PID.TID 0000.0001) %MON RAW_mean                     =   9.5851678311588E+07
(PID.TID 0000.0001) %MON RAW_sd                       =   1.8031873527991E+07
(PID.TID 0000.0001) %MON RAS_max                      =   1.2621711802744E+08
(PID.TID 0000.0001) %MON RAS_min                      =   6.4390979194019E+07
(PID.TID 0000.0001) %MON RAS_mean                     =   9.5539469354603E+07
(PID.TID 0000.0001) %MON RAS_sd                       =   1.8036080760153E+07
(PID.TID 0000.0001) %MON RAZ_max                      =   1.2621711802744E+08
(PID.TID 0000.0001) %MON RAZ_min                      =   6.4390979194019E+07
(PID.TID 0000.0001) %MON RAZ_mean                     =   9.5539469354603E+07
(PID.TID 0000.0001) %MON RAZ_sd                       =   1.8036080760153E+07
(PID.TID 0000.0001) %MON AngleCS_max                  =   1.0000000000000E+00
(PID.TID 0000.0001) %MON AngleCS_min                  =   1.0000000000000E+00
(PID.TID 0000.0001) %MON AngleCS_mean                 =   1.0000000000000E+00
(PID.TID 0000.0001) %MON AngleCS_sd                   =   0.0000000000000E+00
(PID.TID 0000.0001) %MON AngleSN_max                  =   0.0000000000000E+00
(PID.TID 0000.0001) %MON AngleSN_min                  =   0.0000000000000E+00
(PID.TID 0000.0001) %MON AngleSN_mean                 =   0.0000000000000E+00
(PID.TID 0000.0001) %MON AngleSN_sd                   =   0.0000000000000E+00
(PID.TID 0000.0001)  MDS_READ_FIELD: opening global file: bathy.box
(PID.TID 0000.0001)  MDS_READ_FIELD: opening global file: icetopo.exp1
(PID.TID 0000.0001) // =======================================================
(PID.TID 0000.0001) // Field Model R_low (ini_masks_etc)
(PID.TID 0000.0001) // CMIN =         -9.000000000000000E+02
(PID.TID 0000.0001) // CMAX =         -9.000000000000000E+02
(PID.TID 0000.0001) // CINT =          0.000000000000000E+00
(PID.TID 0000.0001) // SYMBOLS (CMIN->CMAX): -abcdefghijklmnopqrstuvwxyz+
(PID.TID 0000.0001) //                  0.0: .
(PID.TID 0000.0001) // RANGE I (Lo:Hi:Step):(    -2:    53:     1)
(PID.TID 0000.0001) // RANGE J (Lo:Hi:Step):(   103:    -2:    -1)
(PID.TID 0000.0001) // RANGE K (Lo:Hi:Step):(   1:   1:   1)
(PID.TID 0000.0001) // =======================================================
(PID.TID 0000.0001) // =======================================================
(PID.TID 0000.0001) // END OF FIELD                                          =
(PID.TID 0000.0001) // =======================================================
(PID.TID 0000.0001) 
(PID.TID 0000.0001) // =======================================================
(PID.TID 0000.0001) // Field Model Ro_surf (ini_masks_etc)
(PID.TID 0000.0001) // CMIN =         -6.812500000000010E+02
(PID.TID 0000.0001) // CMAX =         -2.000000000000000E+02
(PID.TID 0000.0001) // CINT =          1.782407407407411E+01
(PID.TID 0000.0001) // SYMBOLS (CMIN->CMAX): -abcdefghijklmnopqrstuvwxyz+
(PID.TID 0000.0001) //                  0.0: .
(PID.TID 0000.0001) // RANGE I (Lo:Hi:Step):(    -2:    53:     1)
(PID.TID 0000.0001) // RANGE J (Lo:Hi:Step):(   103:    -2:    -1)
(PID.TID 0000.0001) // RANGE K (Lo:Hi:Step):(   1:   1:   1)
(PID.TID 0000.0001) // =======================================================
(PID.TID 0000.0001) K =   1
(PID.TID 0000.0001) //                I=7       I=17      I=27      I=37      I=47
(PID.TID 0000.0001) // |--J--|210123456|890123456|890123456|890123456|890123456|890123
(PID.TID 0000.0001) //    103 aaa.aaaaaaaaaaaaaaaaaaaaaaaaaaaaaaaaaaaaaaaaaaaaaaaaa.aa
(PID.TID 0000.0001) //    102 ---.-------------------------------------------------.--
(PID.TID 0000.0001) //    101 ........................................................
(PID.TID 0000.0001) //    100 +++.+++++++++++++++++++++++++++++++++++++++++++++++++.++
(PID.TID 0000.0001) //     99 +++.+++++++++++++++++++++++++++++++++++++++++++++++++.++
(PID.TID 0000.0001) //     98 +++.+++++++++++++++++++++++++++++++++++++++++++++++++.++
(PID.TID 0000.0001) //     97 +++.+++++++++++++++++++++++++++++++++++++++++++++++++.++
(PID.TID 0000.0001) //     96 +++.+++++++++++++++++++++++++++++++++++++++++++++++++.++
(PID.TID 0000.0001) //     95 +++.+++++++++++++++++++++++++++++++++++++++++++++++++.++
(PID.TID 0000.0001) //     94 +++.+++++++++++++++++++++++++++++++++++++++++++++++++.++
(PID.TID 0000.0001) //     93 +++.+++++++++++++++++++++++++++++++++++++++++++++++++.++
(PID.TID 0000.0001) //     92 +++.+++++++++++++++++++++++++++++++++++++++++++++++++.++
(PID.TID 0000.0001) //     91 +++.+++++++++++++++++++++++++++++++++++++++++++++++++.++
(PID.TID 0000.0001) //     90 +++.+++++++++++++++++++++++++++++++++++++++++++++++++.++
(PID.TID 0000.0001) //     89 +++.+++++++++++++++++++++++++++++++++++++++++++++++++.++
(PID.TID 0000.0001) //     88 +++.+++++++++++++++++++++++++++++++++++++++++++++++++.++
(PID.TID 0000.0001) //     87 +++.+++++++++++++++++++++++++++++++++++++++++++++++++.++
(PID.TID 0000.0001) //     86 +++.+++++++++++++++++++++++++++++++++++++++++++++++++.++
(PID.TID 0000.0001) //     85 +++.+++++++++++++++++++++++++++++++++++++++++++++++++.++
(PID.TID 0000.0001) //     84 +++.+++++++++++++++++++++++++++++++++++++++++++++++++.++
(PID.TID 0000.0001) //     83 +++.+++++++++++++++++++++++++++++++++++++++++++++++++.++
(PID.TID 0000.0001) //     82 +++.+++++++++++++++++++++++++++++++++++++++++++++++++.++
(PID.TID 0000.0001) //     81 +++.+++++++++++++++++++++++++++++++++++++++++++++++++.++
(PID.TID 0000.0001) //     80 +++.+++++++++++++++++++++++++++++++++++++++++++++++++.++
(PID.TID 0000.0001) //     79 +++.+++++++++++++++++++++++++++++++++++++++++++++++++.++
(PID.TID 0000.0001) //     78 +++.+++++++++++++++++++++++++++++++++++++++++++++++++.++
(PID.TID 0000.0001) //     77 +++.+++++++++++++++++++++++++++++++++++++++++++++++++.++
(PID.TID 0000.0001) //     76 +++.+++++++++++++++++++++++++++++++++++++++++++++++++.++
(PID.TID 0000.0001) //     75 +++.+++++++++++++++++++++++++++++++++++++++++++++++++.++
(PID.TID 0000.0001) //     74 +++.+++++++++++++++++++++++++++++++++++++++++++++++++.++
(PID.TID 0000.0001) //     73 +++.+++++++++++++++++++++++++++++++++++++++++++++++++.++
(PID.TID 0000.0001) //     72 +++.+++++++++++++++++++++++++++++++++++++++++++++++++.++
(PID.TID 0000.0001) //     71 +++.+++++++++++++++++++++++++++++++++++++++++++++++++.++
(PID.TID 0000.0001) //     70 +++.+++++++++++++++++++++++++++++++++++++++++++++++++.++
(PID.TID 0000.0001) //     69 +++.+++++++++++++++++++++++++++++++++++++++++++++++++.++
(PID.TID 0000.0001) //     68 +++.+++++++++++++++++++++++++++++++++++++++++++++++++.++
(PID.TID 0000.0001) //     67 +++.+++++++++++++++++++++++++++++++++++++++++++++++++.++
(PID.TID 0000.0001) //     66 +++.+++++++++++++++++++++++++++++++++++++++++++++++++.++
(PID.TID 0000.0001) //     65 +++.+++++++++++++++++++++++++++++++++++++++++++++++++.++
(PID.TID 0000.0001) //     64 +++.+++++++++++++++++++++++++++++++++++++++++++++++++.++
(PID.TID 0000.0001) //     63 +++.+++++++++++++++++++++++++++++++++++++++++++++++++.++
(PID.TID 0000.0001) //     62 +++.+++++++++++++++++++++++++++++++++++++++++++++++++.++
(PID.TID 0000.0001) //     61 +++.+++++++++++++++++++++++++++++++++++++++++++++++++.++
(PID.TID 0000.0001) //     60 +++.+++++++++++++++++++++++++++++++++++++++++++++++++.++
(PID.TID 0000.0001) //     59 +++.+++++++++++++++++++++++++++++++++++++++++++++++++.++
(PID.TID 0000.0001) //     58 +++.+++++++++++++++++++++++++++++++++++++++++++++++++.++
(PID.TID 0000.0001) //     57 +++.+++++++++++++++++++++++++++++++++++++++++++++++++.++
(PID.TID 0000.0001) //     56 +++.+++++++++++++++++++++++++++++++++++++++++++++++++.++
(PID.TID 0000.0001) //     55 +++.+++++++++++++++++++++++++++++++++++++++++++++++++.++
(PID.TID 0000.0001) //     54 +++.+++++++++++++++++++++++++++++++++++++++++++++++++.++
(PID.TID 0000.0001) //     53 +++.+++++++++++++++++++++++++++++++++++++++++++++++++.++
(PID.TID 0000.0001) //     52 +++.+++++++++++++++++++++++++++++++++++++++++++++++++.++
(PID.TID 0000.0001) //     51 +++.+++++++++++++++++++++++++++++++++++++++++++++++++.++
(PID.TID 0000.0001) //     50 +++.+++++++++++++++++++++++++++++++++++++++++++++++++.++
(PID.TID 0000.0001) //     49 +++.+++++++++++++++++++++++++++++++++++++++++++++++++.++
(PID.TID 0000.0001) //     48 +++.+++++++++++++++++++++++++++++++++++++++++++++++++.++
(PID.TID 0000.0001) //     53 +++.+++++++++++++++++++++++++++++++++++++++++++++++++.++
(PID.TID 0000.0001) //     52 +++.+++++++++++++++++++++++++++++++++++++++++++++++++.++
(PID.TID 0000.0001) //     51 +++.+++++++++++++++++++++++++++++++++++++++++++++++++.++
(PID.TID 0000.0001) //     50 +++.+++++++++++++++++++++++++++++++++++++++++++++++++.++
(PID.TID 0000.0001) //     49 +++.+++++++++++++++++++++++++++++++++++++++++++++++++.++
(PID.TID 0000.0001) //     48 +++.+++++++++++++++++++++++++++++++++++++++++++++++++.++
(PID.TID 0000.0001) //     47 +++.+++++++++++++++++++++++++++++++++++++++++++++++++.++
(PID.TID 0000.0001) //     46 +++.+++++++++++++++++++++++++++++++++++++++++++++++++.++
(PID.TID 0000.0001) //     45 +++.+++++++++++++++++++++++++++++++++++++++++++++++++.++
(PID.TID 0000.0001) //     44 +++.+++++++++++++++++++++++++++++++++++++++++++++++++.++
(PID.TID 0000.0001) //     43 +++.+++++++++++++++++++++++++++++++++++++++++++++++++.++
(PID.TID 0000.0001) //     42 +++.+++++++++++++++++++++++++++++++++++++++++++++++++.++
(PID.TID 0000.0001) //     41 +++.+++++++++++++++++++++++++++++++++++++++++++++++++.++
(PID.TID 0000.0001) //     40 +++.+++++++++++++++++++++++++++++++++++++++++++++++++.++
(PID.TID 0000.0001) //     39 zzz.zzzzzzzzzzzzzzzzzzzzzzzzzzzzzzzzzzzzzzzzzzzzzzzzz.zz
(PID.TID 0000.0001) //     38 yyy.yyyyyyyyyyyyyyyyyyyyyyyyyyyyyyyyyyyyyyyyyyyyyyyyy.yy
(PID.TID 0000.0001) //     37 yyy.yyyyyyyyyyyyyyyyyyyyyyyyyyyyyyyyyyyyyyyyyyyyyyyyy.yy
(PID.TID 0000.0001) //     36 xxx.xxxxxxxxxxxxxxxxxxxxxxxxxxxxxxxxxxxxxxxxxxxxxxxxx.xx
(PID.TID 0000.0001) //     35 www.wwwwwwwwwwwwwwwwwwwwwwwwwwwwwwwwwwwwwwwwwwwwwwwww.ww
(PID.TID 0000.0001) //     34 vvv.vvvvvvvvvvvvvvvvvvvvvvvvvvvvvvvvvvvvvvvvvvvvvvvvv.vv
(PID.TID 0000.0001) //     33 vvv.vvvvvvvvvvvvvvvvvvvvvvvvvvvvvvvvvvvvvvvvvvvvvvvvv.vv
(PID.TID 0000.0001) //     32 uuu.uuuuuuuuuuuuuuuuuuuuuuuuuuuuuuuuuuuuuuuuuuuuuuuuu.uu
(PID.TID 0000.0001) //     31 ttt.ttttttttttttttttttttttttttttttttttttttttttttttttt.tt
(PID.TID 0000.0001) //     30 ttt.ttttttttttttttttttttttttttttttttttttttttttttttttt.tt
(PID.TID 0000.0001) //     29 sss.sssssssssssssssssssssssssssssssssssssssssssssssss.ss
(PID.TID 0000.0001) //     28 rrr.rrrrrrrrrrrrrrrrrrrrrrrrrrrrrrrrrrrrrrrrrrrrrrrrr.rr
(PID.TID 0000.0001) //     27 rrr.rrrrrrrrrrrrrrrrrrrrrrrrrrrrrrrrrrrrrrrrrrrrrrrrr.rr
(PID.TID 0000.0001) //     26 qqq.qqqqqqqqqqqqqqqqqqqqqqqqqqqqqqqqqqqqqqqqqqqqqqqqq.qq
(PID.TID 0000.0001) //     25 ppp.ppppppppppppppppppppppppppppppppppppppppppppppppp.pp
(PID.TID 0000.0001) //     24 ooo.ooooooooooooooooooooooooooooooooooooooooooooooooo.oo
(PID.TID 0000.0001) //     23 ooo.ooooooooooooooooooooooooooooooooooooooooooooooooo.oo
(PID.TID 0000.0001) //     22 nnn.nnnnnnnnnnnnnnnnnnnnnnnnnnnnnnnnnnnnnnnnnnnnnnnnn.nn
(PID.TID 0000.0001) //     21 mmm.mmmmmmmmmmmmmmmmmmmmmmmmmmmmmmmmmmmmmmmmmmmmmmmmm.mm
(PID.TID 0000.0001) //     20 mmm.mmmmmmmmmmmmmmmmmmmmmmmmmmmmmmmmmmmmmmmmmmmmmmmmm.mm
(PID.TID 0000.0001) //     19 lll.lllllllllllllllllllllllllllllllllllllllllllllllll.ll
(PID.TID 0000.0001) //     18 kkk.kkkkkkkkkkkkkkkkkkkkkkkkkkkkkkkkkkkkkkkkkkkkkkkkk.kk
(PID.TID 0000.0001) //     17 kkk.kkkkkkkkkkkkkkkkkkkkkkkkkkkkkkkkkkkkkkkkkkkkkkkkk.kk
(PID.TID 0000.0001) //     16 jjj.jjjjjjjjjjjjjjjjjjjjjjjjjjjjjjjjjjjjjjjjjjjjjjjjj.jj
(PID.TID 0000.0001) //     15 iii.iiiiiiiiiiiiiiiiiiiiiiiiiiiiiiiiiiiiiiiiiiiiiiiii.ii
(PID.TID 0000.0001) //     14 hhh.hhhhhhhhhhhhhhhhhhhhhhhhhhhhhhhhhhhhhhhhhhhhhhhhh.hh
(PID.TID 0000.0001) //     13 hhh.hhhhhhhhhhhhhhhhhhhhhhhhhhhhhhhhhhhhhhhhhhhhhhhhh.hh
(PID.TID 0000.0001) //     12 ggg.ggggggggggggggggggggggggggggggggggggggggggggggggg.gg
(PID.TID 0000.0001) //     11 fff.fffffffffffffffffffffffffffffffffffffffffffffffff.ff
(PID.TID 0000.0001) //     10 fff.fffffffffffffffffffffffffffffffffffffffffffffffff.ff
(PID.TID 0000.0001) //      9 eee.eeeeeeeeeeeeeeeeeeeeeeeeeeeeeeeeeeeeeeeeeeeeeeeee.ee
(PID.TID 0000.0001) //      8 ddd.ddddddddddddddddddddddddddddddddddddddddddddddddd.dd
(PID.TID 0000.0001) //      7 ddd.ddddddddddddddddddddddddddddddddddddddddddddddddd.dd
(PID.TID 0000.0001) //      6 ccc.ccccccccccccccccccccccccccccccccccccccccccccccccc.cc
(PID.TID 0000.0001) //      5 bbb.bbbbbbbbbbbbbbbbbbbbbbbbbbbbbbbbbbbbbbbbbbbbbbbbb.bb
(PID.TID 0000.0001) //      4 aaa.aaaaaaaaaaaaaaaaaaaaaaaaaaaaaaaaaaaaaaaaaaaaaaaaa.aa
(PID.TID 0000.0001) //      3 aaa.aaaaaaaaaaaaaaaaaaaaaaaaaaaaaaaaaaaaaaaaaaaaaaaaa.aa
(PID.TID 0000.0001) //      2 ---.-------------------------------------------------.--
(PID.TID 0000.0001) //      1 ........................................................
(PID.TID 0000.0001) //      0 +++.+++++++++++++++++++++++++++++++++++++++++++++++++.++
(PID.TID 0000.0001) //     -1 +++.+++++++++++++++++++++++++++++++++++++++++++++++++.++
(PID.TID 0000.0001) //     -2 +++.+++++++++++++++++++++++++++++++++++++++++++++++++.++
(PID.TID 0000.0001) // =======================================================
(PID.TID 0000.0001) // END OF FIELD                                          =
(PID.TID 0000.0001) // =======================================================
(PID.TID 0000.0001) 
(PID.TID 0000.0001) // =======================================================
(PID.TID 0000.0001) // Field hFacC at iteration          0
(PID.TID 0000.0001) // CMIN =          1.000000000000000E+32
(PID.TID 0000.0001) // CMAX =         -1.000000000000000E+32
(PID.TID 0000.0001) // CINT =          0.000000000000000E+00
(PID.TID 0000.0001) // SYMBOLS (CMIN->CMAX): -abcdefghijklmnopqrstuvwxyz+
(PID.TID 0000.0001) //                  0.0: .
(PID.TID 0000.0001) // RANGE I (Lo:Hi:Step):(    -2:    53:     1)
(PID.TID 0000.0001) // RANGE J (Lo:Hi:Step):(   103:    -2:    -1)
(PID.TID 0000.0001) // RANGE K (Lo:Hi:Step):(   1:   1:   1)
(PID.TID 0000.0001) // =======================================================
(PID.TID 0000.0001) // =======================================================
(PID.TID 0000.0001) // END OF FIELD                                          =
(PID.TID 0000.0001) // =======================================================
(PID.TID 0000.0001) 
(PID.TID 0000.0001) // =======================================================
(PID.TID 0000.0001) // Field hFacW at iteration          0
(PID.TID 0000.0001) // CMIN =          1.000000000000000E+32
(PID.TID 0000.0001) // CMAX =         -1.000000000000000E+32
(PID.TID 0000.0001) // CINT =          0.000000000000000E+00
(PID.TID 0000.0001) // SYMBOLS (CMIN->CMAX): -abcdefghijklmnopqrstuvwxyz+
(PID.TID 0000.0001) //                  0.0: .
(PID.TID 0000.0001) // RANGE I (Lo:Hi:Step):(    -2:    53:     1)
(PID.TID 0000.0001) // RANGE J (Lo:Hi:Step):(   103:    -2:    -1)
(PID.TID 0000.0001) // RANGE K (Lo:Hi:Step):(   1:   1:   1)
(PID.TID 0000.0001) // =======================================================
(PID.TID 0000.0001) // =======================================================
(PID.TID 0000.0001) // END OF FIELD                                          =
(PID.TID 0000.0001) // =======================================================
(PID.TID 0000.0001) 
(PID.TID 0000.0001) // =======================================================
(PID.TID 0000.0001) // Field hFacS at iteration          0
(PID.TID 0000.0001) // CMIN =          1.000000000000000E+32
(PID.TID 0000.0001) // CMAX =         -1.000000000000000E+32
(PID.TID 0000.0001) // CINT =          0.000000000000000E+00
(PID.TID 0000.0001) // SYMBOLS (CMIN->CMAX): -abcdefghijklmnopqrstuvwxyz+
(PID.TID 0000.0001) //                  0.0: .
(PID.TID 0000.0001) // RANGE I (Lo:Hi:Step):(    -2:    53:     1)
(PID.TID 0000.0001) // RANGE J (Lo:Hi:Step):(   103:    -2:    -1)
(PID.TID 0000.0001) // RANGE K (Lo:Hi:Step):(   1:   1:   1)
(PID.TID 0000.0001) // =======================================================
(PID.TID 0000.0001) // =======================================================
(PID.TID 0000.0001) // END OF FIELD                                          =
(PID.TID 0000.0001) // =======================================================
(PID.TID 0000.0001) 
(PID.TID 0000.0001) GAD_INIT_FIXED: GAD_OlMinSize=  1  0  1
(PID.TID 0000.0001) 
(PID.TID 0000.0001) // ===================================
(PID.TID 0000.0001) // GAD parameters :
(PID.TID 0000.0001) // ===================================
(PID.TID 0000.0001) tempAdvScheme =   /* Temp. Horiz.Advection scheme selector */
(PID.TID 0000.0001)                       2
(PID.TID 0000.0001)     ;
(PID.TID 0000.0001) tempVertAdvScheme =   /* Temp. Vert. Advection scheme selector */
(PID.TID 0000.0001)                       2
(PID.TID 0000.0001)     ;
(PID.TID 0000.0001) tempMultiDimAdvec =   /* use Muti-Dim Advec method for Temp */
(PID.TID 0000.0001)                   F
(PID.TID 0000.0001)     ;
(PID.TID 0000.0001) tempSOM_Advection = /* use 2nd Order Moment Advection for Temp */
(PID.TID 0000.0001)                   F
(PID.TID 0000.0001)     ;
(PID.TID 0000.0001) AdamsBashforthGt = /* apply Adams-Bashforth extrapolation on Gt */
(PID.TID 0000.0001)                   T
(PID.TID 0000.0001)     ;
(PID.TID 0000.0001) AdamsBashforth_T = /* apply Adams-Bashforth extrapolation on Temp */
(PID.TID 0000.0001)                   F
(PID.TID 0000.0001)     ;
(PID.TID 0000.0001) saltAdvScheme =   /* Salt. Horiz.advection scheme selector */
(PID.TID 0000.0001)                       2
(PID.TID 0000.0001)     ;
(PID.TID 0000.0001) saltVertAdvScheme =   /* Salt. Vert. Advection scheme selector */
(PID.TID 0000.0001)                       2
(PID.TID 0000.0001)     ;
(PID.TID 0000.0001) saltMultiDimAdvec =   /* use Muti-Dim Advec method for Salt */
(PID.TID 0000.0001)                   F
(PID.TID 0000.0001)     ;
(PID.TID 0000.0001) saltSOM_Advection = /* use 2nd Order Moment Advection for Salt */
(PID.TID 0000.0001)                   F
(PID.TID 0000.0001)     ;
(PID.TID 0000.0001) AdamsBashforthGs = /* apply Adams-Bashforth extrapolation on Gs */
(PID.TID 0000.0001)                   T
(PID.TID 0000.0001)     ;
(PID.TID 0000.0001) AdamsBashforth_S = /* apply Adams-Bashforth extrapolation on Salt */
(PID.TID 0000.0001)                   F
(PID.TID 0000.0001)     ;
(PID.TID 0000.0001) // ===================================
(PID.TID 0000.0001) %MON fCori_max                    =  -1.3709057042516E-04
(PID.TID 0000.0001) %MON fCori_min                    =  -1.4360464034757E-04
(PID.TID 0000.0001) %MON fCori_mean                   =  -1.4069429304699E-04
(PID.TID 0000.0001) %MON fCori_sd                     =   1.9069739624987E-06
(PID.TID 0000.0001) %MON fCoriG_max                   =  -1.3713394327439E-04
(PID.TID 0000.0001) %MON fCoriG_min                   =  -1.4362679550910E-04
(PID.TID 0000.0001) %MON fCoriG_mean                  =  -1.4072713798624E-04
(PID.TID 0000.0001) %MON fCoriG_sd                    =   1.9008093726821E-06
(PID.TID 0000.0001) %MON fCoriCos_max                 =   4.9761447480159E-05
(PID.TID 0000.0001) %MON fCoriCos_min                 =   2.5450607565678E-05
(PID.TID 0000.0001) %MON fCoriCos_mean                =   3.7698922201606E-05
(PID.TID 0000.0001) %MON fCoriCos_sd                  =   7.0920218535054E-06
(PID.TID 0000.0001) INI_CG2D: CG2D normalisation factor =  1.0404366262810520E-03
(PID.TID 0000.0001) 
(PID.TID 0000.0001) // =======================================================
(PID.TID 0000.0001) // Model configuration
(PID.TID 0000.0001) // =======================================================
(PID.TID 0000.0001) //
(PID.TID 0000.0001) // "Physical" paramters ( PARM01 in namelist )
(PID.TID 0000.0001) //
(PID.TID 0000.0001) buoyancyRelation = /* Type of relation to get Buoyancy */
(PID.TID 0000.0001)               'OCEANIC'
(PID.TID 0000.0001)     ;
(PID.TID 0000.0001) fluidIsAir   =  /* fluid major constituent is Air */
(PID.TID 0000.0001)                   F
(PID.TID 0000.0001)     ;
(PID.TID 0000.0001) fluidIsWater =  /* fluid major constituent is Water */
(PID.TID 0000.0001)                   T
(PID.TID 0000.0001)     ;
(PID.TID 0000.0001) usingPCoords =  /* use p (or p*) vertical coordinate */
(PID.TID 0000.0001)                   F
(PID.TID 0000.0001)     ;
(PID.TID 0000.0001) usingZCoords =  /* use z (or z*) vertical coordinate */
(PID.TID 0000.0001)                   T
(PID.TID 0000.0001)     ;
(PID.TID 0000.0001) tRef =   /* Reference temperature profile ( oC or K ) */
(PID.TID 0000.0001)    30 @ -1.900000000000000E+00              /* K =  1: 30 */
(PID.TID 0000.0001)     ;
(PID.TID 0000.0001) sRef =   /* Reference salinity profile ( psu ) */
(PID.TID 0000.0001)    30 @  3.440000000000000E+01              /* K =  1: 30 */
(PID.TID 0000.0001)     ;
(PID.TID 0000.0001) viscAh  =   /* Lateral eddy viscosity ( m^2/s ) */
(PID.TID 0000.0001)                 6.000000000000000E+02
(PID.TID 0000.0001)     ;
(PID.TID 0000.0001) viscAhMax = /* Maximum lateral eddy viscosity ( m^2/s ) */
(PID.TID 0000.0001)                 1.000000000000000E+21
(PID.TID 0000.0001)     ;
(PID.TID 0000.0001) viscAhGrid = /* Grid dependent lateral eddy viscosity ( non-dim. ) */
(PID.TID 0000.0001)                 0.000000000000000E+00
(PID.TID 0000.0001)     ;
(PID.TID 0000.0001) useFullLeith = /* Use Full Form of Leith Viscosity on/off flag*/
(PID.TID 0000.0001)                   F
(PID.TID 0000.0001)     ;
(PID.TID 0000.0001) useStrainTensionVisc= /* Use StrainTension Form of Viscous Operator flag*/
(PID.TID 0000.0001)                   F
(PID.TID 0000.0001)     ;
(PID.TID 0000.0001) useAreaViscLength = /* Use area for visc length instead of geom. mean*/
(PID.TID 0000.0001)                   F
(PID.TID 0000.0001)     ;
(PID.TID 0000.0001) viscC2leith = /* Leith harmonic visc. factor (on grad(vort),non-dim.) */
(PID.TID 0000.0001)                 0.000000000000000E+00
(PID.TID 0000.0001)     ;
(PID.TID 0000.0001) viscC2leithD = /* Leith harmonic viscosity factor (on grad(div),non-dim.)*/
(PID.TID 0000.0001)                 0.000000000000000E+00
(PID.TID 0000.0001)     ;
(PID.TID 0000.0001) viscC2smag = /* Smagorinsky harmonic viscosity factor (non-dim.) */
(PID.TID 0000.0001)                 0.000000000000000E+00
(PID.TID 0000.0001)     ;
(PID.TID 0000.0001) viscA4  =   /* Lateral biharmonic viscosity ( m^4/s ) */
(PID.TID 0000.0001)                 0.000000000000000E+00
(PID.TID 0000.0001)     ;
(PID.TID 0000.0001) viscA4Max = /* Maximum biharmonic viscosity ( m^2/s ) */
(PID.TID 0000.0001)                 1.000000000000000E+21
(PID.TID 0000.0001)     ;
(PID.TID 0000.0001) viscA4Grid = /* Grid dependent biharmonic viscosity ( non-dim. ) */
(PID.TID 0000.0001)                 0.000000000000000E+00
(PID.TID 0000.0001)     ;
(PID.TID 0000.0001) viscC4leith = /* Leith biharm viscosity factor (on grad(vort), non-dim.)*/
(PID.TID 0000.0001)                 0.000000000000000E+00
(PID.TID 0000.0001)     ;
(PID.TID 0000.0001) viscC4leithD = /* Leith biharm viscosity factor (on grad(div), non-dim.) */
(PID.TID 0000.0001)                 0.000000000000000E+00
(PID.TID 0000.0001)     ;
(PID.TID 0000.0001) viscC4Smag = /* Smagorinsky biharm viscosity factor (non-dim) */
(PID.TID 0000.0001)                 0.000000000000000E+00
(PID.TID 0000.0001)     ;
(PID.TID 0000.0001) no_slip_sides =  /* Viscous BCs: No-slip sides */
(PID.TID 0000.0001)                   F
(PID.TID 0000.0001)     ;
(PID.TID 0000.0001) sideDragFactor = /* side-drag scaling factor (non-dim) */
(PID.TID 0000.0001)                 2.000000000000000E+00
(PID.TID 0000.0001)     ;
(PID.TID 0000.0001) viscArNr = /* vertical profile of vertical viscosity ( m^2/s )*/
(PID.TID 0000.0001)    30 @  1.000000000000000E-03              /* K =  1: 30 */
(PID.TID 0000.0001)     ;
(PID.TID 0000.0001) no_slip_bottom =  /* Viscous BCs: No-slip bottom */
(PID.TID 0000.0001)                   T
(PID.TID 0000.0001)     ;
(PID.TID 0000.0001) bottomDragLinear = /* linear bottom-drag coefficient ( m/s ) */
(PID.TID 0000.0001)                 0.000000000000000E+00
(PID.TID 0000.0001)     ;
(PID.TID 0000.0001) bottomDragQuadratic = /* quadratic bottom-drag coefficient (-) */
(PID.TID 0000.0001)                 2.500000000000000E-03
(PID.TID 0000.0001)     ;
(PID.TID 0000.0001) diffKhT =   /* Laplacian diffusion of heat laterally ( m^2/s ) */
(PID.TID 0000.0001)                 1.000000000000000E+02
(PID.TID 0000.0001)     ;
(PID.TID 0000.0001) diffK4T =   /* Biharmonic diffusion of heat laterally ( m^4/s ) */
(PID.TID 0000.0001)                 0.000000000000000E+00
(PID.TID 0000.0001)     ;
(PID.TID 0000.0001) diffKhS =   /* Laplacian diffusion of salt laterally ( m^2/s ) */
(PID.TID 0000.0001)                 1.000000000000000E+02
(PID.TID 0000.0001)     ;
(PID.TID 0000.0001) diffK4S =   /* Biharmonic diffusion of salt laterally ( m^4/s ) */
(PID.TID 0000.0001)                 0.000000000000000E+00
(PID.TID 0000.0001)     ;
(PID.TID 0000.0001) diffKrNrT = /* vertical profile of vertical diffusion of Temp ( m^2/s )*/
(PID.TID 0000.0001)    30 @  5.000000000000000E-05              /* K =  1: 30 */
(PID.TID 0000.0001)     ;
(PID.TID 0000.0001) diffKrNrS = /* vertical profile of vertical diffusion of Salt ( m^2/s )*/
(PID.TID 0000.0001)    30 @  5.000000000000000E-05              /* K =  1: 30 */
(PID.TID 0000.0001)     ;
(PID.TID 0000.0001) diffKrBL79surf = /* Surface diffusion for Bryan and Lewis 79 ( m^2/s ) */
(PID.TID 0000.0001)                 0.000000000000000E+00
(PID.TID 0000.0001)     ;
(PID.TID 0000.0001) diffKrBL79deep = /* Deep diffusion for Bryan and Lewis 1979 ( m^2/s ) */
(PID.TID 0000.0001)                 0.000000000000000E+00
(PID.TID 0000.0001)     ;
(PID.TID 0000.0001) diffKrBL79scl = /* Depth scale for Bryan and Lewis 1979 ( m ) */
(PID.TID 0000.0001)                 2.000000000000000E+02
(PID.TID 0000.0001)     ;
(PID.TID 0000.0001) diffKrBL79Ho = /* Turning depth for Bryan and Lewis 1979 ( m ) */
(PID.TID 0000.0001)                -2.000000000000000E+03
(PID.TID 0000.0001)     ;
(PID.TID 0000.0001) ivdc_kappa = /* Implicit Vertical Diffusivity for Convection ( m^2/s) */
(PID.TID 0000.0001)                 0.000000000000000E+00
(PID.TID 0000.0001)     ;
(PID.TID 0000.0001) hMixCriteria=  /* Criteria for mixed-layer diagnostic */
(PID.TID 0000.0001)                -8.000000000000000E-01
(PID.TID 0000.0001)     ;
(PID.TID 0000.0001) dRhoSmall =  /* Parameter for mixed-layer diagnostic */
(PID.TID 0000.0001)                 1.000000000000000E-06
(PID.TID 0000.0001)     ;
(PID.TID 0000.0001) hMixSmooth=  /* Smoothing parameter for mixed-layer diagnostic */
(PID.TID 0000.0001)                 0.000000000000000E+00
(PID.TID 0000.0001)     ;
(PID.TID 0000.0001) eosType =  /* Type of Equation of State */
(PID.TID 0000.0001)               'JMD95Z'
(PID.TID 0000.0001)     ;
(PID.TID 0000.0001) tAlpha =   /* Linear EOS thermal expansion coefficient ( 1/oC ) */
(PID.TID 0000.0001)                 1.234567000000000E+05
(PID.TID 0000.0001)     ;
(PID.TID 0000.0001) sBeta =   /* Linear EOS haline contraction coefficient ( 1/psu ) */
(PID.TID 0000.0001)                 1.234567000000000E+05
(PID.TID 0000.0001)     ;
(PID.TID 0000.0001) rhonil =   /* Reference density ( kg/m^3 ) */
(PID.TID 0000.0001)                 1.030000000000000E+03
(PID.TID 0000.0001)     ;
(PID.TID 0000.0001) rhoConst =   /* Reference density ( kg/m^3 ) */
(PID.TID 0000.0001)                 1.030000000000000E+03
(PID.TID 0000.0001)     ;
(PID.TID 0000.0001) rhoFacC = /* normalized Reference density @ cell-Center (-) */
(PID.TID 0000.0001)    30 @  1.000000000000000E+00              /* K =  1: 30 */
(PID.TID 0000.0001)     ;
(PID.TID 0000.0001) rhoFacF = /* normalized Reference density @ W-Interface (-) */
(PID.TID 0000.0001)    31 @  1.000000000000000E+00              /* K =  1: 31 */
(PID.TID 0000.0001)     ;
(PID.TID 0000.0001) rhoConstFresh =   /* Reference density ( kg/m^3 ) */
(PID.TID 0000.0001)                 1.030000000000000E+03
(PID.TID 0000.0001)     ;
(PID.TID 0000.0001) gravity =   /* Gravitational acceleration ( m/s^2 ) */
(PID.TID 0000.0001)                 9.810000000000000E+00
(PID.TID 0000.0001)     ;
(PID.TID 0000.0001) gBaro =   /* Barotropic gravity ( m/s^2 ) */
(PID.TID 0000.0001)                 9.810000000000000E+00
(PID.TID 0000.0001)     ;
(PID.TID 0000.0001) rotationPeriod =   /* Rotation Period ( s ) */
(PID.TID 0000.0001)                 8.616400000000000E+04
(PID.TID 0000.0001)     ;
(PID.TID 0000.0001) omega =   /* Angular velocity ( rad/s ) */
(PID.TID 0000.0001)                 7.292123516990375E-05
(PID.TID 0000.0001)     ;
(PID.TID 0000.0001) f0 =   /* Reference coriolis parameter ( 1/s ) */
(PID.TID 0000.0001)                 1.000000000000000E-04
(PID.TID 0000.0001)     ;
(PID.TID 0000.0001) beta =   /* Beta ( 1/(m.s) ) */
(PID.TID 0000.0001)                 9.999999999999999E-12
(PID.TID 0000.0001)     ;
(PID.TID 0000.0001) fPrime =   /* Second coriolis parameter ( 1/s ) */
(PID.TID 0000.0001)                 0.000000000000000E+00
(PID.TID 0000.0001)     ;
(PID.TID 0000.0001) rigidLid =   /* Rigid lid on/off flag */
(PID.TID 0000.0001)                   F
(PID.TID 0000.0001)     ;
(PID.TID 0000.0001) implicitFreeSurface =   /* Implicit free surface on/off flag */
(PID.TID 0000.0001)                   T
(PID.TID 0000.0001)     ;
(PID.TID 0000.0001) freeSurfFac =   /* Implicit free surface factor */
(PID.TID 0000.0001)                 1.000000000000000E+00
(PID.TID 0000.0001)     ;
(PID.TID 0000.0001) implicSurfPress =  /* Surface Pressure implicit factor (0-1)*/
(PID.TID 0000.0001)                 1.000000000000000E+00
(PID.TID 0000.0001)     ;
(PID.TID 0000.0001) implicDiv2Dflow =  /* Barot. Flow Div. implicit factor (0-1)*/
(PID.TID 0000.0001)                 1.000000000000000E+00
(PID.TID 0000.0001)     ;
(PID.TID 0000.0001) exactConserv =  /* Exact Volume Conservation on/off flag*/
(PID.TID 0000.0001)                   T
(PID.TID 0000.0001)     ;
(PID.TID 0000.0001) linFSConserveTr = /* Tracer correction for Lin Free Surface on/off flag*/
(PID.TID 0000.0001)                   F
(PID.TID 0000.0001)     ;
(PID.TID 0000.0001) uniformLin_PhiSurf = /* use uniform Bo_surf on/off flag*/
(PID.TID 0000.0001)                   T
(PID.TID 0000.0001)     ;
(PID.TID 0000.0001) hFacMin =   /* minimum partial cell factor (hFac) */
(PID.TID 0000.0001)                 5.000000000000000E-02
(PID.TID 0000.0001)     ;
(PID.TID 0000.0001) hFacMinDr = /* minimum partial cell thickness ( m) */
(PID.TID 0000.0001)                 5.000000000000000E-02
(PID.TID 0000.0001)     ;
(PID.TID 0000.0001) nonlinFreeSurf = /* Non-linear Free Surf. options (-1,0,1,2,3)*/
(PID.TID 0000.0001)                       0
(PID.TID 0000.0001)      -1,0= Off ; 1,2,3= On, 2=+rescale gU,gV, 3=+update cg2d solv.
(PID.TID 0000.0001)     ;
(PID.TID 0000.0001) hFacInf =   /* lower threshold for hFac (nonlinFreeSurf only)*/
(PID.TID 0000.0001)                 2.000000000000000E-01
(PID.TID 0000.0001)     ;
(PID.TID 0000.0001) hFacSup =   /* upper threshold for hFac (nonlinFreeSurf only)*/
(PID.TID 0000.0001)                 2.000000000000000E+00
(PID.TID 0000.0001)     ;
(PID.TID 0000.0001) select_rStar = /* r* Vertical coord. options (=0 r coord.; >0 uses r*)*/
(PID.TID 0000.0001)                       0
(PID.TID 0000.0001)     ;
(PID.TID 0000.0001) selectAddFluid = /* option for mass source/sink of fluid (=0: off) */
(PID.TID 0000.0001)                       0
(PID.TID 0000.0001)     ;
(PID.TID 0000.0001) useRealFreshWaterFlux = /* Real Fresh Water Flux on/off flag*/
(PID.TID 0000.0001)                   F
(PID.TID 0000.0001)     ;
(PID.TID 0000.0001) temp_EvPrRn = /* Temp. of Evap/Prec/R (UNSET=use local T)(oC)*/
(PID.TID 0000.0001)                 1.234567000000000E+05
(PID.TID 0000.0001)     ;
(PID.TID 0000.0001) salt_EvPrRn = /* Salin. of Evap/Prec/R (UNSET=use local S)(psu)*/
(PID.TID 0000.0001)                 0.000000000000000E+00
(PID.TID 0000.0001)     ;
(PID.TID 0000.0001) temp_addMass = /* Temp. of addMass array (UNSET=use local T)(oC)*/
(PID.TID 0000.0001)                 1.234567000000000E+05
(PID.TID 0000.0001)     ;
(PID.TID 0000.0001) salt_addMass = /* Salin. of addMass array (UNSET=use local S)(psu)*/
(PID.TID 0000.0001)                 0.000000000000000E+00
(PID.TID 0000.0001)     ;
(PID.TID 0000.0001) convertFW2Salt = /* convert F.W. Flux to Salt Flux (-1=use local S)(psu)*/
(PID.TID 0000.0001)                 3.340000000000000E+01
(PID.TID 0000.0001)     ;
(PID.TID 0000.0001) use3Dsolver = /* use 3-D pressure solver on/off flag */
(PID.TID 0000.0001)                   F
(PID.TID 0000.0001)     ;
(PID.TID 0000.0001) nonHydrostatic =  /* Non-Hydrostatic on/off flag */
(PID.TID 0000.0001)                   F
(PID.TID 0000.0001)     ;
(PID.TID 0000.0001) nh_Am2 = /* Non-Hydrostatic terms scaling factor */
(PID.TID 0000.0001)                 1.000000000000000E+00
(PID.TID 0000.0001)     ;
(PID.TID 0000.0001) implicitNHPress = /* Non-Hyd Pressure implicit factor (0-1)*/
(PID.TID 0000.0001)                 1.000000000000000E+00
(PID.TID 0000.0001)     ;
(PID.TID 0000.0001) selectNHfreeSurf = /* Non-Hyd (free-)Surface option */
(PID.TID 0000.0001)                       0
(PID.TID 0000.0001)     ;
(PID.TID 0000.0001) quasiHydrostatic = /* Quasi-Hydrostatic on/off flag */
(PID.TID 0000.0001)                   F
(PID.TID 0000.0001)     ;
(PID.TID 0000.0001) momStepping =  /* Momentum equation on/off flag */
(PID.TID 0000.0001)                   T
(PID.TID 0000.0001)     ;
(PID.TID 0000.0001) vectorInvariantMomentum= /* Vector-Invariant Momentum on/off */
(PID.TID 0000.0001)                   F
(PID.TID 0000.0001)     ;
(PID.TID 0000.0001) momAdvection =  /* Momentum advection on/off flag */
(PID.TID 0000.0001)                   T
(PID.TID 0000.0001)     ;
(PID.TID 0000.0001) momViscosity =  /* Momentum viscosity on/off flag */
(PID.TID 0000.0001)                   T
(PID.TID 0000.0001)     ;
(PID.TID 0000.0001) momImplVertAdv= /* Momentum implicit vert. advection on/off*/
(PID.TID 0000.0001)                   F
(PID.TID 0000.0001)     ;
(PID.TID 0000.0001) implicitViscosity = /* Implicit viscosity on/off flag */
(PID.TID 0000.0001)                   F
(PID.TID 0000.0001)     ;
(PID.TID 0000.0001) metricTerms =  /* metric-Terms on/off flag */
(PID.TID 0000.0001)                   T
(PID.TID 0000.0001)     ;
(PID.TID 0000.0001) useNHMTerms = /* Non-Hydrostatic Metric-Terms on/off */
(PID.TID 0000.0001)                   F
(PID.TID 0000.0001)     ;
(PID.TID 0000.0001) selectCoriMap = /* Coriolis Map options (0,1,2,3)*/
(PID.TID 0000.0001)                       2
(PID.TID 0000.0001)     0= f-Plane ; 1= Beta-Plane ; 2= Spherical ; 3= read from file
(PID.TID 0000.0001)     ;
(PID.TID 0000.0001) use3dCoriolis = /* 3-D Coriolis on/off flag */
(PID.TID 0000.0001)                   F
(PID.TID 0000.0001)     ;
(PID.TID 0000.0001) useCoriolis =  /* Coriolis on/off flag */
(PID.TID 0000.0001)                   T
(PID.TID 0000.0001)     ;
(PID.TID 0000.0001) useCDscheme =  /* CD scheme on/off flag */
(PID.TID 0000.0001)                   T
(PID.TID 0000.0001)     ;
(PID.TID 0000.0001) useEnergyConservingCoriolis= /* Flx-Form Coriolis scheme flag */
(PID.TID 0000.0001)                   F
(PID.TID 0000.0001)     ;
(PID.TID 0000.0001) useJamartWetPoints= /* Coriolis WetPoints method flag */
(PID.TID 0000.0001)                   F
(PID.TID 0000.0001)     ;
(PID.TID 0000.0001) useJamartMomAdv= /* V.I Non-linear terms Jamart flag */
(PID.TID 0000.0001)                   F
(PID.TID 0000.0001)     ;
(PID.TID 0000.0001) useAbsVorticity= /* V.I Works with f+zeta in Coriolis */
(PID.TID 0000.0001)                   F
(PID.TID 0000.0001)     ;
(PID.TID 0000.0001) selectVortScheme= /* V.I Scheme selector for Vorticity-Term */
(PID.TID 0000.0001)               123456789
(PID.TID 0000.0001)    = 0 : enstrophy (Shallow-Water Eq.) conserving scheme by Sadourny, JAS 75
(PID.TID 0000.0001)    = 1 : same as 0 with modified hFac
(PID.TID 0000.0001)    = 2 : energy conserving scheme (used by Sadourny in JAS 75 paper)
(PID.TID 0000.0001)    = 3 : energy (general) and enstrophy (2D, nonDiv.) conserving scheme
(PID.TID 0000.0001)          from Sadourny (Burridge & Haseler, ECMWF Rep.4, 1977)
(PID.TID 0000.0001)     ;
(PID.TID 0000.0001) upwindVorticity= /* V.I Upwind bias vorticity flag */
(PID.TID 0000.0001)                   F
(PID.TID 0000.0001)     ;
(PID.TID 0000.0001) highOrderVorticity= /* V.I High order vort. advect. flag */
(PID.TID 0000.0001)                   F
(PID.TID 0000.0001)     ;
(PID.TID 0000.0001) upwindShear= /* V.I Upwind vertical Shear advection flag */
(PID.TID 0000.0001)                   F
(PID.TID 0000.0001)     ;
(PID.TID 0000.0001) selectKEscheme= /* V.I Kinetic Energy scheme selector */
(PID.TID 0000.0001)                       0
(PID.TID 0000.0001)     ;
(PID.TID 0000.0001) momForcing =  /* Momentum forcing on/off flag */
(PID.TID 0000.0001)                   T
(PID.TID 0000.0001)     ;
(PID.TID 0000.0001) momPressureForcing =  /* Momentum pressure term on/off flag */
(PID.TID 0000.0001)                   T
(PID.TID 0000.0001)     ;
(PID.TID 0000.0001) implicitIntGravWave= /* Implicit Internal Gravity Wave flag */
(PID.TID 0000.0001)                   F
(PID.TID 0000.0001)     ;
(PID.TID 0000.0001) staggerTimeStep =   /* Stagger time stepping on/off flag */
(PID.TID 0000.0001)                   F
(PID.TID 0000.0001)     ;
(PID.TID 0000.0001) multiDimAdvection =   /* enable/disable Multi-Dim Advection */
(PID.TID 0000.0001)                   T
(PID.TID 0000.0001)     ;
(PID.TID 0000.0001) useMultiDimAdvec =   /* Multi-Dim Advection is/is-not used */
(PID.TID 0000.0001)                   F
(PID.TID 0000.0001)     ;
(PID.TID 0000.0001) implicitDiffusion = /* Implicit Diffusion on/off flag */
(PID.TID 0000.0001)                   F
(PID.TID 0000.0001)     ;
(PID.TID 0000.0001) tempStepping =  /* Temperature equation on/off flag */
(PID.TID 0000.0001)                   T
(PID.TID 0000.0001)     ;
(PID.TID 0000.0001) tempAdvection=  /* Temperature advection on/off flag */
(PID.TID 0000.0001)                   T
(PID.TID 0000.0001)     ;
(PID.TID 0000.0001) tempImplVertAdv = /* Temp. implicit vert. advection on/off */
(PID.TID 0000.0001)                   F
(PID.TID 0000.0001)     ;
(PID.TID 0000.0001) tempForcing  =  /* Temperature forcing on/off flag */
(PID.TID 0000.0001)                   T
(PID.TID 0000.0001)     ;
(PID.TID 0000.0001) tempIsActiveTr = /* Temp. is a dynamically Active Tracer */
(PID.TID 0000.0001)                   T
(PID.TID 0000.0001)     ;
(PID.TID 0000.0001) saltStepping =  /* Salinity equation on/off flag */
(PID.TID 0000.0001)                   T
(PID.TID 0000.0001)     ;
(PID.TID 0000.0001) saltAdvection=  /* Salinity advection on/off flag */
(PID.TID 0000.0001)                   T
(PID.TID 0000.0001)     ;
(PID.TID 0000.0001) saltImplVertAdv = /* Sali. implicit vert. advection on/off */
(PID.TID 0000.0001)                   F
(PID.TID 0000.0001)     ;
(PID.TID 0000.0001) saltForcing  =  /* Salinity forcing on/off flag */
(PID.TID 0000.0001)                   T
(PID.TID 0000.0001)     ;
(PID.TID 0000.0001) saltIsActiveTr = /* Salt  is a dynamically Active Tracer */
(PID.TID 0000.0001)                   T
(PID.TID 0000.0001)     ;
(PID.TID 0000.0001)  readBinaryPrec = /* Precision used for reading binary files */
(PID.TID 0000.0001)                      64
(PID.TID 0000.0001)     ;
(PID.TID 0000.0001) writeBinaryPrec = /* Precision used for writing binary files */
(PID.TID 0000.0001)                      32
(PID.TID 0000.0001)     ;
(PID.TID 0000.0001)  globalFiles = /* write "global" (=not per tile) files */
(PID.TID 0000.0001)                   F
(PID.TID 0000.0001)     ;
(PID.TID 0000.0001)  useSingleCpuIO = /* only master MPI process does I/O */
(PID.TID 0000.0001)                   F
(PID.TID 0000.0001)     ;
(PID.TID 0000.0001) /* debLev[*]  : level of debug & auxiliary message printing */
(PID.TID 0000.0001) debLevZero =  0 ; /* level of disabled aux. msg printing */
(PID.TID 0000.0001)    debLevA =  1 ; /* level of minimum  aux. msg printing */
(PID.TID 0000.0001)    debLevB =  2 ; /* level of low aux. print (report read-file opening)*/
(PID.TID 0000.0001)    debLevC =  3 ; /* level of moderate debug prt (most pkgs debug msg) */
(PID.TID 0000.0001)    debLevD =  4 ; /* level of enhanced debug prt (add DEBUG_STATS prt) */
(PID.TID 0000.0001)    debLevE =  5 ; /* level of extensive debug printing */
(PID.TID 0000.0001) debugLevel =  /* select debug printing level */
(PID.TID 0000.0001)                       2
(PID.TID 0000.0001)     ;
(PID.TID 0000.0001) //
(PID.TID 0000.0001) // Elliptic solver(s) paramters ( PARM02 in namelist )
(PID.TID 0000.0001) //
(PID.TID 0000.0001) cg2dMaxIters =   /* Upper limit on 2d con. grad iterations  */
(PID.TID 0000.0001)                    1000
(PID.TID 0000.0001)     ;
(PID.TID 0000.0001) cg2dChkResFreq =   /* 2d con. grad convergence test frequency */
(PID.TID 0000.0001)                       1
(PID.TID 0000.0001)     ;
(PID.TID 0000.0001) cg2dTargetResidual =   /* 2d con. grad target residual  */
(PID.TID 0000.0001)                 1.000000000000000E-13
(PID.TID 0000.0001)     ;
(PID.TID 0000.0001) cg2dTargetResWunit =   /* CG2d target residual [W units] */
(PID.TID 0000.0001)                -1.000000000000000E+00
(PID.TID 0000.0001)     ;
(PID.TID 0000.0001) cg2dPreCondFreq =   /* Freq. for updating cg2d preconditioner */
(PID.TID 0000.0001)                       1
(PID.TID 0000.0001)     ;
(PID.TID 0000.0001) useSRCGSolver =  /* use single reduction CG solver(s) */
(PID.TID 0000.0001)                   F
(PID.TID 0000.0001)     ;
(PID.TID 0000.0001) printResidualFreq = /* Freq. for printing CG residual */
(PID.TID 0000.0001)                       0
(PID.TID 0000.0001)     ;
(PID.TID 0000.0001) //
(PID.TID 0000.0001) // Time stepping paramters ( PARM03 in namelist )
(PID.TID 0000.0001) //
(PID.TID 0000.0001) deltaTmom =   /* Momentum equation timestep ( s ) */
(PID.TID 0000.0001)                 1.800000000000000E+03
(PID.TID 0000.0001)     ;
(PID.TID 0000.0001) deltaTfreesurf = /* FreeSurface equation timestep ( s ) */
(PID.TID 0000.0001)                 1.800000000000000E+03
(PID.TID 0000.0001)     ;
(PID.TID 0000.0001) dTtracerLev =  /* Tracer equation timestep ( s ) */
(PID.TID 0000.0001)    30 @  1.800000000000000E+03              /* K =  1: 30 */
(PID.TID 0000.0001)     ;
(PID.TID 0000.0001) deltaTClock  =   /* Model clock timestep ( s ) */
(PID.TID 0000.0001)                 1.800000000000000E+03
(PID.TID 0000.0001)     ;
(PID.TID 0000.0001) cAdjFreq =   /* Convective adjustment interval ( s ) */
(PID.TID 0000.0001)                 1.800000000000000E+03
(PID.TID 0000.0001)     ;
(PID.TID 0000.0001) momForcingOutAB = /* =1: take Momentum Forcing out of Adams-Bash. stepping */
(PID.TID 0000.0001)                       0
(PID.TID 0000.0001)     ;
(PID.TID 0000.0001) tracForcingOutAB = /* =1: take T,S,pTr Forcing out of Adams-Bash. stepping */
(PID.TID 0000.0001)                       0
(PID.TID 0000.0001)     ;
(PID.TID 0000.0001) momDissip_In_AB = /* put Dissipation Tendency in Adams-Bash. stepping */
(PID.TID 0000.0001)                   T
(PID.TID 0000.0001)     ;
(PID.TID 0000.0001) doAB_onGtGs = /* apply AB on Tendencies (rather than on T,S)*/
(PID.TID 0000.0001)                   T
(PID.TID 0000.0001)     ;
(PID.TID 0000.0001) abEps =   /* Adams-Bashforth-2 stabilizing weight */
(PID.TID 0000.0001)                 1.000000000000000E-01
(PID.TID 0000.0001)     ;
(PID.TID 0000.0001) tauCD =   /* CD coupling time-scale ( s ) */
(PID.TID 0000.0001)                 4.000000000000000E+05
(PID.TID 0000.0001)     ;
(PID.TID 0000.0001) rCD =   /* Normalised CD coupling parameter */
(PID.TID 0000.0001)                 9.955000000000001E-01
(PID.TID 0000.0001)     ;
(PID.TID 0000.0001) epsAB_CD = /* AB-2 stabilizing weight for CD-scheme*/
(PID.TID 0000.0001)                 1.000000000000000E-01
(PID.TID 0000.0001)     ;
(PID.TID 0000.0001) pickupStrictlyMatch= /* stop if pickup do not strictly match */
(PID.TID 0000.0001)                   T
(PID.TID 0000.0001)     ;
(PID.TID 0000.0001) nIter0   =   /* Run starting timestep number */
(PID.TID 0000.0001)                       0
(PID.TID 0000.0001)     ;
(PID.TID 0000.0001) nTimeSteps = /* Number of timesteps */
(PID.TID 0000.0001)                      20
(PID.TID 0000.0001)     ;
(PID.TID 0000.0001) nEndIter =   /* Run ending timestep number */
(PID.TID 0000.0001)                      20
(PID.TID 0000.0001)     ;
(PID.TID 0000.0001) baseTime =   /* Model base time ( s ) */
(PID.TID 0000.0001)                 0.000000000000000E+00
(PID.TID 0000.0001)     ;
(PID.TID 0000.0001) startTime =  /* Run start time ( s ) */
(PID.TID 0000.0001)                 0.000000000000000E+00
(PID.TID 0000.0001)     ;
(PID.TID 0000.0001) endTime  =   /* Integration ending time ( s ) */
(PID.TID 0000.0001)                 3.600000000000000E+04
(PID.TID 0000.0001)     ;
(PID.TID 0000.0001) pChkPtFreq = /* Permanent restart/pickup file interval ( s ) */
(PID.TID 0000.0001)                 0.000000000000000E+00
(PID.TID 0000.0001)     ;
(PID.TID 0000.0001) chkPtFreq  = /* Rolling restart/pickup file interval ( s ) */
(PID.TID 0000.0001)                 0.000000000000000E+00
(PID.TID 0000.0001)     ;
(PID.TID 0000.0001) pickup_write_mdsio =   /* Model IO flag. */
(PID.TID 0000.0001)                   T
(PID.TID 0000.0001)     ;
(PID.TID 0000.0001) pickup_read_mdsio =   /* Model IO flag. */
(PID.TID 0000.0001)                   T
(PID.TID 0000.0001)     ;
(PID.TID 0000.0001) pickup_write_mnc =   /* Model IO flag. */
(PID.TID 0000.0001)                   F
(PID.TID 0000.0001)     ;
(PID.TID 0000.0001) pickup_read_mnc =   /* Model IO flag. */
(PID.TID 0000.0001)                   F
(PID.TID 0000.0001)     ;
(PID.TID 0000.0001) pickup_write_immed =   /* Model IO flag. */
(PID.TID 0000.0001)                   F
(PID.TID 0000.0001)     ;
(PID.TID 0000.0001) writePickupAtEnd =   /* Model IO flag. */
(PID.TID 0000.0001)                   T
(PID.TID 0000.0001)     ;
(PID.TID 0000.0001) dumpFreq =   /* Model state write out interval ( s ). */
(PID.TID 0000.0001)                 0.000000000000000E+00
(PID.TID 0000.0001)     ;
(PID.TID 0000.0001) dumpInitAndLast= /* write out Initial & Last iter. model state */
(PID.TID 0000.0001)                   T
(PID.TID 0000.0001)     ;
(PID.TID 0000.0001) snapshot_mdsio =   /* Model IO flag. */
(PID.TID 0000.0001)                   F
(PID.TID 0000.0001)     ;
(PID.TID 0000.0001) snapshot_mnc =   /* Model IO flag. */
(PID.TID 0000.0001)                   T
(PID.TID 0000.0001)     ;
(PID.TID 0000.0001) monitorFreq =   /* Monitor output interval ( s ). */
(PID.TID 0000.0001)                 1.000000000000000E+00
(PID.TID 0000.0001)     ;
(PID.TID 0000.0001) monitorSelect = /* select group of variables to monitor */
(PID.TID 0000.0001)                       2
(PID.TID 0000.0001)     ;
(PID.TID 0000.0001) monitor_stdio =   /* Model IO flag. */
(PID.TID 0000.0001)                   T
(PID.TID 0000.0001)     ;
(PID.TID 0000.0001) monitor_mnc =   /* Model IO flag. */
(PID.TID 0000.0001)                   F
(PID.TID 0000.0001)     ;
(PID.TID 0000.0001) externForcingPeriod =   /* forcing period (s) */
(PID.TID 0000.0001)                 0.000000000000000E+00
(PID.TID 0000.0001)     ;
(PID.TID 0000.0001) externForcingCycle =   /* period of the cyle (s). */
(PID.TID 0000.0001)                 0.000000000000000E+00
(PID.TID 0000.0001)     ;
(PID.TID 0000.0001) tauThetaClimRelax =   /* relaxation time scale (s) */
(PID.TID 0000.0001)                 0.000000000000000E+00
(PID.TID 0000.0001)     ;
(PID.TID 0000.0001) tauSaltClimRelax =   /* relaxation time scale (s) */
(PID.TID 0000.0001)                 0.000000000000000E+00
(PID.TID 0000.0001)     ;
(PID.TID 0000.0001) latBandClimRelax =   /* max. Lat. where relaxation */
(PID.TID 0000.0001)                 1.800000000000000E+02
(PID.TID 0000.0001)     ;
(PID.TID 0000.0001) //
(PID.TID 0000.0001) // Gridding paramters ( PARM04 in namelist )
(PID.TID 0000.0001) //
(PID.TID 0000.0001) usingCartesianGrid = /* Cartesian coordinates flag ( True/False ) */
(PID.TID 0000.0001)                   F
(PID.TID 0000.0001)     ;
(PID.TID 0000.0001) usingCylindricalGrid = /* Cylindrical coordinates flag ( True/False ) */
(PID.TID 0000.0001)                   F
(PID.TID 0000.0001)     ;
(PID.TID 0000.0001) usingSphericalPolarGrid = /* Spherical coordinates flag ( True/False ) */
(PID.TID 0000.0001)                   T
(PID.TID 0000.0001)     ;
(PID.TID 0000.0001) usingCurvilinearGrid = /* Curvilinear coordinates flag ( True/False ) */
(PID.TID 0000.0001)                   F
(PID.TID 0000.0001)     ;
(PID.TID 0000.0001) selectSigmaCoord = /* Hybrid-Sigma Vert. Coordinate option */
(PID.TID 0000.0001)                       0
(PID.TID 0000.0001)     ;
(PID.TID 0000.0001) Ro_SeaLevel = /* r(1) ( units of r ==  m ) */
(PID.TID 0000.0001)                 0.000000000000000E+00
(PID.TID 0000.0001)     ;
(PID.TID 0000.0001) rSigmaBnd = /* r/sigma transition ( units of r ==  m ) */
(PID.TID 0000.0001)                 1.234567000000000E+05
(PID.TID 0000.0001)     ;
(PID.TID 0000.0001) rkSign =   /* index orientation relative to vertical coordinate */
(PID.TID 0000.0001)                -1.000000000000000E+00
(PID.TID 0000.0001)     ;
(PID.TID 0000.0001) gravitySign = /* gravity orientation relative to vertical coordinate */
(PID.TID 0000.0001)                -1.000000000000000E+00
(PID.TID 0000.0001)     ;
(PID.TID 0000.0001) mass2rUnit = /* convert mass per unit area [kg/m2] to r-units [m] */
(PID.TID 0000.0001)                 9.708737864077669E-04
(PID.TID 0000.0001)     ;
(PID.TID 0000.0001) rUnit2mass = /* convert r-units [m] to mass per unit area [kg/m2] */
(PID.TID 0000.0001)                 1.030000000000000E+03
(PID.TID 0000.0001)     ;
(PID.TID 0000.0001) drC =   /* C spacing ( units of r ) */
(PID.TID 0000.0001)                 1.500000000000000E+01,      /* K =  1 */
(PID.TID 0000.0001)    29 @  3.000000000000000E+01              /* K =  2: 30 */
(PID.TID 0000.0001)     ;
(PID.TID 0000.0001) drF =   /* W spacing ( units of r ) */
(PID.TID 0000.0001)    30 @  3.000000000000000E+01              /* K =  1: 30 */
(PID.TID 0000.0001)     ;
(PID.TID 0000.0001) delX = /* U spacing ( m - cartesian, degrees - spherical ) */
(PID.TID 0000.0001)    50 @  3.000000000000000E-01              /* I =  1: 50 */
(PID.TID 0000.0001)     ;
(PID.TID 0000.0001) delY = /* V spacing ( m - cartesian, degrees - spherical ) */
(PID.TID 0000.0001)   100 @  1.000000000000000E-01              /* J =  1:100 */
(PID.TID 0000.0001)     ;
(PID.TID 0000.0001) xgOrigin = /* X-axis origin of West  edge (cartesian: m, lat-lon: deg.) */
(PID.TID 0000.0001)                 0.000000000000000E+00
(PID.TID 0000.0001)     ;
(PID.TID 0000.0001) ygOrigin = /* Y-axis origin of South edge (cartesian: m, lat-lon: deg.) */
(PID.TID 0000.0001)                -8.000000000000000E+01
(PID.TID 0000.0001)     ;
(PID.TID 0000.0001) rSphere =  /* Radius ( ignored - cartesian, m - spherical ) */
(PID.TID 0000.0001)                 6.370000000000000E+06
(PID.TID 0000.0001)     ;
(PID.TID 0000.0001) deepAtmosphere = /* Deep/Shallow Atmosphere flag (True/False) */
(PID.TID 0000.0001)                   F
(PID.TID 0000.0001)     ;
(PID.TID 0000.0001) xC =  /* xC(:,1,:,1) : P-point X coord ( deg. or m if cartesian) */
(PID.TID 0000.0001)                 1.500000000000001E-01,      /* I =  1 */
(PID.TID 0000.0001)                 4.500000000000001E-01,      /* I =  2 */
(PID.TID 0000.0001)                 7.500000000000002E-01,      /* I =  3 */
(PID.TID 0000.0001)                 1.050000000000000E+00,      /* I =  4 */
(PID.TID 0000.0001)                 1.350000000000000E+00,      /* I =  5 */
(PID.TID 0000.0001)                 1.650000000000000E+00,      /* I =  6 */
(PID.TID 0000.0001)                 1.950000000000000E+00,      /* I =  7 */
(PID.TID 0000.0001)                 2.250000000000000E+00,      /* I =  8 */
(PID.TID 0000.0001)                 2.550000000000000E+00,      /* I =  9 */
(PID.TID 0000.0001)                 2.850000000000000E+00,      /* I = 10 */
(PID.TID 0000.0001)                 3.149999999999999E+00,      /* I = 11 */
(PID.TID 0000.0001)                 3.449999999999999E+00,      /* I = 12 */
(PID.TID 0000.0001)                 3.749999999999999E+00,      /* I = 13 */
(PID.TID 0000.0001)                 4.049999999999999E+00,      /* I = 14 */
(PID.TID 0000.0001)                 4.350000000000000E+00,      /* I = 15 */
(PID.TID 0000.0001)                 4.649999999999999E+00,      /* I = 16 */
(PID.TID 0000.0001)                 4.949999999999999E+00,      /* I = 17 */
(PID.TID 0000.0001)                 5.249999999999998E+00,      /* I = 18 */
(PID.TID 0000.0001)                 5.549999999999999E+00,      /* I = 19 */
(PID.TID 0000.0001)                 5.849999999999998E+00,      /* I = 20 */
(PID.TID 0000.0001)                 6.149999999999999E+00,      /* I = 21 */
(PID.TID 0000.0001)                 6.449999999999998E+00,      /* I = 22 */
(PID.TID 0000.0001)                 6.749999999999998E+00,      /* I = 23 */
(PID.TID 0000.0001)                 7.049999999999997E+00,      /* I = 24 */
(PID.TID 0000.0001)                 7.349999999999997E+00,      /* I = 25 */
(PID.TID 0000.0001)                 7.649999999999997E+00,      /* I = 26 */
(PID.TID 0000.0001)                 7.949999999999998E+00,      /* I = 27 */
(PID.TID 0000.0001)                 8.249999999999998E+00,      /* I = 28 */
(PID.TID 0000.0001)                 8.549999999999999E+00,      /* I = 29 */
(PID.TID 0000.0001)                 8.850000000000000E+00,      /* I = 30 */
(PID.TID 0000.0001)                 9.150000000000000E+00,      /* I = 31 */
(PID.TID 0000.0001)                 9.450000000000001E+00,      /* I = 32 */
(PID.TID 0000.0001)                 9.750000000000002E+00,      /* I = 33 */
(PID.TID 0000.0001)                 1.005000000000000E+01,      /* I = 34 */
(PID.TID 0000.0001)                 1.035000000000000E+01,      /* I = 35 */
(PID.TID 0000.0001)                 1.065000000000000E+01,      /* I = 36 */
(PID.TID 0000.0001)                 1.095000000000001E+01,      /* I = 37 */
(PID.TID 0000.0001)                 1.125000000000001E+01,      /* I = 38 */
(PID.TID 0000.0001)                 1.155000000000000E+01,      /* I = 39 */
(PID.TID 0000.0001)                 1.185000000000001E+01,      /* I = 40 */
(PID.TID 0000.0001)                 1.215000000000001E+01,      /* I = 41 */
(PID.TID 0000.0001)                 1.245000000000001E+01,      /* I = 42 */
(PID.TID 0000.0001)                 1.275000000000001E+01,      /* I = 43 */
(PID.TID 0000.0001)                 1.305000000000001E+01,      /* I = 44 */
(PID.TID 0000.0001)                 1.335000000000001E+01,      /* I = 45 */
(PID.TID 0000.0001)                 1.365000000000001E+01,      /* I = 46 */
(PID.TID 0000.0001)                 1.395000000000001E+01,      /* I = 47 */
(PID.TID 0000.0001)                 1.425000000000001E+01,      /* I = 48 */
(PID.TID 0000.0001)                 1.455000000000001E+01,      /* I = 49 */
(PID.TID 0000.0001)                 1.485000000000001E+01       /* I = 50 */
(PID.TID 0000.0001)     ;
(PID.TID 0000.0001) yC =  /* yC(1,:,1,:) : P-point Y coord ( deg. or m if cartesian) */
(PID.TID 0000.0001)                -7.995000000000000E+01,      /* J =  1 */
(PID.TID 0000.0001)                -7.985000000000001E+01,      /* J =  2 */
(PID.TID 0000.0001)                -7.975000000000001E+01,      /* J =  3 */
(PID.TID 0000.0001)      . . .
(PID.TID 0000.0001)                -7.775000000000013E+01,      /* J = 23 */
(PID.TID 0000.0001)                -7.765000000000013E+01,      /* J = 24 */
(PID.TID 0000.0001)                -7.755000000000014E+01,      /* J = 25 */
(PID.TID 0000.0001)                -7.745000000000014E+01,      /* J = 26 */
(PID.TID 0000.0001)                -7.735000000000015E+01,      /* J = 27 */
(PID.TID 0000.0001)                -7.725000000000016E+01,      /* J = 28 */
(PID.TID 0000.0001)      . . .
(PID.TID 0000.0001)                -7.525000000000027E+01,      /* J = 48 */
(PID.TID 0000.0001)                -7.515000000000028E+01,      /* J = 49 */
(PID.TID 0000.0001)                -7.505000000000028E+01,      /* J = 50 */
(PID.TID 0000.0001)                -7.495000000000029E+01,      /* J = 51 */
(PID.TID 0000.0001)                -7.485000000000029E+01,      /* J = 52 */
(PID.TID 0000.0001)                -7.475000000000030E+01,      /* J = 53 */
(PID.TID 0000.0001)      . . .
(PID.TID 0000.0001)                -7.275000000000041E+01,      /* J = 73 */
(PID.TID 0000.0001)                -7.265000000000042E+01,      /* J = 74 */
(PID.TID 0000.0001)                -7.255000000000042E+01,      /* J = 75 */
(PID.TID 0000.0001)                -7.245000000000043E+01,      /* J = 76 */
(PID.TID 0000.0001)                -7.235000000000043E+01,      /* J = 77 */
(PID.TID 0000.0001)                -7.225000000000044E+01,      /* J = 78 */
(PID.TID 0000.0001)      . . .
(PID.TID 0000.0001)                -7.025000000000055E+01,      /* J = 98 */
(PID.TID 0000.0001)                -7.015000000000056E+01,      /* J = 99 */
(PID.TID 0000.0001)                -7.005000000000057E+01       /* J =100 */
(PID.TID 0000.0001)     ;
(PID.TID 0000.0001) rcoord = /* P-point R coordinate (  units of r ) */
(PID.TID 0000.0001)                -1.500000000000000E+01,      /* K =  1 */
(PID.TID 0000.0001)                -4.500000000000000E+01,      /* K =  2 */
(PID.TID 0000.0001)                -7.500000000000000E+01,      /* K =  3 */
(PID.TID 0000.0001)                -1.050000000000000E+02,      /* K =  4 */
(PID.TID 0000.0001)                -1.350000000000000E+02,      /* K =  5 */
(PID.TID 0000.0001)                -1.650000000000000E+02,      /* K =  6 */
(PID.TID 0000.0001)                -1.950000000000000E+02,      /* K =  7 */
(PID.TID 0000.0001)                -2.250000000000000E+02,      /* K =  8 */
(PID.TID 0000.0001)                -2.550000000000000E+02,      /* K =  9 */
(PID.TID 0000.0001)                -2.850000000000000E+02,      /* K = 10 */
(PID.TID 0000.0001)                -3.150000000000000E+02,      /* K = 11 */
(PID.TID 0000.0001)                -3.450000000000000E+02,      /* K = 12 */
(PID.TID 0000.0001)                -3.750000000000000E+02,      /* K = 13 */
(PID.TID 0000.0001)                -4.050000000000000E+02,      /* K = 14 */
(PID.TID 0000.0001)                -4.350000000000000E+02,      /* K = 15 */
(PID.TID 0000.0001)                -4.650000000000000E+02,      /* K = 16 */
(PID.TID 0000.0001)                -4.950000000000000E+02,      /* K = 17 */
(PID.TID 0000.0001)                -5.250000000000000E+02,      /* K = 18 */
(PID.TID 0000.0001)                -5.550000000000000E+02,      /* K = 19 */
(PID.TID 0000.0001)                -5.850000000000000E+02,      /* K = 20 */
(PID.TID 0000.0001)                -6.150000000000000E+02,      /* K = 21 */
(PID.TID 0000.0001)                -6.450000000000000E+02,      /* K = 22 */
(PID.TID 0000.0001)                -6.750000000000000E+02,      /* K = 23 */
(PID.TID 0000.0001)                -7.050000000000000E+02,      /* K = 24 */
(PID.TID 0000.0001)                -7.350000000000000E+02,      /* K = 25 */
(PID.TID 0000.0001)                -7.650000000000000E+02,      /* K = 26 */
(PID.TID 0000.0001)                -7.950000000000000E+02,      /* K = 27 */
(PID.TID 0000.0001)                -8.250000000000000E+02,      /* K = 28 */
(PID.TID 0000.0001)                -8.550000000000000E+02,      /* K = 29 */
(PID.TID 0000.0001)                -8.850000000000000E+02       /* K = 30 */
(PID.TID 0000.0001)     ;
(PID.TID 0000.0001) rF =   /* W-Interf. R coordinate (  units of r ) */
(PID.TID 0000.0001)                 0.000000000000000E+00,      /* K =  1 */
(PID.TID 0000.0001)                -3.000000000000000E+01,      /* K =  2 */
(PID.TID 0000.0001)                -6.000000000000000E+01,      /* K =  3 */
(PID.TID 0000.0001)                -9.000000000000000E+01,      /* K =  4 */
(PID.TID 0000.0001)                -1.200000000000000E+02,      /* K =  5 */
(PID.TID 0000.0001)                -1.500000000000000E+02,      /* K =  6 */
(PID.TID 0000.0001)                -1.800000000000000E+02,      /* K =  7 */
(PID.TID 0000.0001)                -2.100000000000000E+02,      /* K =  8 */
(PID.TID 0000.0001)                -2.400000000000000E+02,      /* K =  9 */
(PID.TID 0000.0001)                -2.700000000000000E+02,      /* K = 10 */
(PID.TID 0000.0001)                -3.000000000000000E+02,      /* K = 11 */
(PID.TID 0000.0001)                -3.300000000000000E+02,      /* K = 12 */
(PID.TID 0000.0001)                -3.600000000000000E+02,      /* K = 13 */
(PID.TID 0000.0001)                -3.900000000000000E+02,      /* K = 14 */
(PID.TID 0000.0001)                -4.200000000000000E+02,      /* K = 15 */
(PID.TID 0000.0001)                -4.500000000000000E+02,      /* K = 16 */
(PID.TID 0000.0001)                -4.800000000000000E+02,      /* K = 17 */
(PID.TID 0000.0001)                -5.100000000000000E+02,      /* K = 18 */
(PID.TID 0000.0001)                -5.400000000000000E+02,      /* K = 19 */
(PID.TID 0000.0001)                -5.700000000000000E+02,      /* K = 20 */
(PID.TID 0000.0001)                -6.000000000000000E+02,      /* K = 21 */
(PID.TID 0000.0001)                -6.300000000000000E+02,      /* K = 22 */
(PID.TID 0000.0001)                -6.600000000000000E+02,      /* K = 23 */
(PID.TID 0000.0001)                -6.900000000000000E+02,      /* K = 24 */
(PID.TID 0000.0001)                -7.200000000000000E+02,      /* K = 25 */
(PID.TID 0000.0001)                -7.500000000000000E+02,      /* K = 26 */
(PID.TID 0000.0001)                -7.800000000000000E+02,      /* K = 27 */
(PID.TID 0000.0001)                -8.100000000000000E+02,      /* K = 28 */
(PID.TID 0000.0001)                -8.400000000000000E+02,      /* K = 29 */
(PID.TID 0000.0001)                -8.700000000000000E+02,      /* K = 30 */
(PID.TID 0000.0001)                -9.000000000000000E+02       /* K = 31 */
(PID.TID 0000.0001)     ;
(PID.TID 0000.0001) deepFacC = /* deep-model grid factor @ cell-Center (-) */
(PID.TID 0000.0001)    30 @  1.000000000000000E+00              /* K =  1: 30 */
(PID.TID 0000.0001)     ;
(PID.TID 0000.0001) deepFacF = /* deep-model grid factor @ W-Interface (-) */
(PID.TID 0000.0001)    31 @  1.000000000000000E+00              /* K =  1: 31 */
(PID.TID 0000.0001)     ;
(PID.TID 0000.0001) rVel2wUnit = /* convert units: rVel -> wSpeed (=1 if z-coord)*/
(PID.TID 0000.0001)    31 @  1.000000000000000E+00              /* K =  1: 31 */
(PID.TID 0000.0001)     ;
(PID.TID 0000.0001) wUnit2rVel = /* convert units: wSpeed -> rVel (=1 if z-coord)*/
(PID.TID 0000.0001)    31 @  1.000000000000000E+00              /* K =  1: 31 */
(PID.TID 0000.0001)     ;
(PID.TID 0000.0001) dBdrRef = /* Vertical grad. of reference buoyancy [(m/s/r)^2] */
(PID.TID 0000.0001)    30 @  0.000000000000000E+00              /* K =  1: 30 */
(PID.TID 0000.0001)     ;
(PID.TID 0000.0001) rotateGrid = /* use rotated grid ( True/False ) */
(PID.TID 0000.0001)                   F
(PID.TID 0000.0001)     ;
(PID.TID 0000.0001) phiEuler = /* Euler angle, rotation about original z-coordinate [rad] */
(PID.TID 0000.0001)                 0.000000000000000E+00
(PID.TID 0000.0001)     ;
(PID.TID 0000.0001) thetaEuler = /* Euler angle, rotation about new x-coordinate [rad] */
(PID.TID 0000.0001)                 0.000000000000000E+00
(PID.TID 0000.0001)     ;
(PID.TID 0000.0001) psiEuler = /* Euler angle, rotation about new z-coordinate [rad] */
(PID.TID 0000.0001)                 0.000000000000000E+00
(PID.TID 0000.0001)     ;
(PID.TID 0000.0001) dxF =  /* dxF(:,1,:,1) ( units: m ) */
(PID.TID 0000.0001)    50 @  5.820391490558872E+03              /* I =  1: 50 */
(PID.TID 0000.0001)     ;
(PID.TID 0000.0001) dxF =  /* dxF(1,:,1,:) ( units: m ) */
(PID.TID 0000.0001)                 5.820391490558872E+03,      /* J =  1 */
(PID.TID 0000.0001)                 5.877701765291692E+03,      /* J =  2 */
(PID.TID 0000.0001)                 5.934994135525598E+03,      /* J =  3 */
(PID.TID 0000.0001)      . . .
(PID.TID 0000.0001)                 7.076813247621209E+03,      /* J = 23 */
(PID.TID 0000.0001)                 7.133689397375063E+03,      /* J = 24 */
(PID.TID 0000.0001)                 7.190543816673855E+03,      /* J = 25 */
(PID.TID 0000.0001)                 7.247376332329164E+03,      /* J = 26 */
(PID.TID 0000.0001)                 7.304186771219292E+03,      /* J = 27 */
(PID.TID 0000.0001)                 7.360974960289787E+03,      /* J = 28 */
(PID.TID 0000.0001)      . . .
(PID.TID 0000.0001)                 8.491800393599013E+03,      /* J = 48 */
(PID.TID 0000.0001)                 8.548081485571185E+03,      /* J = 49 */
(PID.TID 0000.0001)                 8.604336538604706E+03,      /* J = 50 */
(PID.TID 0000.0001)                 8.660565381336924E+03,      /* J = 51 */
(PID.TID 0000.0001)                 8.716767842485036E+03,      /* J = 52 */
(PID.TID 0000.0001)                 8.772943750846600E+03,      /* J = 53 */
(PID.TID 0000.0001)      . . .
(PID.TID 0000.0001)                 9.890622914885218E+03,      /* J = 73 */
(PID.TID 0000.0001)                 9.946201814818334E+03,      /* J = 74 */
(PID.TID 0000.0001)                 1.000175041689580E+04,      /* J = 75 */
(PID.TID 0000.0001)                 1.005726855190695E+04,      /* J = 76 */
(PID.TID 0000.0001)                 1.011275605073392E+04,      /* J = 77 */
(PID.TID 0000.0001)                 1.016821274435215E+04,      /* J = 78 */
(PID.TID 0000.0001)      . . .
(PID.TID 0000.0001)                 1.127061807330668E+04,      /* J = 98 */
(PID.TID 0000.0001)                 1.132538898360582E+04,      /* J = 99 */
(PID.TID 0000.0001)                 1.138012539480601E+04       /* J =100 */
(PID.TID 0000.0001)     ;
(PID.TID 0000.0001) dyF =  /* dyF(:,1,:,1) ( units: m ) */
(PID.TID 0000.0001)    50 @  1.111774733520388E+04              /* I =  1: 50 */
(PID.TID 0000.0001)     ;
(PID.TID 0000.0001) dyF =  /* dyF(1,:,1,:) ( units: m ) */
(PID.TID 0000.0001)   100 @  1.111774733520388E+04              /* J =  1:100 */
(PID.TID 0000.0001)     ;
(PID.TID 0000.0001) dxG =  /* dxG(:,1,:,1) ( units: m ) */
(PID.TID 0000.0001)    50 @  5.791729693558576E+03              /* I =  1: 50 */
(PID.TID 0000.0001)     ;
(PID.TID 0000.0001) dxG =  /* dxG(1,:,1,:) ( units: m ) */
(PID.TID 0000.0001)                 5.791729693558576E+03,      /* J =  1 */
(PID.TID 0000.0001)                 5.849048855077854E+03,      /* J =  2 */
(PID.TID 0000.0001)                 5.906350199379949E+03,      /* J =  3 */
(PID.TID 0000.0001)      . . .
(PID.TID 0000.0001)                 7.048367077963129E+03,      /* J = 23 */
(PID.TID 0000.0001)                 7.105254027978149E+03,      /* J = 24 */
(PID.TID 0000.0001)                 7.162119334157175E+03,      /* J = 25 */
(PID.TID 0000.0001)                 7.218962823278620E+03,      /* J = 26 */
(PID.TID 0000.0001)                 7.275784322187360E+03,      /* J = 27 */
(PID.TID 0000.0001)                 7.332583657795253E+03,      /* J = 28 */
(PID.TID 0000.0001)      . . .
(PID.TID 0000.0001)                 8.463650136583461E+03,      /* J = 48 */
(PID.TID 0000.0001)                 8.519944183739159E+03,      /* J = 49 */
(PID.TID 0000.0001)                 8.576212277667308E+03,      /* J = 50 */
(PID.TID 0000.0001)                 8.632454246965530E+03,      /* J = 51 */
(PID.TID 0000.0001)                 8.688669920311038E+03,      /* J = 52 */
(PID.TID 0000.0001)                 8.744859126461139E+03,      /* J = 53 */
(PID.TID 0000.0001)      . . .
(PID.TID 0000.0001)                 9.862822156126382E+03,      /* J = 73 */
(PID.TID 0000.0001)                 9.918416141504455E+03,      /* J = 74 */
(PID.TID 0000.0001)                 9.973979913666863E+03,      /* J = 75 */
(PID.TID 0000.0001)                 1.002951330335672E+04,      /* J = 76 */
(PID.TID 0000.0001)                 1.008501614140969E+04,      /* J = 77 */
(PID.TID 0000.0001)                 1.014048825875450E+04,      /* J = 78 */
(PID.TID 0000.0001)      . . .
(PID.TID 0000.0001)                 1.124321973312895E+04,      /* J = 98 */
(PID.TID 0000.0001)                 1.129800783041847E+04,      /* J = 99 */
(PID.TID 0000.0001)                 1.135276151201679E+04       /* J =100 */
(PID.TID 0000.0001)     ;
(PID.TID 0000.0001) dyG =  /* dyG(:,1,:,1) ( units: m ) */
(PID.TID 0000.0001)    50 @  1.111774733520388E+04              /* I =  1: 50 */
(PID.TID 0000.0001)     ;
(PID.TID 0000.0001) dyG =  /* dyG(1,:,1,:) ( units: m ) */
(PID.TID 0000.0001)   100 @  1.111774733520388E+04              /* J =  1:100 */
(PID.TID 0000.0001)     ;
(PID.TID 0000.0001) dxC =  /* dxC(:,1,:,1) ( units: m ) */
(PID.TID 0000.0001)    50 @  5.820391490558872E+03              /* I =  1: 50 */
(PID.TID 0000.0001)     ;
(PID.TID 0000.0001) dxC =  /* dxC(1,:,1,:) ( units: m ) */
(PID.TID 0000.0001)                 5.820391490558872E+03,      /* J =  1 */
(PID.TID 0000.0001)                 5.877701765291692E+03,      /* J =  2 */
(PID.TID 0000.0001)                 5.934994135525598E+03,      /* J =  3 */
(PID.TID 0000.0001)      . . .
(PID.TID 0000.0001)                 7.076813247621209E+03,      /* J = 23 */
(PID.TID 0000.0001)                 7.133689397375063E+03,      /* J = 24 */
(PID.TID 0000.0001)                 7.190543816673855E+03,      /* J = 25 */
(PID.TID 0000.0001)                 7.247376332329164E+03,      /* J = 26 */
(PID.TID 0000.0001)                 7.304186771219292E+03,      /* J = 27 */
(PID.TID 0000.0001)                 7.360974960289787E+03,      /* J = 28 */
(PID.TID 0000.0001)      . . .
(PID.TID 0000.0001)                 8.491800393599013E+03,      /* J = 48 */
(PID.TID 0000.0001)                 8.548081485571185E+03,      /* J = 49 */
(PID.TID 0000.0001)                 8.604336538604706E+03,      /* J = 50 */
(PID.TID 0000.0001)                 8.660565381336924E+03,      /* J = 51 */
(PID.TID 0000.0001)                 8.716767842485036E+03,      /* J = 52 */
(PID.TID 0000.0001)                 8.772943750846600E+03,      /* J = 53 */
(PID.TID 0000.0001)      . . .
(PID.TID 0000.0001)                 9.890622914885218E+03,      /* J = 73 */
(PID.TID 0000.0001)                 9.946201814818334E+03,      /* J = 74 */
(PID.TID 0000.0001)                 1.000175041689580E+04,      /* J = 75 */
(PID.TID 0000.0001)                 1.005726855190695E+04,      /* J = 76 */
(PID.TID 0000.0001)                 1.011275605073392E+04,      /* J = 77 */
(PID.TID 0000.0001)                 1.016821274435215E+04,      /* J = 78 */
(PID.TID 0000.0001)      . . .
(PID.TID 0000.0001)                 1.127061807330668E+04,      /* J = 98 */
(PID.TID 0000.0001)                 1.132538898360582E+04,      /* J = 99 */
(PID.TID 0000.0001)                 1.138012539480601E+04       /* J =100 */
(PID.TID 0000.0001)     ;
(PID.TID 0000.0001) dyC =  /* dyC(:,1,:,1) ( units: m ) */
(PID.TID 0000.0001)    50 @  1.111774733520388E+04              /* I =  1: 50 */
(PID.TID 0000.0001)     ;
(PID.TID 0000.0001) dyC =  /* dyC(1,:,1,:) ( units: m ) */
(PID.TID 0000.0001)   100 @  1.111774733520388E+04              /* J =  1:100 */
(PID.TID 0000.0001)     ;
(PID.TID 0000.0001) dxV =  /* dxV(:,1,:,1) ( units: m ) */
(PID.TID 0000.0001)    50 @  5.791729693558576E+03              /* I =  1: 50 */
(PID.TID 0000.0001)     ;
(PID.TID 0000.0001) dxV =  /* dxV(1,:,1,:) ( units: m ) */
(PID.TID 0000.0001)                 5.791729693558576E+03,      /* J =  1 */
(PID.TID 0000.0001)                 5.849048855077854E+03,      /* J =  2 */
(PID.TID 0000.0001)                 5.906350199379949E+03,      /* J =  3 */
(PID.TID 0000.0001)      . . .
(PID.TID 0000.0001)                 7.048367077963129E+03,      /* J = 23 */
(PID.TID 0000.0001)                 7.105254027978149E+03,      /* J = 24 */
(PID.TID 0000.0001)                 7.162119334157175E+03,      /* J = 25 */
(PID.TID 0000.0001)                 7.218962823278620E+03,      /* J = 26 */
(PID.TID 0000.0001)                 7.275784322187360E+03,      /* J = 27 */
(PID.TID 0000.0001)                 7.332583657795253E+03,      /* J = 28 */
(PID.TID 0000.0001)      . . .
(PID.TID 0000.0001)                 8.463650136583461E+03,      /* J = 48 */
(PID.TID 0000.0001)                 8.519944183739159E+03,      /* J = 49 */
(PID.TID 0000.0001)                 8.576212277667308E+03,      /* J = 50 */
(PID.TID 0000.0001)                 8.632454246965530E+03,      /* J = 51 */
(PID.TID 0000.0001)                 8.688669920311038E+03,      /* J = 52 */
(PID.TID 0000.0001)                 8.744859126461139E+03,      /* J = 53 */
(PID.TID 0000.0001)      . . .
(PID.TID 0000.0001)                 9.862822156126382E+03,      /* J = 73 */
(PID.TID 0000.0001)                 9.918416141504455E+03,      /* J = 74 */
(PID.TID 0000.0001)                 9.973979913666863E+03,      /* J = 75 */
(PID.TID 0000.0001)                 1.002951330335672E+04,      /* J = 76 */
(PID.TID 0000.0001)                 1.008501614140969E+04,      /* J = 77 */
(PID.TID 0000.0001)                 1.014048825875450E+04,      /* J = 78 */
(PID.TID 0000.0001)      . . .
(PID.TID 0000.0001)                 1.124321973312895E+04,      /* J = 98 */
(PID.TID 0000.0001)                 1.129800783041847E+04,      /* J = 99 */
(PID.TID 0000.0001)                 1.135276151201679E+04       /* J =100 */
(PID.TID 0000.0001)     ;
(PID.TID 0000.0001) dyU =  /* dyU(:,1,:,1) ( units: m ) */
(PID.TID 0000.0001)    50 @  1.111774733520388E+04              /* I =  1: 50 */
(PID.TID 0000.0001)     ;
(PID.TID 0000.0001) dyU =  /* dyU(1,:,1,:) ( units: m ) */
(PID.TID 0000.0001)   100 @  1.111774733520388E+04              /* J =  1:100 */
(PID.TID 0000.0001)     ;
(PID.TID 0000.0001) rA  =  /* rA (:,1,:,1) ( units: m^2 ) */
(PID.TID 0000.0001)    50 @  6.470963377080289E+07              /* I =  1: 50 */
(PID.TID 0000.0001)     ;
(PID.TID 0000.0001) rA  =  /* rA (1,:,1,:) ( units: m^2 ) */
(PID.TID 0000.0001)                 6.470963377080289E+07,      /* J =  1 */
(PID.TID 0000.0001)                 6.534679484410104E+07,      /* J =  2 */
(PID.TID 0000.0001)                 6.598375685977945E+07,      /* J =  3 */
(PID.TID 0000.0001)      . . .
(PID.TID 0000.0001)                 7.867821163932665E+07,      /* J = 23 */
(PID.TID 0000.0001)                 7.931054622142966E+07,      /* J = 24 */
(PID.TID 0000.0001)                 7.994263920984067E+07,      /* J = 25 */
(PID.TID 0000.0001)                 8.057448867913349E+07,      /* J = 26 */
(PID.TID 0000.0001)                 8.120609270456599E+07,      /* J = 27 */
(PID.TID 0000.0001)                 8.183744936212724E+07,      /* J = 28 */
(PID.TID 0000.0001)      . . .
(PID.TID 0000.0001)                 9.440967921416211E+07,      /* J = 48 */
(PID.TID 0000.0001)                 9.503539809503193E+07,      /* J = 49 */
(PID.TID 0000.0001)                 9.566082748163140E+07,      /* J = 50 */
(PID.TID 0000.0001)                 9.628596546870193E+07,      /* J = 51 */
(PID.TID 0000.0001)                 9.691081015209354E+07,      /* J = 52 */
(PID.TID 0000.0001)                 9.753535962826957E+07,      /* J = 53 */
(PID.TID 0000.0001)      . . .
(PID.TID 0000.0001)                 1.099614325987181E+08,      /* J = 73 */
(PID.TID 0000.0001)                 1.105793446869293E+08,      /* J = 74 */
(PID.TID 0000.0001)                 1.111969199312560E+08,      /* J = 75 */
(PID.TID 0000.0001)                 1.118141564504991E+08,      /* J = 76 */
(PID.TID 0000.0001)                 1.124310523644033E+08,      /* J = 77 */
(PID.TID 0000.0001)                 1.130476057938687E+08,      /* J = 78 */
(PID.TID 0000.0001)      . . .
(PID.TID 0000.0001)                 1.253038681465364E+08,      /* J = 98 */
(PID.TID 0000.0001)                 1.259127972112936E+08,      /* J = 99 */
(PID.TID 0000.0001)                 1.265213427237870E+08       /* J =100 */
(PID.TID 0000.0001)     ;
(PID.TID 0000.0001) rAw =  /* rAw(:,1,:,1) ( units: m^2 ) */
(PID.TID 0000.0001)    50 @  6.470963377080289E+07              /* I =  1: 50 */
(PID.TID 0000.0001)     ;
(PID.TID 0000.0001) rAw =  /* rAw(1,:,1,:) ( units: m^2 ) */
(PID.TID 0000.0001)                 6.470963377080289E+07,      /* J =  1 */
(PID.TID 0000.0001)                 6.534679484410104E+07,      /* J =  2 */
(PID.TID 0000.0001)                 6.598375685977945E+07,      /* J =  3 */
(PID.TID 0000.0001)      . . .
(PID.TID 0000.0001)                 7.867821163932665E+07,      /* J = 23 */
(PID.TID 0000.0001)                 7.931054622142966E+07,      /* J = 24 */
(PID.TID 0000.0001)                 7.994263920984067E+07,      /* J = 25 */
(PID.TID 0000.0001)                 8.057448867913349E+07,      /* J = 26 */
(PID.TID 0000.0001)                 8.120609270456599E+07,      /* J = 27 */
(PID.TID 0000.0001)                 8.183744936212724E+07,      /* J = 28 */
(PID.TID 0000.0001)      . . .
(PID.TID 0000.0001)                 9.440967921416211E+07,      /* J = 48 */
(PID.TID 0000.0001)                 9.503539809503193E+07,      /* J = 49 */
(PID.TID 0000.0001)                 9.566082748163140E+07,      /* J = 50 */
(PID.TID 0000.0001)                 9.628596546870193E+07,      /* J = 51 */
(PID.TID 0000.0001)                 9.691081015209354E+07,      /* J = 52 */
(PID.TID 0000.0001)                 9.753535962826957E+07,      /* J = 53 */
(PID.TID 0000.0001)      . . .
(PID.TID 0000.0001)                 1.099614325987181E+08,      /* J = 73 */
(PID.TID 0000.0001)                 1.105793446869293E+08,      /* J = 74 */
(PID.TID 0000.0001)                 1.111969199312560E+08,      /* J = 75 */
(PID.TID 0000.0001)                 1.118141564504991E+08,      /* J = 76 */
(PID.TID 0000.0001)                 1.124310523644033E+08,      /* J = 77 */
(PID.TID 0000.0001)                 1.130476057938687E+08,      /* J = 78 */
(PID.TID 0000.0001)      . . .
(PID.TID 0000.0001)                 1.253038681465364E+08,      /* J = 98 */
(PID.TID 0000.0001)                 1.259127972112936E+08,      /* J = 99 */
(PID.TID 0000.0001)                 1.265213427237870E+08       /* J =100 */
(PID.TID 0000.0001)     ;
(PID.TID 0000.0001) rAs =  /* rAs(:,1,:,1) ( units: m^2 ) */
(PID.TID 0000.0001)    50 @  6.439097919401864E+07              /* I =  1: 50 */
(PID.TID 0000.0001)     ;
(PID.TID 0000.0001) rAs =  /* rAs(1,:,1,:) ( units: m^2 ) */
(PID.TID 0000.0001)                 6.439097919401864E+07,      /* J =  1 */
(PID.TID 0000.0001)                 6.502823906837179E+07,      /* J =  2 */
(PID.TID 0000.0001)                 6.566530085543716E+07,      /* J =  3 */
(PID.TID 0000.0001)      . . .
(PID.TID 0000.0001)                 7.836195435256335E+07,      /* J = 23 */
(PID.TID 0000.0001)                 7.899440900921808E+07,      /* J = 24 */
(PID.TID 0000.0001)                 7.962662303520055E+07,      /* J = 25 */
(PID.TID 0000.0001)                 8.025859450470714E+07,      /* J = 26 */
(PID.TID 0000.0001)                 8.089032149259475E+07,      /* J = 27 */
(PID.TID 0000.0001)                 8.152180207452223E+07,      /* J = 28 */
(PID.TID 0000.0001)      . . .
(PID.TID 0000.0001)                 9.409671180895932E+07,      /* J = 48 */
(PID.TID 0000.0001)                 9.472257472228888E+07,      /* J = 49 */
(PID.TID 0000.0001)                 9.534814909420149E+07,      /* J = 50 */
(PID.TID 0000.0001)                 9.597343301913190E+07,      /* J = 51 */
(PID.TID 0000.0001)                 9.659842459236403E+07,      /* J = 52 */
(PID.TID 0000.0001)                 9.722312190998378E+07,      /* J = 53 */
(PID.TID 0000.0001)      . . .
(PID.TID 0000.0001)                 1.096523508263446E+08,      /* J = 73 */
(PID.TID 0000.0001)                 1.102704306306916E+08,      /* J = 74 */
(PID.TID 0000.0001)                 1.108881745321664E+08,      /* J = 75 */
(PID.TID 0000.0001)                 1.115055806490511E+08,      /* J = 76 */
(PID.TID 0000.0001)                 1.121226471005947E+08,      /* J = 77 */
(PID.TID 0000.0001)                 1.127393720071080E+08,      /* J = 78 */
(PID.TID 0000.0001)      . . .
(PID.TID 0000.0001)                 1.249992603617116E+08,      /* J = 98 */
(PID.TID 0000.0001)                 1.256083805070198E+08,      /* J = 99 */
(PID.TID 0000.0001)                 1.262171180274426E+08       /* J =100 */
(PID.TID 0000.0001)     ;
(PID.TID 0000.0001) globalArea = /* Integrated horizontal Area (m^2) */
(PID.TID 0000.0001)                 4.665024516720103E+11
(PID.TID 0000.0001)     ;
(PID.TID 0000.0001) // =======================================================
(PID.TID 0000.0001) // End of Model config. summary
(PID.TID 0000.0001) // =======================================================
(PID.TID 0000.0001) 
(PID.TID 0000.0001) == Packages configuration : Check & print summary ==
(PID.TID 0000.0001) 
(PID.TID 0000.0001) SHELFICE_CHECK: #define ALLOW_SHELFICE
(PID.TID 0000.0001) GAD_CHECK: #define ALLOW_GENERIC_ADVDIFF
(PID.TID 0000.0001) // =======================================================
(PID.TID 0000.0001) // CONFIG_CHECK : Normal End
(PID.TID 0000.0001) // =======================================================
(PID.TID 0000.0001) 
(PID.TID 0000.0001) Start initial hydrostatic pressure computation
(PID.TID 0000.0001) Pressure is predetermined for buoyancyRelation OCEANIC
(PID.TID 0000.0001) 
(PID.TID 0000.0001)  MDS_READ_FIELD: opening global file: phi0surf.exp1.jmd95z
(PID.TID 0000.0001) // =======================================================
(PID.TID 0000.0001) // Model current state
(PID.TID 0000.0001) // =======================================================
(PID.TID 0000.0001) 
(PID.TID 0000.0001) // =======================================================
(PID.TID 0000.0001) // Begin MONITOR dynamic field statistics
(PID.TID 0000.0001) // =======================================================
(PID.TID 0000.0001) %MON time_tsnumber                =                     0
(PID.TID 0000.0001) %MON time_secondsf                =   0.0000000000000E+00
(PID.TID 0000.0001) %MON dynstat_eta_max              =   0.0000000000000E+00
(PID.TID 0000.0001) %MON dynstat_eta_min              =   0.0000000000000E+00
(PID.TID 0000.0001) %MON dynstat_eta_mean             =   0.0000000000000E+00
(PID.TID 0000.0001) %MON dynstat_eta_sd               =   0.0000000000000E+00
(PID.TID 0000.0001) %MON dynstat_eta_del2             =   0.0000000000000E+00
(PID.TID 0000.0001) %MON dynstat_uvel_max             =   0.0000000000000E+00
(PID.TID 0000.0001) %MON dynstat_uvel_min             =   0.0000000000000E+00
(PID.TID 0000.0001) %MON dynstat_uvel_mean            =   0.0000000000000E+00
(PID.TID 0000.0001) %MON dynstat_uvel_sd              =   0.0000000000000E+00
(PID.TID 0000.0001) %MON dynstat_uvel_del2            =   0.0000000000000E+00
(PID.TID 0000.0001) %MON dynstat_vvel_max             =   0.0000000000000E+00
(PID.TID 0000.0001) %MON dynstat_vvel_min             =   0.0000000000000E+00
(PID.TID 0000.0001) %MON dynstat_vvel_mean            =   0.0000000000000E+00
(PID.TID 0000.0001) %MON dynstat_vvel_sd              =   0.0000000000000E+00
(PID.TID 0000.0001) %MON dynstat_vvel_del2            =   0.0000000000000E+00
(PID.TID 0000.0001) %MON dynstat_wvel_max             =  -0.0000000000000E+00
(PID.TID 0000.0001) %MON dynstat_wvel_min             =  -0.0000000000000E+00
(PID.TID 0000.0001) %MON dynstat_wvel_mean            =   0.0000000000000E+00
(PID.TID 0000.0001) %MON dynstat_wvel_sd              =   0.0000000000000E+00
(PID.TID 0000.0001) %MON dynstat_wvel_del2            =   0.0000000000000E+00
(PID.TID 0000.0001) %MON dynstat_theta_max            =  -1.9000000000000E+00
(PID.TID 0000.0001) %MON dynstat_theta_min            =  -1.9000000000000E+00
(PID.TID 0000.0001) %MON dynstat_theta_mean           =  -1.9000000000000E+00
(PID.TID 0000.0001) %MON dynstat_theta_sd             =   0.0000000000000E+00
(PID.TID 0000.0001) %MON dynstat_theta_del2           =   0.0000000000000E+00
(PID.TID 0000.0001) %MON dynstat_salt_max             =   3.4400000000000E+01
(PID.TID 0000.0001) %MON dynstat_salt_min             =   3.4400000000000E+01
(PID.TID 0000.0001) %MON dynstat_salt_mean            =   3.4400000000002E+01
(PID.TID 0000.0001) %MON dynstat_salt_sd              =   2.0961010704923E-12
(PID.TID 0000.0001) %MON dynstat_salt_del2            =   0.0000000000000E+00
(PID.TID 0000.0001) %MON advcfl_uvel_max              =   0.0000000000000E+00
(PID.TID 0000.0001) %MON advcfl_vvel_max              =   0.0000000000000E+00
(PID.TID 0000.0001) %MON advcfl_wvel_max              =   0.0000000000000E+00
(PID.TID 0000.0001) %MON advcfl_W_hf_max              =   0.0000000000000E+00
(PID.TID 0000.0001) %MON pe_b_mean                    =   0.0000000000000E+00
(PID.TID 0000.0001) %MON ke_max                       =   0.0000000000000E+00
(PID.TID 0000.0001) %MON ke_mean                      =   0.0000000000000E+00
(PID.TID 0000.0001) %MON ke_vol                       =   2.9241705273104E+14
(PID.TID 0000.0001) %MON vort_r_min                   =   0.0000000000000E+00
(PID.TID 0000.0001) %MON vort_r_max                   =   0.0000000000000E+00
(PID.TID 0000.0001) %MON vort_a_mean                  =  -1.4007437277915E-04
(PID.TID 0000.0001) %MON vort_a_sd                    =   1.7682771465337E-06
(PID.TID 0000.0001) %MON vort_p_mean                  =  -1.5039772194955E-04
(PID.TID 0000.0001) %MON vort_p_sd                    =   8.7081213929711E-05
(PID.TID 0000.0001) %MON surfExpan_theta_mean         =   0.0000000000000E+00
(PID.TID 0000.0001) %MON surfExpan_salt_mean          =   0.0000000000000E+00
(PID.TID 0000.0001) // =======================================================
(PID.TID 0000.0001) // End MONITOR dynamic field statistics
(PID.TID 0000.0001) // =======================================================
(PID.TID 0000.0001) SOLVE_FOR_PRESSURE: putPmEinXvector =    F
(PID.TID 0000.0001) SOLVE_FOR_PRESSURE: zeroPsNH=    F , zeroMeanPnh=    F
(PID.TID 0000.0001) SOLVE_FOR_PRESSURE: oldFreeSurfTerm =    F
 cg2d: Sum(rhs),rhsMax =  -1.83186799063151E-14  3.88700162323895E-14
(PID.TID 0000.0001)                    cg2d_init_res =    2.18953287600515E+01
(PID.TID 0000.0001)                       cg2d_iters =   216
(PID.TID 0000.0001)                         cg2d_res =    9.20750847985007E-14
(PID.TID 0000.0001) // =======================================================
(PID.TID 0000.0001) // Begin MONITOR dynamic field statistics
(PID.TID 0000.0001) // =======================================================
(PID.TID 0000.0001) %MON time_tsnumber                =                     1
(PID.TID 0000.0001) %MON time_secondsf                =   1.8000000000000E+03
(PID.TID 0000.0001) %MON dynstat_eta_max              =   2.9172428893540E-14
(PID.TID 0000.0001) %MON dynstat_eta_min              =  -1.8475101007472E-14
(PID.TID 0000.0001) %MON dynstat_eta_mean             =   2.9748584938996E-30
(PID.TID 0000.0001) %MON dynstat_eta_sd               =   7.3556156094534E-15
(PID.TID 0000.0001) %MON dynstat_eta_del2             =   5.3861920695784E-17
(PID.TID 0000.0001) %MON dynstat_uvel_max             =   1.0788672123772E-15
(PID.TID 0000.0001) %MON dynstat_uvel_min             =  -1.2238471730638E-15
(PID.TID 0000.0001) %MON dynstat_uvel_mean            =   9.9170813469251E-17
(PID.TID 0000.0001) %MON dynstat_uvel_sd              =   3.5676722034974E-16
(PID.TID 0000.0001) %MON dynstat_uvel_del2            =   2.2575769680939E-18
(PID.TID 0000.0001) %MON dynstat_vvel_max             =   9.6860214043329E-17
(PID.TID 0000.0001) %MON dynstat_vvel_min             =  -4.1124222343785E-15
(PID.TID 0000.0001) %MON dynstat_vvel_mean            =  -9.0699308283666E-16
(PID.TID 0000.0001) %MON dynstat_vvel_sd              =   1.1550308930280E-15
(PID.TID 0000.0001) %MON dynstat_vvel_del2            =   3.3025708310499E-19
(PID.TID 0000.0001) %MON dynstat_wvel_max             =   1.6206904940856E-17
(PID.TID 0000.0001) %MON dynstat_wvel_min             =  -1.3159813703832E-17
(PID.TID 0000.0001) %MON dynstat_wvel_mean            =  -7.2632899150968E-19
(PID.TID 0000.0001) %MON dynstat_wvel_sd              =   2.0036033020317E-18
(PID.TID 0000.0001) %MON dynstat_wvel_del2            =   3.9742372651536E-21
(PID.TID 0000.0001) %MON dynstat_theta_max            =  -1.9000000000000E+00
(PID.TID 0000.0001) %MON dynstat_theta_min            =  -1.9006851721692E+00
(PID.TID 0000.0001) %MON dynstat_theta_mean           =  -1.9000114590763E+00
(PID.TID 0000.0001) %MON dynstat_theta_sd             =   5.3541545558264E-05
(PID.TID 0000.0001) %MON dynstat_theta_del2           =   5.7317995272153E-08
(PID.TID 0000.0001) %MON dynstat_salt_max             =   3.4400000000000E+01
(PID.TID 0000.0001) %MON dynstat_salt_min             =   3.4399720387688E+01
(PID.TID 0000.0001) %MON dynstat_salt_mean            =   3.4399995374964E+01
(PID.TID 0000.0001) %MON dynstat_salt_sd              =   2.1724392826835E-05
(PID.TID 0000.0001) %MON dynstat_salt_del2            =   2.3353172088220E-08
(PID.TID 0000.0001) %MON advcfl_uvel_max              =   3.4650666880849E-16
(PID.TID 0000.0001) %MON advcfl_vvel_max              =   6.6581473734719E-16
(PID.TID 0000.0001) %MON advcfl_wvel_max              =   9.7241429645133E-16
(PID.TID 0000.0001) %MON advcfl_W_hf_max              =   1.0607925590322E-14
(PID.TID 0000.0001) %MON pe_b_mean                    =  -5.9508927605322E-18
(PID.TID 0000.0001) %MON ke_max                       =   7.9251101869563E-30
(PID.TID 0000.0001) %MON ke_mean                      =   1.1328472119094E-30
(PID.TID 0000.0001) %MON ke_vol                       =   2.9241705273104E+14
(PID.TID 0000.0001) %MON vort_r_min                   =  -5.7096094687164E-19
(PID.TID 0000.0001) %MON vort_r_max                   =   6.0802152751963E-19
(PID.TID 0000.0001) %MON vort_a_mean                  =  -1.4007437277915E-04
(PID.TID 0000.0001) %MON vort_a_sd                    =   1.7682771465365E-06
(PID.TID 0000.0001) %MON vort_p_mean                  =  -1.5039772194955E-04
(PID.TID 0000.0001) %MON vort_p_sd                    =   8.7081213929711E-05
(PID.TID 0000.0001) %MON surfExpan_theta_mean         =  -4.8326284403734E-22
(PID.TID 0000.0001) %MON surfExpan_salt_mean          =  -1.9870582436315E-22
(PID.TID 0000.0001) // =======================================================
(PID.TID 0000.0001) // End MONITOR dynamic field statistics
(PID.TID 0000.0001) // =======================================================
 cg2d: Sum(rhs),rhsMax =   9.14167073999870E-15  1.64048119372125E-05
(PID.TID 0000.0001)                    cg2d_init_res =    3.44887902429765E+01
(PID.TID 0000.0001)                       cg2d_iters =   212
(PID.TID 0000.0001)                         cg2d_res =    9.80516292308274E-14
(PID.TID 0000.0001) // =======================================================
(PID.TID 0000.0001) // Begin MONITOR dynamic field statistics
(PID.TID 0000.0001) // =======================================================
(PID.TID 0000.0001) %MON time_tsnumber                =                     2
(PID.TID 0000.0001) %MON time_secondsf                =   3.6000000000000E+03
(PID.TID 0000.0001) %MON dynstat_eta_max              =   4.1666036977135E-06
(PID.TID 0000.0001) %MON dynstat_eta_min              =  -3.3131635781558E-06
(PID.TID 0000.0001) %MON dynstat_eta_mean             =   2.3291260310074E-22
(PID.TID 0000.0001) %MON dynstat_eta_sd               =   9.7384831380376E-07
(PID.TID 0000.0001) %MON dynstat_eta_del2             =   4.6977426465441E-08
(PID.TID 0000.0001) %MON dynstat_uvel_max             =   1.5310847105268E-06
(PID.TID 0000.0001) %MON dynstat_uvel_min             =  -1.6962846741727E-06
(PID.TID 0000.0001) %MON dynstat_uvel_mean            =   4.4052742877036E-09
(PID.TID 0000.0001) %MON dynstat_uvel_sd              =   2.0304545274423E-07
(PID.TID 0000.0001) %MON dynstat_uvel_del2            =   1.7914162807603E-09
(PID.TID 0000.0001) %MON dynstat_vvel_max             =   6.0422949041278E-06
(PID.TID 0000.0001) %MON dynstat_vvel_min             =  -1.5778024693253E-06
(PID.TID 0000.0001) %MON dynstat_vvel_mean            =  -4.2395282142074E-08
(PID.TID 0000.0001) %MON dynstat_vvel_sd              =   3.4035360752497E-07
(PID.TID 0000.0001) %MON dynstat_vvel_del2            =   7.1350721257445E-10
(PID.TID 0000.0001) %MON dynstat_wvel_max             =   1.4537538559141E-08
(PID.TID 0000.0001) %MON dynstat_wvel_min             =  -1.3990637667077E-08
(PID.TID 0000.0001) %MON dynstat_wvel_mean            =  -2.9399032679831E-11
(PID.TID 0000.0001) %MON dynstat_wvel_sd              =   9.2876112935687E-10
(PID.TID 0000.0001) %MON dynstat_wvel_del2            =   9.8431726686170E-12
(PID.TID 0000.0001) %MON dynstat_theta_max            =  -1.9000000000000E+00
(PID.TID 0000.0001) %MON dynstat_theta_min            =  -1.9013688224855E+00
(PID.TID 0000.0001) %MON dynstat_theta_mean           =  -1.9000228986931E+00
(PID.TID 0000.0001) %MON dynstat_theta_sd             =   1.0695883254265E-04
(PID.TID 0000.0001) %MON dynstat_theta_del2           =   1.1425489207682E-07
(PID.TID 0000.0001) %MON dynstat_salt_max             =   3.4400000000000E+01
(PID.TID 0000.0001) %MON dynstat_salt_min             =   3.4399441399459E+01
(PID.TID 0000.0001) %MON dynstat_salt_mean            =   3.4399990757902E+01
(PID.TID 0000.0001) %MON dynstat_salt_sd              =   4.3397842638797E-05
(PID.TID 0000.0001) %MON dynstat_salt_del2            =   4.6550670649984E-08
(PID.TID 0000.0001) %MON advcfl_uvel_max              =   5.1445921323401E-07
(PID.TID 0000.0001) %MON advcfl_vvel_max              =   9.7826749426039E-07
(PID.TID 0000.0001) %MON advcfl_wvel_max              =   8.7225231354844E-07
(PID.TID 0000.0001) %MON advcfl_W_hf_max              =   3.5111554699362E-06
(PID.TID 0000.0001) %MON pe_b_mean                    =  -3.2224870227320E-10
(PID.TID 0000.0001) %MON ke_max                       =   9.7603983225839E-12
(PID.TID 0000.0001) %MON ke_mean                      =   7.8329952325127E-14
(PID.TID 0000.0001) %MON ke_vol                       =   2.9241705273104E+14
(PID.TID 0000.0001) %MON vort_r_min                   =  -1.0230168322349E-09
(PID.TID 0000.0001) %MON vort_r_max                   =   9.9731119307481E-10
(PID.TID 0000.0001) %MON vort_a_mean                  =  -1.4007437277914E-04
(PID.TID 0000.0001) %MON vort_a_sd                    =   1.7682771546536E-06
(PID.TID 0000.0001) %MON vort_p_mean                  =  -1.5039772194953E-04
(PID.TID 0000.0001) %MON vort_p_sd                    =   8.7081213125539E-05
(PID.TID 0000.0001) %MON surfExpan_theta_mean         =  -4.3395185665276E-14
(PID.TID 0000.0001) %MON surfExpan_salt_mean          =  -1.7854244779208E-14
(PID.TID 0000.0001) // =======================================================
(PID.TID 0000.0001) // End MONITOR dynamic field statistics
(PID.TID 0000.0001) // =======================================================
 cg2d: Sum(rhs),rhsMax =   7.77156117237610E-16  2.66884129644366E-05
(PID.TID 0000.0001)                    cg2d_init_res =    1.33173104912989E+01
(PID.TID 0000.0001)                       cg2d_iters =   208
(PID.TID 0000.0001)                         cg2d_res =    8.42773931256037E-14
(PID.TID 0000.0001) // =======================================================
(PID.TID 0000.0001) // Begin MONITOR dynamic field statistics
(PID.TID 0000.0001) // =======================================================
(PID.TID 0000.0001) %MON time_tsnumber                =                     3
(PID.TID 0000.0001) %MON time_secondsf                =   5.4000000000000E+03
(PID.TID 0000.0001) %MON dynstat_eta_max              =   8.0409534353427E-06
(PID.TID 0000.0001) %MON dynstat_eta_min              =  -4.6518484356132E-06
(PID.TID 0000.0001) %MON dynstat_eta_mean             =   2.9945906112953E-22
(PID.TID 0000.0001) %MON dynstat_eta_sd               =   1.7884290906574E-06
(PID.TID 0000.0001) %MON dynstat_eta_del2             =   7.6546746131064E-08
(PID.TID 0000.0001) %MON dynstat_uvel_max             =   3.1243173983381E-06
(PID.TID 0000.0001) %MON dynstat_uvel_min             =  -5.2448349848553E-06
(PID.TID 0000.0001) %MON dynstat_uvel_mean            =   8.7278524292384E-09
(PID.TID 0000.0001) %MON dynstat_uvel_sd              =   4.6625233543233E-07
(PID.TID 0000.0001) %MON dynstat_uvel_del2            =   3.4044291318343E-09
(PID.TID 0000.0001) %MON dynstat_vvel_max             =   1.4787386141297E-05
(PID.TID 0000.0001) %MON dynstat_vvel_min             =  -3.3249916534014E-06
(PID.TID 0000.0001) %MON dynstat_vvel_mean            =  -1.0024848662833E-07
(PID.TID 0000.0001) %MON dynstat_vvel_sd              =   8.4790822833711E-07
(PID.TID 0000.0001) %MON dynstat_vvel_del2            =   1.7173386061196E-09
(PID.TID 0000.0001) %MON dynstat_wvel_max             =   3.6940072477051E-08
(PID.TID 0000.0001) %MON dynstat_wvel_min             =  -3.6752799746980E-08
(PID.TID 0000.0001) %MON dynstat_wvel_mean            =  -6.5732784191180E-11
(PID.TID 0000.0001) %MON dynstat_wvel_sd              =   2.2592642873326E-09
(PID.TID 0000.0001) %MON dynstat_wvel_del2            =   2.3683981114670E-11
(PID.TID 0000.0001) %MON dynstat_theta_max            =  -1.9000000000000E+00
(PID.TID 0000.0001) %MON dynstat_theta_min            =  -1.9020515256946E+00
(PID.TID 0000.0001) %MON dynstat_theta_mean           =  -1.9000343261923E+00
(PID.TID 0000.0001) %MON dynstat_theta_sd             =   1.6029883338012E-04
(PID.TID 0000.0001) %MON dynstat_theta_del2           =   1.7095641409365E-07
(PID.TID 0000.0001) %MON dynstat_salt_max             =   3.4400000000000E+01
(PID.TID 0000.0001) %MON dynstat_salt_min             =   3.4399162799613E+01
(PID.TID 0000.0001) %MON dynstat_salt_mean            =   3.4399986145807E+01
(PID.TID 0000.0001) %MON dynstat_salt_sd              =   6.5039607406402E-05
(PID.TID 0000.0001) %MON dynstat_salt_del2            =   6.9652023651415E-08
(PID.TID 0000.0001) %MON advcfl_uvel_max              =   1.5906844652515E-06
(PID.TID 0000.0001) %MON advcfl_vvel_max              =   2.3941266384110E-06
(PID.TID 0000.0001) %MON advcfl_wvel_max              =   2.2164043486231E-06
(PID.TID 0000.0001) %MON advcfl_W_hf_max              =   4.5660089538511E-06
(PID.TID 0000.0001) %MON pe_b_mean                    =  -9.6549350123741E-10
(PID.TID 0000.0001) %MON ke_max                       =   6.3396911072093E-11
(PID.TID 0000.0001) %MON ke_mean                      =   4.6672812932134E-13
(PID.TID 0000.0001) %MON ke_vol                       =   2.9241705273104E+14
(PID.TID 0000.0001) %MON vort_r_min                   =  -2.5036422695903E-09
(PID.TID 0000.0001) %MON vort_r_max                   =   2.4301065719077E-09
(PID.TID 0000.0001) %MON vort_a_mean                  =  -1.4007437277885E-04
(PID.TID 0000.0001) %MON vort_a_sd                    =   1.7682771482589E-06
(PID.TID 0000.0001) %MON vort_p_mean                  =  -1.5039772194922E-04
(PID.TID 0000.0001) %MON vort_p_sd                    =   8.7081190478612E-05
(PID.TID 0000.0001) %MON surfExpan_theta_mean         =  -1.3459445651130E-13
(PID.TID 0000.0001) %MON surfExpan_salt_mean          =  -5.5370521761859E-14
(PID.TID 0000.0001) // =======================================================
(PID.TID 0000.0001) // End MONITOR dynamic field statistics
(PID.TID 0000.0001) // =======================================================
 cg2d: Sum(rhs),rhsMax =   3.55271367880050E-14  3.69747538977955E-05
(PID.TID 0000.0001)                    cg2d_init_res =    9.54027812327809E+00
(PID.TID 0000.0001)                       cg2d_iters =   210
(PID.TID 0000.0001)                         cg2d_res =    8.30594611818497E-14
(PID.TID 0000.0001) // =======================================================
(PID.TID 0000.0001) // Begin MONITOR dynamic field statistics
(PID.TID 0000.0001) // =======================================================
(PID.TID 0000.0001) %MON time_tsnumber                =                     4
(PID.TID 0000.0001) %MON time_secondsf                =   7.2000000000000E+03
(PID.TID 0000.0001) %MON dynstat_eta_max              =   1.2434868700765E-05
(PID.TID 0000.0001) %MON dynstat_eta_min              =  -5.3424221747337E-06
(PID.TID 0000.0001) %MON dynstat_eta_mean             =  -1.1312897864893E-21
(PID.TID 0000.0001) %MON dynstat_eta_sd               =   2.7751148253587E-06
(PID.TID 0000.0001) %MON dynstat_eta_del2             =   1.0584208242240E-07
(PID.TID 0000.0001) %MON dynstat_uvel_max             =   5.0770828966903E-06
(PID.TID 0000.0001) %MON dynstat_uvel_min             =  -1.1162708499072E-05
(PID.TID 0000.0001) %MON dynstat_uvel_mean            =   1.1299912629747E-08
(PID.TID 0000.0001) %MON dynstat_uvel_sd              =   8.8014957884513E-07
(PID.TID 0000.0001) %MON dynstat_uvel_del2            =   5.2305897788121E-09
(PID.TID 0000.0001) %MON dynstat_vvel_max             =   2.5613484648042E-05
(PID.TID 0000.0001) %MON dynstat_vvel_min             =  -5.3052820430902E-06
(PID.TID 0000.0001) %MON dynstat_vvel_mean            =  -1.6425811240454E-07
(PID.TID 0000.0001) %MON dynstat_vvel_sd              =   1.4833414682041E-06
(PID.TID 0000.0001) %MON dynstat_vvel_del2            =   2.9628178592778E-09
(PID.TID 0000.0001) %MON dynstat_wvel_max             =   6.8385790971184E-08
(PID.TID 0000.0001) %MON dynstat_wvel_min             =  -7.2317539898110E-08
(PID.TID 0000.0001) %MON dynstat_wvel_mean            =  -9.6418193303708E-11
(PID.TID 0000.0001) %MON dynstat_wvel_sd              =   4.0253157931708E-09
(PID.TID 0000.0001) %MON dynstat_wvel_del2            =   4.1237630878215E-11
(PID.TID 0000.0001) %MON dynstat_theta_max            =  -1.9000000000000E+00
(PID.TID 0000.0001) %MON dynstat_theta_min            =  -1.9027332828835E+00
(PID.TID 0000.0001) %MON dynstat_theta_mean           =  -1.9000457415863E+00
(PID.TID 0000.0001) %MON dynstat_theta_sd             =   2.1356165620160E-04
(PID.TID 0000.0001) %MON dynstat_theta_del2           =   2.2742339799670E-07
(PID.TID 0000.0001) %MON dynstat_salt_max             =   3.4400000000000E+01
(PID.TID 0000.0001) %MON dynstat_salt_min             =   3.4398884587702E+01
(PID.TID 0000.0001) %MON dynstat_salt_mean            =   3.4399981538674E+01
(PID.TID 0000.0001) %MON dynstat_salt_sd              =   8.6649731619154E-05
(PID.TID 0000.0001) %MON dynstat_salt_del2            =   9.2657573623434E-08
(PID.TID 0000.0001) %MON advcfl_uvel_max              =   3.3854920223186E-06
(PID.TID 0000.0001) %MON advcfl_vvel_max              =   4.1469077301738E-06
(PID.TID 0000.0001) %MON advcfl_wvel_max              =   4.3390523938866E-06
(PID.TID 0000.0001) %MON advcfl_W_hf_max              =   6.8190331020765E-06
(PID.TID 0000.0001) %MON pe_b_mean                    =  -1.8901195349692E-09
(PID.TID 0000.0001) %MON ke_max                       =   2.1410413518630E-10
(PID.TID 0000.0001) %MON ke_mean                      =   1.4800371826564E-12
(PID.TID 0000.0001) %MON ke_vol                       =   2.9241705273104E+14
(PID.TID 0000.0001) %MON vort_r_min                   =  -4.3366016294963E-09
(PID.TID 0000.0001) %MON vort_r_max                   =   4.2047503568940E-09
(PID.TID 0000.0001) %MON vort_a_mean                  =  -1.4007437277744E-04
(PID.TID 0000.0001) %MON vort_a_sd                    =   1.7682771237084E-06
(PID.TID 0000.0001) %MON vort_p_mean                  =  -1.5039772194771E-04
(PID.TID 0000.0001) %MON vort_p_sd                    =   8.7081143232052E-05
(PID.TID 0000.0001) %MON surfExpan_theta_mean         =  -2.6025032887255E-13
(PID.TID 0000.0001) %MON surfExpan_salt_mean          =  -1.0706388505019E-13
(PID.TID 0000.0001) // =======================================================
(PID.TID 0000.0001) // End MONITOR dynamic field statistics
(PID.TID 0000.0001) // =======================================================
 cg2d: Sum(rhs),rhsMax =   1.22124532708767E-14  4.73887469536543E-05
(PID.TID 0000.0001)                    cg2d_init_res =    7.44547943509829E+00
(PID.TID 0000.0001)                       cg2d_iters =   209
(PID.TID 0000.0001)                         cg2d_res =    8.89704389528914E-14
(PID.TID 0000.0001) // =======================================================
(PID.TID 0000.0001) // Begin MONITOR dynamic field statistics
(PID.TID 0000.0001) // =======================================================
(PID.TID 0000.0001) %MON time_tsnumber                =                     5
(PID.TID 0000.0001) %MON time_secondsf                =   9.0000000000000E+03
(PID.TID 0000.0001) %MON dynstat_eta_max              =   1.7124145385184E-05
(PID.TID 0000.0001) %MON dynstat_eta_min              =  -6.7885767722725E-06
(PID.TID 0000.0001) %MON dynstat_eta_mean             =  -1.3309291605757E-21
(PID.TID 0000.0001) %MON dynstat_eta_sd               =   3.9118512438977E-06
(PID.TID 0000.0001) %MON dynstat_eta_del2             =   1.3515215833989E-07
(PID.TID 0000.0001) %MON dynstat_uvel_max             =   7.3700323388441E-06
(PID.TID 0000.0001) %MON dynstat_uvel_min             =  -1.9695971529598E-05
(PID.TID 0000.0001) %MON dynstat_uvel_mean            =   1.1284842106896E-08
(PID.TID 0000.0001) %MON dynstat_uvel_sd              =   1.4757146099322E-06
(PID.TID 0000.0001) %MON dynstat_uvel_del2            =   7.2240354784237E-09
(PID.TID 0000.0001) %MON dynstat_vvel_max             =   3.7730321650040E-05
(PID.TID 0000.0001) %MON dynstat_vvel_min             =  -7.3564809975068E-06
(PID.TID 0000.0001) %MON dynstat_vvel_mean            =  -2.2489335015366E-07
(PID.TID 0000.0001) %MON dynstat_vvel_sd              =   2.1996132375816E-06
(PID.TID 0000.0001) %MON dynstat_vvel_del2            =   4.3523426330128E-09
(PID.TID 0000.0001) %MON dynstat_wvel_max             =   1.1590420666358E-07
(PID.TID 0000.0001) %MON dynstat_wvel_min             =  -1.2059559176119E-07
(PID.TID 0000.0001) %MON dynstat_wvel_mean            =  -1.1922078793099E-10
(PID.TID 0000.0001) %MON dynstat_wvel_sd              =   6.1357210910700E-09
(PID.TID 0000.0001) %MON dynstat_wvel_del2            =   6.0991436022248E-11
(PID.TID 0000.0001) %MON dynstat_theta_max            =  -1.9000000000000E+00
(PID.TID 0000.0001) %MON dynstat_theta_min            =  -1.9034140957272E+00
(PID.TID 0000.0001) %MON dynstat_theta_mean           =  -1.9000571448934E+00
(PID.TID 0000.0001) %MON dynstat_theta_sd             =   2.6674745649695E-04
(PID.TID 0000.0001) %MON dynstat_theta_del2           =   2.8365702774010E-07
(PID.TID 0000.0001) %MON dynstat_salt_max             =   3.4400000000000E+01
(PID.TID 0000.0001) %MON dynstat_salt_min             =   3.4398606763033E+01
(PID.TID 0000.0001) %MON dynstat_salt_mean            =   3.4399976936495E+01
(PID.TID 0000.0001) %MON dynstat_salt_sd              =   1.0822827921794E-04
(PID.TID 0000.0001) %MON dynstat_salt_del2            =   1.1556780507455E-07
(PID.TID 0000.0001) %MON advcfl_uvel_max              =   5.9735103259941E-06
(PID.TID 0000.0001) %MON advcfl_vvel_max              =   6.1086636458290E-06
(PID.TID 0000.0001) %MON advcfl_wvel_max              =   7.2357355056713E-06
(PID.TID 0000.0001) %MON advcfl_W_hf_max              =   9.4650681845683E-06
(PID.TID 0000.0001) %MON pe_b_mean                    =  -3.0422707562578E-09
(PID.TID 0000.0001) %MON ke_max                       =   5.2724774745448E-10
(PID.TID 0000.0001) %MON ke_mean                      =   3.4824047707949E-12
(PID.TID 0000.0001) %MON ke_vol                       =   2.9241705273104E+14
(PID.TID 0000.0001) %MON vort_r_min                   =  -6.3880950443614E-09
(PID.TID 0000.0001) %MON vort_r_max                   =   6.1891538049262E-09
(PID.TID 0000.0001) %MON vort_a_mean                  =  -1.4007437277350E-04
(PID.TID 0000.0001) %MON vort_a_sd                    =   1.7682770843889E-06
(PID.TID 0000.0001) %MON vort_p_mean                  =  -1.5039772194347E-04
(PID.TID 0000.0001) %MON vort_p_sd                    =   8.7081067579071E-05
(PID.TID 0000.0001) %MON surfExpan_theta_mean         =  -3.9965305840550E-13
(PID.TID 0000.0001) %MON surfExpan_salt_mean          =  -1.6442490885478E-13
(PID.TID 0000.0001) // =======================================================
(PID.TID 0000.0001) // End MONITOR dynamic field statistics
(PID.TID 0000.0001) // =======================================================
 cg2d: Sum(rhs),rhsMax =   8.88178419700125E-15  5.79165869584012E-05
(PID.TID 0000.0001)                    cg2d_init_res =    6.08565198374435E+00
(PID.TID 0000.0001)                       cg2d_iters =   209
(PID.TID 0000.0001)                         cg2d_res =    7.54782445423381E-14
(PID.TID 0000.0001) // =======================================================
(PID.TID 0000.0001) // Begin MONITOR dynamic field statistics
(PID.TID 0000.0001) // =======================================================
(PID.TID 0000.0001) %MON time_tsnumber                =                     6
(PID.TID 0000.0001) %MON time_secondsf                =   1.0800000000000E+04
(PID.TID 0000.0001) %MON dynstat_eta_max              =   2.1847103019548E-05
(PID.TID 0000.0001) %MON dynstat_eta_min              =  -7.9150153141604E-06
(PID.TID 0000.0001) %MON dynstat_eta_mean             =   2.6618583211513E-22
(PID.TID 0000.0001) %MON dynstat_eta_sd               =   5.1512991039997E-06
(PID.TID 0000.0001) %MON dynstat_eta_del2             =   1.6443067072714E-07
(PID.TID 0000.0001) %MON dynstat_uvel_max             =   9.9387544528967E-06
(PID.TID 0000.0001) %MON dynstat_uvel_min             =  -3.0896253129387E-05
(PID.TID 0000.0001) %MON dynstat_uvel_mean            =   8.7919077143891E-09
(PID.TID 0000.0001) %MON dynstat_uvel_sd              =   2.2655895319381E-06
(PID.TID 0000.0001) %MON dynstat_uvel_del2            =   9.3533222153147E-09
(PID.TID 0000.0001) %MON dynstat_vvel_max             =   5.0304662808153E-05
(PID.TID 0000.0001) %MON dynstat_vvel_min             =  -9.3374566225653E-06
(PID.TID 0000.0001) %MON dynstat_vvel_mean            =  -2.7368556053591E-07
(PID.TID 0000.0001) %MON dynstat_vvel_sd              =   2.9466852203180E-06
(PID.TID 0000.0001) %MON dynstat_vvel_del2            =   5.7883316652709E-09
(PID.TID 0000.0001) %MON dynstat_wvel_max             =   1.7722203548167E-07
(PID.TID 0000.0001) %MON dynstat_wvel_min             =  -1.8095291520310E-07
(PID.TID 0000.0001) %MON dynstat_wvel_mean            =  -1.3307134880338E-10
(PID.TID 0000.0001) %MON dynstat_wvel_sd              =   8.5184915789975E-09
(PID.TID 0000.0001) %MON dynstat_wvel_del2            =   8.1639110931035E-11
(PID.TID 0000.0001) %MON dynstat_theta_max            =  -1.9000000000000E+00
(PID.TID 0000.0001) %MON dynstat_theta_min            =  -1.9040939660530E+00
(PID.TID 0000.0001) %MON dynstat_theta_mean           =  -1.9000685361318E+00
(PID.TID 0000.0001) %MON dynstat_theta_sd             =   3.1985638986631E-04
(PID.TID 0000.0001) %MON dynstat_theta_del2           =   3.3965848267904E-07
(PID.TID 0000.0001) %MON dynstat_salt_max             =   3.4400000000000E+01
(PID.TID 0000.0001) %MON dynstat_salt_min             =   3.4398329324855E+01
(PID.TID 0000.0001) %MON dynstat_salt_mean            =   3.4399972339262E+01
(PID.TID 0000.0001) %MON dynstat_salt_sd              =   1.2977531418810E-04
(PID.TID 0000.0001) %MON dynstat_salt_del2            =   1.3838320062244E-07
(PID.TID 0000.0001) %MON advcfl_uvel_max              =   9.3703977397396E-06
(PID.TID 0000.0001) %MON advcfl_vvel_max              =   8.1444909948581E-06
(PID.TID 0000.0001) %MON advcfl_wvel_max              =   1.0857174912186E-05
(PID.TID 0000.0001) %MON advcfl_W_hf_max              =   1.3898458291630E-05
(PID.TID 0000.0001) %MON pe_b_mean                    =  -4.3533656937413E-09
(PID.TID 0000.0001) %MON ke_max                       =   1.0742989469333E-09
(PID.TID 0000.0001) %MON ke_mean                      =   6.8415531799553E-12
(PID.TID 0000.0001) %MON ke_vol                       =   2.9241705273104E+14
(PID.TID 0000.0001) %MON vort_r_min                   =  -8.5170481760972E-09
(PID.TID 0000.0001) %MON vort_r_max                   =   8.2445030938990E-09
(PID.TID 0000.0001) %MON vort_a_mean                  =  -1.4007437276563E-04
(PID.TID 0000.0001) %MON vort_a_sd                    =   1.7682770369401E-06
(PID.TID 0000.0001) %MON vort_p_mean                  =  -1.5039772193502E-04
(PID.TID 0000.0001) %MON vort_p_sd                    =   8.7080961837211E-05
(PID.TID 0000.0001) %MON surfExpan_theta_mean         =  -5.3269304594608E-13
(PID.TID 0000.0001) %MON surfExpan_salt_mean          =  -2.1918372662479E-13
(PID.TID 0000.0001) // =======================================================
(PID.TID 0000.0001) // End MONITOR dynamic field statistics
(PID.TID 0000.0001) // =======================================================
 cg2d: Sum(rhs),rhsMax =  -3.99680288865056E-15  6.85412114819782E-05
(PID.TID 0000.0001)                    cg2d_init_res =    5.13633544136237E+00
(PID.TID 0000.0001)                       cg2d_iters =   208
(PID.TID 0000.0001)                         cg2d_res =    9.57621864485959E-14
(PID.TID 0000.0001) // =======================================================
(PID.TID 0000.0001) // Begin MONITOR dynamic field statistics
(PID.TID 0000.0001) // =======================================================
(PID.TID 0000.0001) %MON time_tsnumber                =                     7
(PID.TID 0000.0001) %MON time_secondsf                =   1.2600000000000E+04
(PID.TID 0000.0001) %MON dynstat_eta_max              =   2.6452017754315E-05
(PID.TID 0000.0001) %MON dynstat_eta_min              =  -8.7171395457497E-06
(PID.TID 0000.0001) %MON dynstat_eta_mean             =   2.3956724890362E-21
(PID.TID 0000.0001) %MON dynstat_eta_sd               =   6.4443975430178E-06
(PID.TID 0000.0001) %MON dynstat_eta_del2             =   1.9367406466393E-07
(PID.TID 0000.0001) %MON dynstat_uvel_max             =   1.2708684967342E-05
(PID.TID 0000.0001) %MON dynstat_uvel_min             =  -4.4635044695549E-05
(PID.TID 0000.0001) %MON dynstat_uvel_mean            =   4.4197362499132E-09
(PID.TID 0000.0001) %MON dynstat_uvel_sd              =   3.2468678373052E-06
(PID.TID 0000.0001) %MON dynstat_uvel_del2            =   1.1599838600333E-08
(PID.TID 0000.0001) %MON dynstat_vvel_max             =   6.2523378828919E-05
(PID.TID 0000.0001) %MON dynstat_vvel_min             =  -1.1129457284844E-05
(PID.TID 0000.0001) %MON dynstat_vvel_mean            =  -3.0444183779161E-07
(PID.TID 0000.0001) %MON dynstat_vvel_sd              =   3.6747465724572E-06
(PID.TID 0000.0001) %MON dynstat_vvel_del2            =   7.1774159137934E-09
(PID.TID 0000.0001) %MON dynstat_wvel_max             =   2.5043612357416E-07
(PID.TID 0000.0001) %MON dynstat_wvel_min             =  -2.5206959161839E-07
(PID.TID 0000.0001) %MON dynstat_wvel_mean            =  -1.3830095991874E-10
(PID.TID 0000.0001) %MON dynstat_wvel_sd              =   1.1102850464713E-08
(PID.TID 0000.0001) %MON dynstat_wvel_del2            =   1.0195148280292E-10
(PID.TID 0000.0001) %MON dynstat_theta_max            =  -1.9000000000000E+00
(PID.TID 0000.0001) %MON dynstat_theta_min            =  -1.9047728958694E+00
(PID.TID 0000.0001) %MON dynstat_theta_mean           =  -1.9000799153198E+00
(PID.TID 0000.0001) %MON dynstat_theta_sd             =   3.7288861184560E-04
(PID.TID 0000.0001) %MON dynstat_theta_del2           =   3.9542893206272E-07
(PID.TID 0000.0001) %MON dynstat_salt_max             =   3.4400000000000E+01
(PID.TID 0000.0001) %MON dynstat_salt_min             =   3.4398052272340E+01
(PID.TID 0000.0001) %MON dynstat_salt_mean            =   3.4399967746969E+01
(PID.TID 0000.0001) %MON dynstat_salt_sd              =   1.5129090048796E-04
(PID.TID 0000.0001) %MON dynstat_salt_del2            =   1.6110423874762E-07
(PID.TID 0000.0001) %MON advcfl_uvel_max              =   1.3537179417090E-05
(PID.TID 0000.0001) %MON advcfl_vvel_max              =   1.0122741460016E-05
(PID.TID 0000.0001) %MON advcfl_wvel_max              =   1.5124175497103E-05
(PID.TID 0000.0001) %MON advcfl_W_hf_max              =   1.9166303407188E-05
(PID.TID 0000.0001) %MON pe_b_mean                    =  -5.7457487121949E-09
(PID.TID 0000.0001) %MON ke_max                       =   1.9225470395084E-09
(PID.TID 0000.0001) %MON ke_mean                      =   1.1881806112472E-11
(PID.TID 0000.0001) %MON ke_vol                       =   2.9241705273104E+14
(PID.TID 0000.0001) %MON vort_r_min                   =  -1.0585790658197E-08
(PID.TID 0000.0001) %MON vort_r_max                   =   1.0236299575048E-08
(PID.TID 0000.0001) %MON vort_a_mean                  =  -1.4007437275347E-04
(PID.TID 0000.0001) %MON vort_a_sd                    =   1.7682769849360E-06
(PID.TID 0000.0001) %MON vort_p_mean                  =  -1.5039772192197E-04
(PID.TID 0000.0001) %MON vort_p_sd                    =   8.7080826390411E-05
(PID.TID 0000.0001) %MON surfExpan_theta_mean         =  -6.4352618231677E-13
(PID.TID 0000.0001) %MON surfExpan_salt_mean          =  -2.6481659862226E-13
(PID.TID 0000.0001) // =======================================================
(PID.TID 0000.0001) // End MONITOR dynamic field statistics
(PID.TID 0000.0001) // =======================================================
 cg2d: Sum(rhs),rhsMax =   1.77635683940025E-15  7.92399828925194E-05
(PID.TID 0000.0001)                    cg2d_init_res =    4.43744825759001E+00
(PID.TID 0000.0001)                       cg2d_iters =   207
(PID.TID 0000.0001)                         cg2d_res =    9.31086624497167E-14
(PID.TID 0000.0001) // =======================================================
(PID.TID 0000.0001) // Begin MONITOR dynamic field statistics
(PID.TID 0000.0001) // =======================================================
(PID.TID 0000.0001) %MON time_tsnumber                =                     8
(PID.TID 0000.0001) %MON time_secondsf                =   1.4400000000000E+04
(PID.TID 0000.0001) %MON dynstat_eta_max              =   3.1379692953576E-05
(PID.TID 0000.0001) %MON dynstat_eta_min              =  -9.2486668279828E-06
(PID.TID 0000.0001) %MON dynstat_eta_mean             =   1.0381247452490E-20
(PID.TID 0000.0001) %MON dynstat_eta_sd               =   7.7421675346926E-06
(PID.TID 0000.0001) %MON dynstat_eta_del2             =   2.2288087419324E-07
(PID.TID 0000.0001) %MON dynstat_uvel_max             =   1.5593191842803E-05
(PID.TID 0000.0001) %MON dynstat_uvel_min             =  -6.0620994806676E-05
(PID.TID 0000.0001) %MON dynstat_uvel_mean            =  -1.0297486393546E-09
(PID.TID 0000.0001) %MON dynstat_uvel_sd              =   4.4031270255482E-06
(PID.TID 0000.0001) %MON dynstat_uvel_del2            =   1.3951619571828E-08
(PID.TID 0000.0001) %MON dynstat_vvel_max             =   7.3647233093221E-05
(PID.TID 0000.0001) %MON dynstat_vvel_min             =  -1.2635746800135E-05
(PID.TID 0000.0001) %MON dynstat_vvel_mean            =  -3.1413573690318E-07
(PID.TID 0000.0001) %MON dynstat_vvel_sd              =   4.3374904789108E-06
(PID.TID 0000.0001) %MON dynstat_vvel_del2            =   8.4360256793833E-09
(PID.TID 0000.0001) %MON dynstat_wvel_max             =   3.3372859006696E-07
(PID.TID 0000.0001) %MON dynstat_wvel_min             =  -3.3201914577662E-07
(PID.TID 0000.0001) %MON dynstat_wvel_mean            =  -1.3599533463749E-10
(PID.TID 0000.0001) %MON dynstat_wvel_sd              =   1.3820479473293E-08
(PID.TID 0000.0001) %MON dynstat_wvel_del2            =   1.2084886075846E-10
(PID.TID 0000.0001) %MON dynstat_theta_max            =  -1.9000000000000E+00
(PID.TID 0000.0001) %MON dynstat_theta_min            =  -1.9054508873797E+00
(PID.TID 0000.0001) %MON dynstat_theta_mean           =  -1.9000912824756E+00
(PID.TID 0000.0001) %MON dynstat_theta_sd             =   4.2584427773251E-04
(PID.TID 0000.0001) %MON dynstat_theta_del2           =   4.5096953093981E-07
(PID.TID 0000.0001) %MON dynstat_salt_max             =   3.4400000000000E+01
(PID.TID 0000.0001) %MON dynstat_salt_min             =   3.4397775604583E+01
(PID.TID 0000.0001) %MON dynstat_salt_mean            =   3.4399963159607E+01
(PID.TID 0000.0001) %MON dynstat_salt_sd              =   1.7277510197773E-04
(PID.TID 0000.0001) %MON dynstat_salt_del2            =   1.8373139212384E-07
(PID.TID 0000.0001) %MON advcfl_uvel_max              =   1.8385492581848E-05
(PID.TID 0000.0001) %MON advcfl_vvel_max              =   1.1923730192000E-05
(PID.TID 0000.0001) %MON advcfl_wvel_max              =   2.0023715404017E-05
(PID.TID 0000.0001) %MON advcfl_W_hf_max              =   2.4998892848458E-05
(PID.TID 0000.0001) %MON pe_b_mean                    =  -7.1417128871059E-09
(PID.TID 0000.0001) %MON ke_max                       =   3.1246144459735E-09
(PID.TID 0000.0001) %MON ke_mean                      =   1.8841004169842E-11
(PID.TID 0000.0001) %MON ke_vol                       =   2.9241705273104E+14
(PID.TID 0000.0001) %MON vort_r_min                   =  -1.2469162842486E-08
(PID.TID 0000.0001) %MON vort_r_max                   =   1.2043547844793E-08
(PID.TID 0000.0001) %MON vort_a_mean                  =  -1.4007437273815E-04
(PID.TID 0000.0001) %MON vort_a_sd                    =   1.7682769279256E-06
(PID.TID 0000.0001) %MON vort_p_mean                  =  -1.5039772190552E-04
(PID.TID 0000.0001) %MON vort_p_sd                    =   8.7080663502937E-05
(PID.TID 0000.0001) %MON surfExpan_theta_mean         =  -7.2140467983091E-13
(PID.TID 0000.0001) %MON surfExpan_salt_mean          =  -2.9689234989557E-13
(PID.TID 0000.0001) // =======================================================
(PID.TID 0000.0001) // End MONITOR dynamic field statistics
(PID.TID 0000.0001) // =======================================================
 cg2d: Sum(rhs),rhsMax =   2.93098878501041E-14  8.99837831804109E-05
(PID.TID 0000.0001)                    cg2d_init_res =    3.90265756194056E+00
(PID.TID 0000.0001)                       cg2d_iters =   207
(PID.TID 0000.0001)                         cg2d_res =    9.32439808708861E-14
(PID.TID 0000.0001) // =======================================================
(PID.TID 0000.0001) // Begin MONITOR dynamic field statistics
(PID.TID 0000.0001) // =======================================================
(PID.TID 0000.0001) %MON time_tsnumber                =                     9
(PID.TID 0000.0001) %MON time_secondsf                =   1.6200000000000E+04
(PID.TID 0000.0001) %MON dynstat_eta_max              =   3.6569027570239E-05
(PID.TID 0000.0001) %MON dynstat_eta_min              =  -9.5952650459822E-06
(PID.TID 0000.0001) %MON dynstat_eta_mean             =  -9.5826899561448E-21
(PID.TID 0000.0001) %MON dynstat_eta_sd               =   8.9974333240054E-06
(PID.TID 0000.0001) %MON dynstat_eta_del2             =   2.5204925718543E-07
(PID.TID 0000.0001) %MON dynstat_uvel_max             =   1.8504602600538E-05
(PID.TID 0000.0001) %MON dynstat_uvel_min             =  -7.8474313667831E-05
(PID.TID 0000.0001) %MON dynstat_uvel_mean            =  -6.6560557498764E-09
(PID.TID 0000.0001) %MON dynstat_uvel_sd              =   5.7066960886509E-06
(PID.TID 0000.0001) %MON dynstat_uvel_del2            =   1.6397468214673E-08
(PID.TID 0000.0001) %MON dynstat_vvel_max             =   8.3056760153168E-05
(PID.TID 0000.0001) %MON dynstat_vvel_min             =  -1.4035885886278E-05
(PID.TID 0000.0001) %MON dynstat_vvel_mean            =  -3.0311672004967E-07
(PID.TID 0000.0001) %MON dynstat_vvel_sd              =   4.8950673674893E-06
(PID.TID 0000.0001) %MON dynstat_vvel_del2            =   9.4950825119902E-09
(PID.TID 0000.0001) %MON dynstat_wvel_max             =   4.2472917511091E-07
(PID.TID 0000.0001) %MON dynstat_wvel_min             =  -4.1843194132377E-07
(PID.TID 0000.0001) %MON dynstat_wvel_mean            =  -1.2756590518800E-10
(PID.TID 0000.0001) %MON dynstat_wvel_sd              =   1.6607197914478E-08
(PID.TID 0000.0001) %MON dynstat_wvel_del2            =   1.3746342549287E-10
(PID.TID 0000.0001) %MON dynstat_theta_max            =  -1.9000000000000E+00
(PID.TID 0000.0001) %MON dynstat_theta_min            =  -1.9061279429757E+00
(PID.TID 0000.0001) %MON dynstat_theta_mean           =  -1.9001026376176E+00
(PID.TID 0000.0001) %MON dynstat_theta_sd             =   4.7872354247527E-04
(PID.TID 0000.0001) %MON dynstat_theta_del2           =   5.0628141703883E-07
(PID.TID 0000.0001) %MON dynstat_salt_max             =   3.4400000000000E+01
(PID.TID 0000.0001) %MON dynstat_salt_min             =   3.4397499320601E+01
(PID.TID 0000.0001) %MON dynstat_salt_mean            =   3.4399958577170E+01
(PID.TID 0000.0001) %MON dynstat_salt_sd              =   1.9422798237331E-04
(PID.TID 0000.0001) %MON dynstat_salt_del2            =   2.0626512634692E-07
(PID.TID 0000.0001) %MON advcfl_uvel_max              =   2.3800152346669E-05
(PID.TID 0000.0001) %MON advcfl_vvel_max              =   1.3447163689564E-05
(PID.TID 0000.0001) %MON advcfl_wvel_max              =   2.5483750506654E-05
(PID.TID 0000.0001) %MON advcfl_W_hf_max              =   3.1211426277946E-05
(PID.TID 0000.0001) %MON pe_b_mean                    =  -8.4719076510778E-09
(PID.TID 0000.0001) %MON ke_max                       =   4.7101665641289E-09
(PID.TID 0000.0001) %MON ke_mean                      =   2.7836281078863E-11
(PID.TID 0000.0001) %MON ke_vol                       =   2.9241705273104E+14
(PID.TID 0000.0001) %MON vort_r_min                   =  -1.4062283456166E-08
(PID.TID 0000.0001) %MON vort_r_max                   =   1.3565839198260E-08
(PID.TID 0000.0001) %MON vort_a_mean                  =  -1.4007437272210E-04
(PID.TID 0000.0001) %MON vort_a_sd                    =   1.7682768588266E-06
(PID.TID 0000.0001) %MON vort_p_mean                  =  -1.5039772188829E-04
(PID.TID 0000.0001) %MON vort_p_sd                    =   8.7080477069122E-05
(PID.TID 0000.0001) %MON surfExpan_theta_mean         =  -7.6034381139684E-13
(PID.TID 0000.0001) %MON surfExpan_salt_mean          =  -3.1294020896314E-13
(PID.TID 0000.0001) // =======================================================
(PID.TID 0000.0001) // End MONITOR dynamic field statistics
(PID.TID 0000.0001) // =======================================================
 cg2d: Sum(rhs),rhsMax =   7.10542735760100E-15  1.00741384919618E-04
(PID.TID 0000.0001)                    cg2d_init_res =    3.48127254787701E+00
(PID.TID 0000.0001)                       cg2d_iters =   206
(PID.TID 0000.0001)                         cg2d_res =    9.03953674070847E-14
(PID.TID 0000.0001) // =======================================================
(PID.TID 0000.0001) // Begin MONITOR dynamic field statistics
(PID.TID 0000.0001) // =======================================================
(PID.TID 0000.0001) %MON time_tsnumber                =                    10
(PID.TID 0000.0001) %MON time_secondsf                =   1.8000000000000E+04
(PID.TID 0000.0001) %MON dynstat_eta_max              =   4.1513803639730E-05
(PID.TID 0000.0001) %MON dynstat_eta_min              =  -9.8501911151893E-06
(PID.TID 0000.0001) %MON dynstat_eta_mean             =  -9.5826899561448E-21
(PID.TID 0000.0001) %MON dynstat_eta_sd               =   1.0169323222433E-05
(PID.TID 0000.0001) %MON dynstat_eta_del2             =   2.8117730206171E-07
(PID.TID 0000.0001) %MON dynstat_uvel_max             =   2.1356792578711E-05
(PID.TID 0000.0001) %MON dynstat_uvel_min             =  -9.7640772239893E-05
(PID.TID 0000.0001) %MON dynstat_uvel_mean            =  -1.1546860864757E-08
(PID.TID 0000.0001) %MON dynstat_uvel_sd              =   7.1212479111976E-06
(PID.TID 0000.0001) %MON dynstat_uvel_del2            =   1.8921883704421E-08
(PID.TID 0000.0001) %MON dynstat_vvel_max             =   9.0285715836786E-05
(PID.TID 0000.0001) %MON dynstat_vvel_min             =  -1.5303628820684E-05
(PID.TID 0000.0001) %MON dynstat_vvel_mean            =  -2.7462985646294E-07
(PID.TID 0000.0001) %MON dynstat_vvel_sd              =   5.3164530174642E-06
(PID.TID 0000.0001) %MON dynstat_vvel_del2            =   1.0303446911753E-08
(PID.TID 0000.0001) %MON dynstat_wvel_max             =   5.2071803486651E-07
(PID.TID 0000.0001) %MON dynstat_wvel_min             =  -5.0868078128547E-07
(PID.TID 0000.0001) %MON dynstat_wvel_mean            =  -1.1455195716404E-10
(PID.TID 0000.0001) %MON dynstat_wvel_sd              =   1.9404379077754E-08
(PID.TID 0000.0001) %MON dynstat_wvel_del2            =   1.5118465767190E-10
(PID.TID 0000.0001) %MON dynstat_theta_max            =  -1.9000000000000E+00
(PID.TID 0000.0001) %MON dynstat_theta_min            =  -1.9068040652136E+00
(PID.TID 0000.0001) %MON dynstat_theta_mean           =  -1.9001139807639E+00
(PID.TID 0000.0001) %MON dynstat_theta_sd             =   5.3152656060166E-04
(PID.TID 0000.0001) %MON dynstat_theta_del2           =   5.6136570877994E-07
(PID.TID 0000.0001) %MON dynstat_salt_max             =   3.4400000000000E+01
(PID.TID 0000.0001) %MON dynstat_salt_min             =   3.4397223419343E+01
(PID.TID 0000.0001) %MON dynstat_salt_mean            =   3.4399953999649E+01
(PID.TID 0000.0001) %MON dynstat_salt_sd              =   2.1564960521769E-04
(PID.TID 0000.0001) %MON dynstat_salt_del2            =   2.2870589912471E-07
(PID.TID 0000.0001) %MON advcfl_uvel_max              =   2.9613068862155E-05
(PID.TID 0000.0001) %MON advcfl_vvel_max              =   1.4617555481911E-05
(PID.TID 0000.0001) %MON advcfl_wvel_max              =   3.1243082091991E-05
(PID.TID 0000.0001) %MON advcfl_W_hf_max              =   3.7605732761096E-05
(PID.TID 0000.0001) %MON pe_b_mean                    =  -9.6812613278657E-09
(PID.TID 0000.0001) %MON ke_max                       =   6.6796575820885E-09
(PID.TID 0000.0001) %MON ke_mean                      =   3.8842125998477E-11
(PID.TID 0000.0001) %MON ke_vol                       =   2.9241705273104E+14
(PID.TID 0000.0001) %MON vort_r_min                   =  -1.5286213016235E-08
(PID.TID 0000.0001) %MON vort_r_max                   =   1.4728416442323E-08
(PID.TID 0000.0001) %MON vort_a_mean                  =  -1.4007437270820E-04
(PID.TID 0000.0001) %MON vort_a_sd                    =   1.7682767700112E-06
(PID.TID 0000.0001) %MON vort_p_mean                  =  -1.5039772187337E-04
(PID.TID 0000.0001) %MON vort_p_sd                    =   8.7080272294048E-05
(PID.TID 0000.0001) %MON surfExpan_theta_mean         =  -7.5873819745210E-13
(PID.TID 0000.0001) %MON surfExpan_salt_mean          =  -3.1229466241458E-13
(PID.TID 0000.0001) // =======================================================
(PID.TID 0000.0001) // End MONITOR dynamic field statistics
(PID.TID 0000.0001) // =======================================================
 cg2d: Sum(rhs),rhsMax =  -3.28626015289046E-14  1.11482935081718E-04
(PID.TID 0000.0001)                    cg2d_init_res =    3.14147987703501E+00
(PID.TID 0000.0001)                       cg2d_iters =   205
(PID.TID 0000.0001)                         cg2d_res =    8.62840718009206E-14
(PID.TID 0000.0001) // =======================================================
(PID.TID 0000.0001) // Begin MONITOR dynamic field statistics
(PID.TID 0000.0001) // =======================================================
(PID.TID 0000.0001) %MON time_tsnumber                =                    11
(PID.TID 0000.0001) %MON time_secondsf                =   1.9800000000000E+04
(PID.TID 0000.0001) %MON dynstat_eta_max              =   4.6126935583019E-05
(PID.TID 0000.0001) %MON dynstat_eta_min              =  -1.0096669099648E-05
(PID.TID 0000.0001) %MON dynstat_eta_mean             =   4.7913449780724E-21
(PID.TID 0000.0001) %MON dynstat_eta_sd               =   1.1228544043730E-05
(PID.TID 0000.0001) %MON dynstat_eta_del2             =   3.1026318331373E-07
(PID.TID 0000.0001) %MON dynstat_uvel_max             =   2.4070401948274E-05
(PID.TID 0000.0001) %MON dynstat_uvel_min             =  -1.1753804336010E-04
(PID.TID 0000.0001) %MON dynstat_uvel_mean            =  -1.4918492662582E-08
(PID.TID 0000.0001) %MON dynstat_uvel_sd              =   8.6047062423281E-06
(PID.TID 0000.0001) %MON dynstat_uvel_del2            =   2.1501784369371E-08
(PID.TID 0000.0001) %MON dynstat_vvel_max             =   9.5041363245718E-05
(PID.TID 0000.0001) %MON dynstat_vvel_min             =  -1.6211419326327E-05
(PID.TID 0000.0001) %MON dynstat_vvel_mean            =  -2.3389391401022E-07
(PID.TID 0000.0001) %MON dynstat_vvel_sd              =   5.5810920231665E-06
(PID.TID 0000.0001) %MON dynstat_vvel_del2            =   1.0829974913906E-08
(PID.TID 0000.0001) %MON dynstat_wvel_max             =   6.1884122899574E-07
(PID.TID 0000.0001) %MON dynstat_wvel_min             =  -6.0007028709307E-07
(PID.TID 0000.0001) %MON dynstat_wvel_mean            =  -9.8562928679514E-11
(PID.TID 0000.0001) %MON dynstat_wvel_sd              =   2.2159943484377E-08
(PID.TID 0000.0001) %MON dynstat_wvel_del2            =   1.6168523150395E-10
(PID.TID 0000.0001) %MON dynstat_theta_max            =  -1.9000000000000E+00
(PID.TID 0000.0001) %MON dynstat_theta_min            =  -1.9074792567723E+00
(PID.TID 0000.0001) %MON dynstat_theta_mean           =  -1.9001253119327E+00
(PID.TID 0000.0001) %MON dynstat_theta_sd             =   5.8425348616132E-04
(PID.TID 0000.0001) %MON dynstat_theta_del2           =   6.1622350457393E-07
(PID.TID 0000.0001) %MON dynstat_salt_max             =   3.4400000000000E+01
(PID.TID 0000.0001) %MON dynstat_salt_min             =   3.4396947899708E+01
(PID.TID 0000.0001) %MON dynstat_salt_mean            =   3.4399949427038E+01
(PID.TID 0000.0001) %MON dynstat_salt_sd              =   2.3704003385653E-04
(PID.TID 0000.0001) %MON dynstat_salt_del2            =   2.5105415999222E-07
(PID.TID 0000.0001) %MON advcfl_uvel_max              =   3.5647630514371E-05
(PID.TID 0000.0001) %MON advcfl_vvel_max              =   1.5387510498695E-05
(PID.TID 0000.0001) %MON advcfl_wvel_max              =   3.7130473739744E-05
(PID.TID 0000.0001) %MON advcfl_W_hf_max              =   4.3986217672925E-05
(PID.TID 0000.0001) %MON pe_b_mean                    =  -1.0732484417749E-08
(PID.TID 0000.0001) %MON ke_max                       =   9.0063832801530E-09
(PID.TID 0000.0001) %MON ke_mean                      =   5.1683289153881E-11
(PID.TID 0000.0001) %MON ke_vol                       =   2.9241705273104E+14
(PID.TID 0000.0001) %MON vort_r_min                   =  -1.6091388437943E-08
(PID.TID 0000.0001) %MON vort_r_max                   =   1.5485179857889E-08
(PID.TID 0000.0001) %MON vort_a_mean                  =  -1.4007437269895E-04
(PID.TID 0000.0001) %MON vort_a_sd                    =   1.7682766554609E-06
(PID.TID 0000.0001) %MON vort_p_mean                  =  -1.5039772186343E-04
(PID.TID 0000.0001) %MON vort_p_sd                    =   8.7080055308503E-05
(PID.TID 0000.0001) %MON surfExpan_theta_mean         =  -7.1932345598721E-13
(PID.TID 0000.0001) %MON surfExpan_salt_mean          =  -2.9608020120799E-13
(PID.TID 0000.0001) // =======================================================
(PID.TID 0000.0001) // End MONITOR dynamic field statistics
(PID.TID 0000.0001) // =======================================================
 cg2d: Sum(rhs),rhsMax =  -1.33226762955019E-14  1.22181410989210E-04
(PID.TID 0000.0001)                    cg2d_init_res =    2.86228044640574E+00
(PID.TID 0000.0001)                       cg2d_iters =   205
(PID.TID 0000.0001)                         cg2d_res =    9.34411351202012E-14
(PID.TID 0000.0001) // =======================================================
(PID.TID 0000.0001) // Begin MONITOR dynamic field statistics
(PID.TID 0000.0001) // =======================================================
(PID.TID 0000.0001) %MON time_tsnumber                =                    12
(PID.TID 0000.0001) %MON time_secondsf                =   2.1600000000000E+04
(PID.TID 0000.0001) %MON dynstat_eta_max              =   5.0360299578221E-05
(PID.TID 0000.0001) %MON dynstat_eta_min              =  -1.0398983520801E-05
(PID.TID 0000.0001) %MON dynstat_eta_mean             =  -2.1294866569211E-21
(PID.TID 0000.0001) %MON dynstat_eta_sd               =   1.2160928344800E-05
(PID.TID 0000.0001) %MON dynstat_eta_del2             =   3.3930526575764E-07
(PID.TID 0000.0001) %MON dynstat_uvel_max             =   2.6573262119501E-05
(PID.TID 0000.0001) %MON dynstat_uvel_min             =  -1.3757052215542E-04
(PID.TID 0000.0001) %MON dynstat_uvel_mean            =  -1.6266292033555E-08
(PID.TID 0000.0001) %MON dynstat_uvel_sd              =   1.0112338184204E-05
(PID.TID 0000.0001) %MON dynstat_uvel_del2            =   2.4105525757099E-08
(PID.TID 0000.0001) %MON dynstat_vvel_max             =   9.7211816187845E-05
(PID.TID 0000.0001) %MON dynstat_vvel_min             =  -1.6738866198596E-05
(PID.TID 0000.0001) %MON dynstat_vvel_mean            =  -1.8703829833427E-07
(PID.TID 0000.0001) %MON dynstat_vvel_sd              =   5.6797604088879E-06
(PID.TID 0000.0001) %MON dynstat_vvel_del2            =   1.1064149006986E-08
(PID.TID 0000.0001) %MON dynstat_wvel_max             =   7.1631388335457E-07
(PID.TID 0000.0001) %MON dynstat_wvel_min             =  -6.9001585689369E-07
(PID.TID 0000.0001) %MON dynstat_wvel_mean            =  -8.1261935500319E-11
(PID.TID 0000.0001) %MON dynstat_wvel_sd              =   2.4828903185970E-08
(PID.TID 0000.0001) %MON dynstat_wvel_del2            =   1.6892614634714E-10
(PID.TID 0000.0001) %MON dynstat_theta_max            =  -1.9000000000000E+00
(PID.TID 0000.0001) %MON dynstat_theta_min            =  -1.9081535204011E+00
(PID.TID 0000.0001) %MON dynstat_theta_mean           =  -1.9001366311423E+00
(PID.TID 0000.0001) %MON dynstat_theta_sd             =   6.3690447266099E-04
(PID.TID 0000.0001) %MON dynstat_theta_del2           =   6.7085588346950E-07
(PID.TID 0000.0001) %MON dynstat_salt_max             =   3.4400000000000E+01
(PID.TID 0000.0001) %MON dynstat_salt_min             =   3.4396672760569E+01
(PID.TID 0000.0001) %MON dynstat_salt_mean            =   3.4399944859328E+01
(PID.TID 0000.0001) %MON dynstat_salt_sd              =   2.5839933141201E-04
(PID.TID 0000.0001) %MON dynstat_salt_del2            =   2.7331035057631E-07
(PID.TID 0000.0001) %MON advcfl_uvel_max              =   4.1723198747159E-05
(PID.TID 0000.0001) %MON advcfl_vvel_max              =   1.5738913996008E-05
(PID.TID 0000.0001) %MON advcfl_wvel_max              =   4.2978833001274E-05
(PID.TID 0000.0001) %MON advcfl_W_hf_max              =   5.0173751545595E-05
(PID.TID 0000.0001) %MON pe_b_mean                    =  -1.1607662678710E-08
(PID.TID 0000.0001) %MON ke_max                       =   1.1630163050110E-08
(PID.TID 0000.0001) %MON ke_mean                      =   6.6043843183480E-11
(PID.TID 0000.0001) %MON ke_vol                       =   2.9241705273104E+14
(PID.TID 0000.0001) %MON vort_r_min                   =  -1.6458866346354E-08
(PID.TID 0000.0001) %MON vort_r_max                   =   1.5819624056313E-08
(PID.TID 0000.0001) %MON vort_a_mean                  =  -1.4007437269575E-04
(PID.TID 0000.0001) %MON vort_a_sd                    =   1.7682765143317E-06
(PID.TID 0000.0001) %MON vort_p_mean                  =  -1.5039772186000E-04
(PID.TID 0000.0001) %MON vort_p_sd                    =   8.7079832735804E-05
(PID.TID 0000.0001) %MON surfExpan_theta_mean         =  -6.4930164388212E-13
(PID.TID 0000.0001) %MON surfExpan_salt_mean          =  -2.6726210609200E-13
(PID.TID 0000.0001) // =======================================================
(PID.TID 0000.0001) // End MONITOR dynamic field statistics
(PID.TID 0000.0001) // =======================================================
 cg2d: Sum(rhs),rhsMax =  -7.99360577730113E-15  1.32813052061505E-04
(PID.TID 0000.0001)                    cg2d_init_res =    2.62925442144569E+00
(PID.TID 0000.0001)                       cg2d_iters =   205
(PID.TID 0000.0001)                         cg2d_res =    8.68625296669941E-14
(PID.TID 0000.0001) // =======================================================
(PID.TID 0000.0001) // Begin MONITOR dynamic field statistics
(PID.TID 0000.0001) // =======================================================
(PID.TID 0000.0001) %MON time_tsnumber                =                    13
(PID.TID 0000.0001) %MON time_secondsf                =   2.3400000000000E+04
(PID.TID 0000.0001) %MON dynstat_eta_max              =   5.4198929242867E-05
(PID.TID 0000.0001) %MON dynstat_eta_min              =  -1.1087865274109E-05
(PID.TID 0000.0001) %MON dynstat_eta_mean             =  -8.5179466276843E-21
(PID.TID 0000.0001) %MON dynstat_eta_sd               =   1.2968232771936E-05
(PID.TID 0000.0001) %MON dynstat_eta_del2             =   3.6830218578220E-07
(PID.TID 0000.0001) %MON dynstat_uvel_max             =   2.8821628784617E-05
(PID.TID 0000.0001) %MON dynstat_uvel_min             =  -1.5741769046417E-04
(PID.TID 0000.0001) %MON dynstat_uvel_mean            =  -1.5449671352581E-08
(PID.TID 0000.0001) %MON dynstat_uvel_sd              =   1.1599849117825E-05
(PID.TID 0000.0001) %MON dynstat_uvel_del2            =   2.6694138338814E-08
(PID.TID 0000.0001) %MON dynstat_vvel_max             =   9.6861218327293E-05
(PID.TID 0000.0001) %MON dynstat_vvel_min             =  -1.6889827174940E-05
(PID.TID 0000.0001) %MON dynstat_vvel_mean            =  -1.4012924557566E-07
(PID.TID 0000.0001) %MON dynstat_vvel_sd              =   5.6146439372785E-06
(PID.TID 0000.0001) %MON dynstat_vvel_del2            =   1.1015345297223E-08
(PID.TID 0000.0001) %MON dynstat_wvel_max             =   8.1059761500088E-07
(PID.TID 0000.0001) %MON dynstat_wvel_min             =  -7.7620110110292E-07
(PID.TID 0000.0001) %MON dynstat_wvel_mean            =  -6.4320299965502E-11
(PID.TID 0000.0001) %MON dynstat_wvel_sd              =   2.7373531015364E-08
(PID.TID 0000.0001) %MON dynstat_wvel_del2            =   1.7314064096946E-10
(PID.TID 0000.0001) %MON dynstat_theta_max            =  -1.9000000000000E+00
(PID.TID 0000.0001) %MON dynstat_theta_min            =  -1.9088268588604E+00
(PID.TID 0000.0001) %MON dynstat_theta_mean           =  -1.9001479384105E+00
(PID.TID 0000.0001) %MON dynstat_theta_sd             =   6.8947967299059E-04
(PID.TID 0000.0001) %MON dynstat_theta_del2           =   7.2526390709029E-07
(PID.TID 0000.0001) %MON dynstat_salt_max             =   3.4400000000000E+01
(PID.TID 0000.0001) %MON dynstat_salt_min             =   3.4396398000793E+01
(PID.TID 0000.0001) %MON dynstat_salt_mean            =   3.4399940296512E+01
(PID.TID 0000.0001) %MON dynstat_salt_sd              =   2.7972756075223E-04
(PID.TID 0000.0001) %MON dynstat_salt_del2            =   2.9547490538581E-07
(PID.TID 0000.0001) %MON advcfl_uvel_max              =   4.7665860554121E-05
(PID.TID 0000.0001) %MON advcfl_vvel_max              =   1.5682151044848E-05
(PID.TID 0000.0001) %MON advcfl_wvel_max              =   4.8635856900053E-05
(PID.TID 0000.0001) %MON advcfl_W_hf_max              =   5.6016577601015E-05
(PID.TID 0000.0001) %MON pe_b_mean                    =  -1.2308171997647E-08
(PID.TID 0000.0001) %MON ke_max                       =   1.4610437817215E-08
(PID.TID 0000.0001) %MON ke_mean                      =   8.1491842419322E-11
(PID.TID 0000.0001) %MON ke_vol                       =   2.9241705273104E+14
(PID.TID 0000.0001) %MON vort_r_min                   =  -1.6399506861525E-08
(PID.TID 0000.0001) %MON vort_r_max                   =   1.5743811159174E-08
(PID.TID 0000.0001) %MON vort_a_mean                  =  -1.4007437269883E-04
(PID.TID 0000.0001) %MON vort_a_sd                    =   1.7682763505269E-06
(PID.TID 0000.0001) %MON vort_p_mean                  =  -1.5039772186330E-04
(PID.TID 0000.0001) %MON vort_p_sd                    =   8.7079611240038E-05
(PID.TID 0000.0001) %MON surfExpan_theta_mean         =  -5.6018329185754E-13
(PID.TID 0000.0001) %MON surfExpan_salt_mean          =  -2.3058004708349E-13
(PID.TID 0000.0001) // =======================================================
(PID.TID 0000.0001) // End MONITOR dynamic field statistics
(PID.TID 0000.0001) // =======================================================
 cg2d: Sum(rhs),rhsMax =   8.88178419700125E-16  1.43357631363369E-04
(PID.TID 0000.0001)                    cg2d_init_res =    2.43217298988809E+00
(PID.TID 0000.0001)                       cg2d_iters =   203
(PID.TID 0000.0001)                         cg2d_res =    8.69712087958151E-14
(PID.TID 0000.0001) // =======================================================
(PID.TID 0000.0001) // Begin MONITOR dynamic field statistics
(PID.TID 0000.0001) // =======================================================
(PID.TID 0000.0001) %MON time_tsnumber                =                    14
(PID.TID 0000.0001) %MON time_secondsf                =   2.5200000000000E+04
(PID.TID 0000.0001) %MON dynstat_eta_max              =   5.7657182781226E-05
(PID.TID 0000.0001) %MON dynstat_eta_min              =  -1.2294362848605E-05
(PID.TID 0000.0001) %MON dynstat_eta_mean             =  -1.0647433284605E-20
(PID.TID 0000.0001) %MON dynstat_eta_sd               =   1.3666403378977E-05
(PID.TID 0000.0001) %MON dynstat_eta_del2             =   3.9725291213982E-07
(PID.TID 0000.0001) %MON dynstat_uvel_max             =   3.0775352476001E-05
(PID.TID 0000.0001) %MON dynstat_uvel_min             =  -1.7822051896233E-04
(PID.TID 0000.0001) %MON dynstat_uvel_mean            =  -1.2676517001402E-08
(PID.TID 0000.0001) %MON dynstat_uvel_sd              =   1.3026288841162E-05
(PID.TID 0000.0001) %MON dynstat_uvel_del2            =   2.9224294094873E-08
(PID.TID 0000.0001) %MON dynstat_vvel_max             =   9.4214020796023E-05
(PID.TID 0000.0001) %MON dynstat_vvel_min             =  -1.6691153210546E-05
(PID.TID 0000.0001) %MON dynstat_vvel_mean            =  -9.8415377565076E-08
(PID.TID 0000.0001) %MON dynstat_vvel_sd              =   5.3986723854463E-06
(PID.TID 0000.0001) %MON dynstat_vvel_del2            =   1.0710879293749E-08
(PID.TID 0000.0001) %MON dynstat_wvel_max             =   8.9954549627021E-07
(PID.TID 0000.0001) %MON dynstat_wvel_min             =  -8.5670625479672E-07
(PID.TID 0000.0001) %MON dynstat_wvel_mean            =  -4.9316952321832E-11
(PID.TID 0000.0001) %MON dynstat_wvel_sd              =   2.9763323542048E-08
(PID.TID 0000.0001) %MON dynstat_wvel_del2            =   1.7479680824458E-10
(PID.TID 0000.0001) %MON dynstat_theta_max            =  -1.9000000000000E+00
(PID.TID 0000.0001) %MON dynstat_theta_min            =  -1.9094992748608E+00
(PID.TID 0000.0001) %MON dynstat_theta_mean           =  -1.9001592337555E+00
(PID.TID 0000.0001) %MON dynstat_theta_sd             =   7.4197923935081E-04
(PID.TID 0000.0001) %MON dynstat_theta_del2           =   7.7944862268444E-07
(PID.TID 0000.0001) %MON dynstat_salt_max             =   3.4400000000000E+01
(PID.TID 0000.0001) %MON dynstat_salt_min             =   3.4396123619265E+01
(PID.TID 0000.0001) %MON dynstat_salt_mean            =   3.4399935738584E+01
(PID.TID 0000.0001) %MON dynstat_salt_sd              =   3.0102478446115E-04
(PID.TID 0000.0001) %MON dynstat_salt_del2            =   3.1754825305565E-07
(PID.TID 0000.0001) %MON advcfl_uvel_max              =   5.3319369609586E-05
(PID.TID 0000.0001) %MON advcfl_vvel_max              =   1.5253561024530E-05
(PID.TID 0000.0001) %MON advcfl_wvel_max              =   5.3972729776213E-05
(PID.TID 0000.0001) %MON advcfl_W_hf_max              =   6.1398096532512E-05
(PID.TID 0000.0001) %MON pe_b_mean                    =  -1.2852933609951E-08
(PID.TID 0000.0001) %MON ke_max                       =   1.7933718429864E-08
(PID.TID 0000.0001) %MON ke_mean                      =   9.7516995833607E-11
(PID.TID 0000.0001) %MON ke_vol                       =   2.9241705273104E+14
(PID.TID 0000.0001) %MON vort_r_min                   =  -1.5951311651641E-08
(PID.TID 0000.0001) %MON vort_r_max                   =   1.5295613054582E-08
(PID.TID 0000.0001) %MON vort_a_mean                  =  -1.4007437270733E-04
(PID.TID 0000.0001) %MON vort_a_sd                    =   1.7682761720139E-06
(PID.TID 0000.0001) %MON vort_p_mean                  =  -1.5039772187243E-04
(PID.TID 0000.0001) %MON vort_p_sd                    =   8.7079397090201E-05
(PID.TID 0000.0001) %MON surfExpan_theta_mean         =  -4.6694846603702E-13
(PID.TID 0000.0001) %MON surfExpan_salt_mean          =  -1.9220149512758E-13
(PID.TID 0000.0001) // =======================================================
(PID.TID 0000.0001) // End MONITOR dynamic field statistics
(PID.TID 0000.0001) // =======================================================
 cg2d: Sum(rhs),rhsMax =   3.41948691584548E-14  1.53798933210580E-04
(PID.TID 0000.0001)                    cg2d_init_res =    2.26357496492285E+00
(PID.TID 0000.0001)                       cg2d_iters =   203
(PID.TID 0000.0001)                         cg2d_res =    8.37375928899307E-14
(PID.TID 0000.0001) // =======================================================
(PID.TID 0000.0001) // Begin MONITOR dynamic field statistics
(PID.TID 0000.0001) // =======================================================
(PID.TID 0000.0001) %MON time_tsnumber                =                    15
(PID.TID 0000.0001) %MON time_secondsf                =   2.7000000000000E+04
(PID.TID 0000.0001) %MON dynstat_eta_max              =   6.0776333087896E-05
(PID.TID 0000.0001) %MON dynstat_eta_min              =  -1.3502605299551E-05
(PID.TID 0000.0001) %MON dynstat_eta_mean             =  -6.3884599707632E-21
(PID.TID 0000.0001) %MON dynstat_eta_sd               =   1.4282047437277E-05
(PID.TID 0000.0001) %MON dynstat_eta_del2             =   4.2615678248129E-07
(PID.TID 0000.0001) %MON dynstat_uvel_max             =   3.2438134796637E-05
(PID.TID 0000.0001) %MON dynstat_uvel_min             =  -1.9804707072004E-04
(PID.TID 0000.0001) %MON dynstat_uvel_mean            =  -8.4066548643972E-09
(PID.TID 0000.0001) %MON dynstat_uvel_sd              =   1.4356593473544E-05
(PID.TID 0000.0001) %MON dynstat_uvel_del2            =   3.1652317226967E-08
(PID.TID 0000.0001) %MON dynstat_vvel_max             =   8.9630083956796E-05
(PID.TID 0000.0001) %MON dynstat_vvel_min             =  -1.6194875933234E-05
(PID.TID 0000.0001) %MON dynstat_vvel_mean            =  -6.5839947283479E-08
(PID.TID 0000.0001) %MON dynstat_vvel_sd              =   5.0541925085030E-06
(PID.TID 0000.0001) %MON dynstat_vvel_del2            =   1.0193036485274E-08
(PID.TID 0000.0001) %MON dynstat_wvel_max             =   9.8151033551389E-07
(PID.TID 0000.0001) %MON dynstat_wvel_min             =  -9.3010282906523E-07
(PID.TID 0000.0001) %MON dynstat_wvel_mean            =  -3.7596402041264E-11
(PID.TID 0000.0001) %MON dynstat_wvel_sd              =   3.1974967770965E-08
(PID.TID 0000.0001) %MON dynstat_wvel_del2            =   1.7453922911625E-10
(PID.TID 0000.0001) %MON dynstat_theta_max            =  -1.9000000000000E+00
(PID.TID 0000.0001) %MON dynstat_theta_min            =  -1.9101707710052E+00
(PID.TID 0000.0001) %MON dynstat_theta_mean           =  -1.9001705171951E+00
(PID.TID 0000.0001) %MON dynstat_theta_sd             =   7.9440332319698E-04
(PID.TID 0000.0001) %MON dynstat_theta_del2           =   8.3341106700909E-07
(PID.TID 0000.0001) %MON dynstat_salt_max             =   3.4400000000000E+01
(PID.TID 0000.0001) %MON dynstat_salt_min             =   3.4395849614917E+01
(PID.TID 0000.0001) %MON dynstat_salt_mean            =   3.4399931185534E+01
(PID.TID 0000.0001) %MON dynstat_salt_sd              =   3.2229106481609E-04
(PID.TID 0000.0001) %MON dynstat_salt_del2            =   3.3953081793059E-07
(PID.TID 0000.0001) %MON advcfl_uvel_max              =   5.8927727194138E-05
(PID.TID 0000.0001) %MON advcfl_vvel_max              =   1.4511406515902E-05
(PID.TID 0000.0001) %MON advcfl_wvel_max              =   5.8890620130834E-05
(PID.TID 0000.0001) %MON advcfl_W_hf_max              =   6.6241596180638E-05
(PID.TID 0000.0001) %MON pe_b_mean                    =  -1.3275098836126E-08
(PID.TID 0000.0001) %MON ke_max                       =   2.1380114482932E-08
(PID.TID 0000.0001) %MON ke_mean                      =   1.1357715517028E-10
(PID.TID 0000.0001) %MON ke_vol                       =   2.9241705273104E+14
(PID.TID 0000.0001) %MON vort_r_min                   =  -1.5175208429465E-08
(PID.TID 0000.0001) %MON vort_r_max                   =   1.4534533822266E-08
(PID.TID 0000.0001) %MON vort_a_mean                  =  -1.4007437271967E-04
(PID.TID 0000.0001) %MON vort_a_sd                    =   1.7682759894432E-06
(PID.TID 0000.0001) %MON vort_p_mean                  =  -1.5039772188568E-04
(PID.TID 0000.0001) %MON vort_p_sd                    =   8.7079195772111E-05
(PID.TID 0000.0001) %MON surfExpan_theta_mean         =  -3.8639317626314E-13
(PID.TID 0000.0001) %MON surfExpan_salt_mean          =  -1.5904034158569E-13
(PID.TID 0000.0001) // =======================================================
(PID.TID 0000.0001) // End MONITOR dynamic field statistics
(PID.TID 0000.0001) // =======================================================
 cg2d: Sum(rhs),rhsMax =   7.01660951563099E-14  1.64125418799707E-04
(PID.TID 0000.0001)                    cg2d_init_res =    2.11788212059792E+00
(PID.TID 0000.0001)                       cg2d_iters =   202
(PID.TID 0000.0001)                         cg2d_res =    9.29182098960069E-14
(PID.TID 0000.0001) // =======================================================
(PID.TID 0000.0001) // Begin MONITOR dynamic field statistics
(PID.TID 0000.0001) // =======================================================
(PID.TID 0000.0001) %MON time_tsnumber                =                    16
(PID.TID 0000.0001) %MON time_secondsf                =   2.8800000000000E+04
(PID.TID 0000.0001) %MON dynstat_eta_max              =   6.3621537616105E-05
(PID.TID 0000.0001) %MON dynstat_eta_min              =  -1.4670745230711E-05
(PID.TID 0000.0001) %MON dynstat_eta_mean             =  -1.4374034934217E-20
(PID.TID 0000.0001) %MON dynstat_eta_sd               =   1.4847963633973E-05
(PID.TID 0000.0001) %MON dynstat_eta_del2             =   4.5501351652323E-07
(PID.TID 0000.0001) %MON dynstat_uvel_max             =   3.3804994390198E-05
(PID.TID 0000.0001) %MON dynstat_uvel_min             =  -2.1621231809480E-04
(PID.TID 0000.0001) %MON dynstat_uvel_mean            =  -3.2237803115247E-09
(PID.TID 0000.0001) %MON dynstat_uvel_sd              =   1.5563617251744E-05
(PID.TID 0000.0001) %MON dynstat_uvel_del2            =   3.3938543267281E-08
(PID.TID 0000.0001) %MON dynstat_vvel_max             =   8.3572738803592E-05
(PID.TID 0000.0001) %MON dynstat_vvel_min             =  -1.5527358242357E-05
(PID.TID 0000.0001) %MON dynstat_vvel_mean            =  -4.4813161446176E-08
(PID.TID 0000.0001) %MON dynstat_vvel_sd              =   4.6111002408798E-06
(PID.TID 0000.0001) %MON dynstat_vvel_del2            =   9.5153331913564E-09
(PID.TID 0000.0001) %MON dynstat_wvel_max             =   1.0554133924373E-06
(PID.TID 0000.0001) %MON dynstat_wvel_min             =  -9.9551162327398E-07
(PID.TID 0000.0001) %MON dynstat_wvel_mean            =  -3.0123119652844E-11
(PID.TID 0000.0001) %MON dynstat_wvel_sd              =   3.3992481789548E-08
(PID.TID 0000.0001) %MON dynstat_wvel_del2            =   1.7311117817904E-10
(PID.TID 0000.0001) %MON dynstat_theta_max            =  -1.9000000000000E+00
(PID.TID 0000.0001) %MON dynstat_theta_min            =  -1.9108413497390E+00
(PID.TID 0000.0001) %MON dynstat_theta_mean           =  -1.9001817887472E+00
(PID.TID 0000.0001) %MON dynstat_theta_sd             =   8.4675207522278E-04
(PID.TID 0000.0001) %MON dynstat_theta_del2           =   8.8715227069966E-07
(PID.TID 0000.0001) %MON dynstat_salt_max             =   3.4400000000000E+01
(PID.TID 0000.0001) %MON dynstat_salt_min             =   3.4395575986745E+01
(PID.TID 0000.0001) %MON dynstat_salt_mean            =   3.4399926637357E+01
(PID.TID 0000.0001) %MON dynstat_salt_sd              =   3.4352646378050E-04
(PID.TID 0000.0001) %MON dynstat_salt_del2            =   3.6142302184656E-07
(PID.TID 0000.0001) %MON advcfl_uvel_max              =   6.4332688438060E-05
(PID.TID 0000.0001) %MON advcfl_vvel_max              =   1.3530702336627E-05
(PID.TID 0000.0001) %MON advcfl_wvel_max              =   6.3324803546238E-05
(PID.TID 0000.0001) %MON advcfl_W_hf_max              =   7.0512027389750E-05
(PID.TID 0000.0001) %MON pe_b_mean                    =  -1.3617489443078E-08
(PID.TID 0000.0001) %MON ke_max                       =   2.4847729587727E-08
(PID.TID 0000.0001) %MON ke_mean                      =   1.2914853497505E-10
(PID.TID 0000.0001) %MON ke_vol                       =   2.9241705273104E+14
(PID.TID 0000.0001) %MON vort_r_min                   =  -1.4149643449816E-08
(PID.TID 0000.0001) %MON vort_r_max                   =   1.3536462572722E-08
(PID.TID 0000.0001) %MON vort_a_mean                  =  -1.4007437273392E-04
(PID.TID 0000.0001) %MON vort_a_sd                    =   1.7682758125449E-06
(PID.TID 0000.0001) %MON vort_p_mean                  =  -1.5039772190098E-04
(PID.TID 0000.0001) %MON vort_p_sd                    =   8.7079011672786E-05
(PID.TID 0000.0001) %MON surfExpan_theta_mean         =  -3.3486188126288E-13
(PID.TID 0000.0001) %MON surfExpan_salt_mean          =  -1.3782350675394E-13
(PID.TID 0000.0001) // =======================================================
(PID.TID 0000.0001) // End MONITOR dynamic field statistics
(PID.TID 0000.0001) // =======================================================
 cg2d: Sum(rhs),rhsMax =   3.33066907387547E-14  1.74330861533972E-04
(PID.TID 0000.0001)                    cg2d_init_res =    1.99083211006536E+00
(PID.TID 0000.0001)                       cg2d_iters =   202
(PID.TID 0000.0001)                         cg2d_res =    8.27937051139593E-14
(PID.TID 0000.0001) // =======================================================
(PID.TID 0000.0001) // Begin MONITOR dynamic field statistics
(PID.TID 0000.0001) // =======================================================
(PID.TID 0000.0001) %MON time_tsnumber                =                    17
(PID.TID 0000.0001) %MON time_secondsf                =   3.0600000000000E+04
(PID.TID 0000.0001) %MON dynstat_eta_max              =   6.6276567225735E-05
(PID.TID 0000.0001) %MON dynstat_eta_min              =  -1.6271128840168E-05
(PID.TID 0000.0001) %MON dynstat_eta_mean             =   1.9697751576520E-20
(PID.TID 0000.0001) %MON dynstat_eta_sd               =   1.5398554231311E-05
(PID.TID 0000.0001) %MON dynstat_eta_del2             =   4.8382320693148E-07
(PID.TID 0000.0001) %MON dynstat_uvel_max             =   3.4923045427784E-05
(PID.TID 0000.0001) %MON dynstat_uvel_min             =  -2.3242940250591E-04
(PID.TID 0000.0001) %MON dynstat_uvel_mean            =   2.2783492318515E-09
(PID.TID 0000.0001) %MON dynstat_uvel_sd              =   1.6629547242616E-05
(PID.TID 0000.0001) %MON dynstat_uvel_del2            =   3.6051426029920E-08
(PID.TID 0000.0001) %MON dynstat_vvel_max             =   7.6572244085976E-05
(PID.TID 0000.0001) %MON dynstat_vvel_min             =  -1.4722138452001E-05
(PID.TID 0000.0001) %MON dynstat_vvel_mean            =  -3.6207715749572E-08
(PID.TID 0000.0001) %MON dynstat_vvel_sd              =   4.1045787450960E-06
(PID.TID 0000.0001) %MON dynstat_vvel_del2            =   8.7382661821628E-09
(PID.TID 0000.0001) %MON dynstat_wvel_max             =   1.1207723852675E-06
(PID.TID 0000.0001) %MON dynstat_wvel_min             =  -1.0678273077265E-06
(PID.TID 0000.0001) %MON dynstat_wvel_mean            =  -2.7375008248713E-11
(PID.TID 0000.0001) %MON dynstat_wvel_sd              =   3.5807603992360E-08
(PID.TID 0000.0001) %MON dynstat_wvel_del2            =   1.7126248569226E-10
(PID.TID 0000.0001) %MON dynstat_theta_max            =  -1.9000000000000E+00
(PID.TID 0000.0001) %MON dynstat_theta_min            =  -1.9115110133124E+00
(PID.TID 0000.0001) %MON dynstat_theta_mean           =  -1.9001930484295E+00
(PID.TID 0000.0001) %MON dynstat_theta_sd             =   8.9902564539062E-04
(PID.TID 0000.0001) %MON dynstat_theta_del2           =   9.4067326273526E-07
(PID.TID 0000.0001) %MON dynstat_salt_max             =   3.4400000000000E+01
(PID.TID 0000.0001) %MON dynstat_salt_min             =   3.4395302733824E+01
(PID.TID 0000.0001) %MON dynstat_salt_mean            =   3.4399922094046E+01
(PID.TID 0000.0001) %MON dynstat_salt_sd              =   3.6473104301654E-04
(PID.TID 0000.0001) %MON dynstat_salt_del2            =   3.8322528595094E-07
(PID.TID 0000.0001) %MON advcfl_uvel_max              =   6.9157985386851E-05
(PID.TID 0000.0001) %MON advcfl_vvel_max              =   1.2397299128963E-05
(PID.TID 0000.0001) %MON advcfl_wvel_max              =   6.7246343116050E-05
(PID.TID 0000.0001) %MON advcfl_W_hf_max              =   7.4214989043773E-05
(PID.TID 0000.0001) %MON pe_b_mean                    =  -1.3927353482215E-08
(PID.TID 0000.0001) %MON ke_max                       =   2.8181946679770E-08
(PID.TID 0000.0001) %MON ke_mean                      =   1.4377447344261E-10
(PID.TID 0000.0001) %MON ke_vol                       =   2.9241705273104E+14
(PID.TID 0000.0001) %MON vort_r_min                   =  -1.2964394460198E-08
(PID.TID 0000.0001) %MON vort_r_max                   =   1.2387733409818E-08
(PID.TID 0000.0001) %MON vort_a_mean                  =  -1.4007437274814E-04
(PID.TID 0000.0001) %MON vort_a_sd                    =   1.7682756512942E-06
(PID.TID 0000.0001) %MON vort_p_mean                  =  -1.5039772191625E-04
(PID.TID 0000.0001) %MON vort_p_sd                    =   8.7078847854100E-05
(PID.TID 0000.0001) %MON surfExpan_theta_mean         =  -3.2582831500847E-13
(PID.TID 0000.0001) %MON surfExpan_salt_mean          =  -1.3409566030308E-13
(PID.TID 0000.0001) // =======================================================
(PID.TID 0000.0001) // End MONITOR dynamic field statistics
(PID.TID 0000.0001) // =======================================================
 cg2d: Sum(rhs),rhsMax =   1.77635683940025E-15  1.84414686864746E-04
(PID.TID 0000.0001)                    cg2d_init_res =    1.87910645202941E+00
(PID.TID 0000.0001)                       cg2d_iters =   201
(PID.TID 0000.0001)                         cg2d_res =    7.94192027897253E-14
(PID.TID 0000.0001) // =======================================================
(PID.TID 0000.0001) // Begin MONITOR dynamic field statistics
(PID.TID 0000.0001) // =======================================================
(PID.TID 0000.0001) %MON time_tsnumber                =                    18
(PID.TID 0000.0001) %MON time_secondsf                =   3.2400000000000E+04
(PID.TID 0000.0001) %MON dynstat_eta_max              =   6.8836051244820E-05
(PID.TID 0000.0001) %MON dynstat_eta_min              =  -1.7730039785032E-05
(PID.TID 0000.0001) %MON dynstat_eta_mean             =   1.5971149926908E-21
(PID.TID 0000.0001) %MON dynstat_eta_sd               =   1.5965834527565E-05
(PID.TID 0000.0001) %MON dynstat_eta_del2             =   5.1258629050989E-07
(PID.TID 0000.0001) %MON dynstat_uvel_max             =   3.7207810244900E-05
(PID.TID 0000.0001) %MON dynstat_uvel_min             =  -2.4655460579069E-04
(PID.TID 0000.0001) %MON dynstat_uvel_mean            =   7.5721204337916E-09
(PID.TID 0000.0001) %MON dynstat_uvel_sd              =   1.7546638641747E-05
(PID.TID 0000.0001) %MON dynstat_uvel_del2            =   3.7970926378655E-08
(PID.TID 0000.0001) %MON dynstat_vvel_max             =   6.9511125824915E-05
(PID.TID 0000.0001) %MON dynstat_vvel_min             =  -1.3829108615191E-05
(PID.TID 0000.0001) %MON dynstat_vvel_mean            =  -3.9525886136234E-08
(PID.TID 0000.0001) %MON dynstat_vvel_sd              =   3.5725946315398E-06
(PID.TID 0000.0001) %MON dynstat_vvel_del2            =   7.9247926035169E-09
(PID.TID 0000.0001) %MON dynstat_wvel_max             =   1.1809725920336E-06
(PID.TID 0000.0001) %MON dynstat_wvel_min             =  -1.1339208009341E-06
(PID.TID 0000.0001) %MON dynstat_wvel_mean            =  -2.9306749675864E-11
(PID.TID 0000.0001) %MON dynstat_wvel_sd              =   3.7420392393983E-08
(PID.TID 0000.0001) %MON dynstat_wvel_del2            =   1.6965481406995E-10
(PID.TID 0000.0001) %MON dynstat_theta_max            =  -1.9000000000000E+00
(PID.TID 0000.0001) %MON dynstat_theta_min            =  -1.9121797637605E+00
(PID.TID 0000.0001) %MON dynstat_theta_mean           =  -1.9002042962596E+00
(PID.TID 0000.0001) %MON dynstat_theta_sd             =   9.5122418301048E-04
(PID.TID 0000.0001) %MON dynstat_theta_del2           =   9.9397507460819E-07
(PID.TID 0000.0001) %MON dynstat_salt_max             =   3.4400000000000E+01
(PID.TID 0000.0001) %MON dynstat_salt_min             =   3.4395029855316E+01
(PID.TID 0000.0001) %MON dynstat_salt_mean            =   3.4399917555591E+01
(PID.TID 0000.0001) %MON dynstat_salt_sd              =   3.8590486391766E-04
(PID.TID 0000.0001) %MON dynstat_salt_del2            =   4.0493803240195E-07
(PID.TID 0000.0001) %MON advcfl_uvel_max              =   7.3360855556558E-05
(PID.TID 0000.0001) %MON advcfl_vvel_max              =   1.1254080769461E-05
(PID.TID 0000.0001) %MON advcfl_wvel_max              =   7.0858355522016E-05
(PID.TID 0000.0001) %MON advcfl_W_hf_max              =   7.7393195330227E-05
(PID.TID 0000.0001) %MON pe_b_mean                    =  -1.4251120160345E-08
(PID.TID 0000.0001) %MON ke_max                       =   3.1283730239878E-08
(PID.TID 0000.0001) %MON ke_mean                      =   1.5710808731040E-10
(PID.TID 0000.0001) %MON ke_vol                       =   2.9241705273104E+14
(PID.TID 0000.0001) %MON vort_r_min                   =  -1.1714041532643E-08
(PID.TID 0000.0001) %MON vort_r_max                   =   1.1906251048639E-08
(PID.TID 0000.0001) %MON vort_a_mean                  =  -1.4007437276054E-04
(PID.TID 0000.0001) %MON vort_a_sd                    =   1.7682755146557E-06
(PID.TID 0000.0001) %MON vort_p_mean                  =  -1.5039772192956E-04
(PID.TID 0000.0001) %MON vort_p_sd                    =   8.7078705924207E-05
(PID.TID 0000.0001) %MON surfExpan_theta_mean         =  -3.6787529048001E-13
(PID.TID 0000.0001) %MON surfExpan_salt_mean          =  -1.5138839600458E-13
(PID.TID 0000.0001) // =======================================================
(PID.TID 0000.0001) // End MONITOR dynamic field statistics
(PID.TID 0000.0001) // =======================================================
 cg2d: Sum(rhs),rhsMax =   1.95399252334028E-14  1.94381832171289E-04
(PID.TID 0000.0001)                    cg2d_init_res =    1.78008146268012E+00
(PID.TID 0000.0001)                       cg2d_iters =   201
(PID.TID 0000.0001)                         cg2d_res =    8.72481872987140E-14
(PID.TID 0000.0001) // =======================================================
(PID.TID 0000.0001) // Begin MONITOR dynamic field statistics
(PID.TID 0000.0001) // =======================================================
(PID.TID 0000.0001) %MON time_tsnumber                =                    19
(PID.TID 0000.0001) %MON time_secondsf                =   3.4200000000000E+04
(PID.TID 0000.0001) %MON dynstat_eta_max              =   7.1396265430801E-05
(PID.TID 0000.0001) %MON dynstat_eta_min              =  -1.8949773879203E-05
(PID.TID 0000.0001) %MON dynstat_eta_mean             =  -1.0647433284605E-21
(PID.TID 0000.0001) %MON dynstat_eta_sd               =   1.6576531456958E-05
(PID.TID 0000.0001) %MON dynstat_eta_del2             =   5.4130350093838E-07
(PID.TID 0000.0001) %MON dynstat_uvel_max             =   3.9212092821926E-05
(PID.TID 0000.0001) %MON dynstat_uvel_min             =  -2.5858884087998E-04
(PID.TID 0000.0001) %MON dynstat_uvel_mean            =   1.2234089953093E-08
(PID.TID 0000.0001) %MON dynstat_uvel_sd              =   1.8317255015816E-05
(PID.TID 0000.0001) %MON dynstat_uvel_del2            =   3.9690851038040E-08
(PID.TID 0000.0001) %MON dynstat_vvel_max             =   6.2590633452532E-05
(PID.TID 0000.0001) %MON dynstat_vvel_min             =  -1.2919359987333E-05
(PID.TID 0000.0001) %MON dynstat_vvel_mean            =  -5.3181347973448E-08
(PID.TID 0000.0001) %MON dynstat_vvel_sd              =   3.0532776622720E-06
(PID.TID 0000.0001) %MON dynstat_vvel_del2            =   7.1357476255226E-09
(PID.TID 0000.0001) %MON dynstat_wvel_max             =   1.2354362848446E-06
(PID.TID 0000.0001) %MON dynstat_wvel_min             =  -1.1922365765223E-06
(PID.TID 0000.0001) %MON dynstat_wvel_mean            =  -3.5392394082259E-11
(PID.TID 0000.0001) %MON dynstat_wvel_sd              =   3.8839897745100E-08
(PID.TID 0000.0001) %MON dynstat_wvel_del2            =   1.6878397298990E-10
(PID.TID 0000.0001) %MON dynstat_theta_max            =  -1.9000000000000E+00
(PID.TID 0000.0001) %MON dynstat_theta_min            =  -1.9128476028995E+00
(PID.TID 0000.0001) %MON dynstat_theta_mean           =  -1.9002155322552E+00
(PID.TID 0000.0001) %MON dynstat_theta_sd             =   1.0033478368527E-03
(PID.TID 0000.0001) %MON dynstat_theta_del2           =   1.0470587438357E-06
(PID.TID 0000.0001) %MON dynstat_salt_max             =   3.4400000000000E+01
(PID.TID 0000.0001) %MON dynstat_salt_min             =   3.4394757350473E+01
(PID.TID 0000.0001) %MON dynstat_salt_mean            =   3.4399913021987E+01
(PID.TID 0000.0001) %MON dynstat_salt_sd              =   4.0704798765512E-04
(PID.TID 0000.0001) %MON dynstat_salt_del2            =   4.2656168579958E-07
(PID.TID 0000.0001) %MON advcfl_uvel_max              =   7.6941570584322E-05
(PID.TID 0000.0001) %MON advcfl_vvel_max              =   1.0133630205628E-05
(PID.TID 0000.0001) %MON advcfl_wvel_max              =   7.4126177090675E-05
(PID.TID 0000.0001) %MON advcfl_W_hf_max              =   8.0120821702472E-05
(PID.TID 0000.0001) %MON pe_b_mean                    =  -1.4629814036396E-08
(PID.TID 0000.0001) %MON ke_max                       =   3.4085551008587E-08
(PID.TID 0000.0001) %MON ke_mean                      =   1.6894516273225E-10
(PID.TID 0000.0001) %MON ke_vol                       =   2.9241705273104E+14
(PID.TID 0000.0001) %MON vort_r_min                   =  -1.0491531141488E-08
(PID.TID 0000.0001) %MON vort_r_max                   =   1.2497850581929E-08
(PID.TID 0000.0001) %MON vort_a_mean                  =  -1.4007437276970E-04
(PID.TID 0000.0001) %MON vort_a_sd                    =   1.7682754083019E-06
(PID.TID 0000.0001) %MON vort_p_mean                  =  -1.5039772193940E-04
(PID.TID 0000.0001) %MON vort_p_sd                    =   8.7078586008793E-05
(PID.TID 0000.0001) %MON surfExpan_theta_mean         =  -4.6351787643742E-13
(PID.TID 0000.0001) %MON surfExpan_salt_mean          =  -1.9073645088849E-13
(PID.TID 0000.0001) // =======================================================
(PID.TID 0000.0001) // End MONITOR dynamic field statistics
(PID.TID 0000.0001) // =======================================================
 cg2d: Sum(rhs),rhsMax =  -3.55271367880050E-15  2.04242099680042E-04
(PID.TID 0000.0001)                    cg2d_init_res =    1.69165796451608E+00
(PID.TID 0000.0001)                       cg2d_iters =   201
(PID.TID 0000.0001)                         cg2d_res =    9.10104250725660E-14
(PID.TID 0000.0001) // =======================================================
(PID.TID 0000.0001) // Begin MONITOR dynamic field statistics
(PID.TID 0000.0001) // =======================================================
(PID.TID 0000.0001) %MON time_tsnumber                =                    20
(PID.TID 0000.0001) %MON time_secondsf                =   3.6000000000000E+04
(PID.TID 0000.0001) %MON dynstat_eta_max              =   7.4046071364765E-05
(PID.TID 0000.0001) %MON dynstat_eta_min              =  -1.9895111802110E-05
(PID.TID 0000.0001) %MON dynstat_eta_mean             =  -3.7266016496119E-21
(PID.TID 0000.0001) %MON dynstat_eta_sd               =   1.7250439434654E-05
(PID.TID 0000.0001) %MON dynstat_eta_del2             =   5.6997580640936E-07
(PID.TID 0000.0001) %MON dynstat_uvel_max             =   4.0936702896313E-05
(PID.TID 0000.0001) %MON dynstat_uvel_min             =  -2.6866858325644E-04
(PID.TID 0000.0001) %MON dynstat_uvel_mean            =   1.5956647509210E-08
(PID.TID 0000.0001) %MON dynstat_uvel_sd              =   1.8953243138798E-05
(PID.TID 0000.0001) %MON dynstat_uvel_del2            =   4.1219928042974E-08
(PID.TID 0000.0001) %MON dynstat_vvel_max             =   5.6287477171513E-05
(PID.TID 0000.0001) %MON dynstat_vvel_min             =  -1.2064068090123E-05
(PID.TID 0000.0001) %MON dynstat_vvel_mean            =  -7.4840283727942E-08
(PID.TID 0000.0001) %MON dynstat_vvel_sd              =   2.5822344124827E-06
(PID.TID 0000.0001) %MON dynstat_vvel_del2            =   6.4254025064976E-09
(PID.TID 0000.0001) %MON dynstat_wvel_max             =   1.2830587330477E-06
(PID.TID 0000.0001) %MON dynstat_wvel_min             =  -1.2433579685080E-06
(PID.TID 0000.0001) %MON dynstat_wvel_mean            =  -4.4734653686667E-11
(PID.TID 0000.0001) %MON dynstat_wvel_sd              =   4.0084704823476E-08
(PID.TID 0000.0001) %MON dynstat_wvel_del2            =   1.6894151051518E-10
(PID.TID 0000.0001) %MON dynstat_theta_max            =  -1.9000000000000E+00
(PID.TID 0000.0001) %MON dynstat_theta_min            =  -1.9135145323424E+00
(PID.TID 0000.0001) %MON dynstat_theta_mean           =  -1.9002267564339E+00
(PID.TID 0000.0001) %MON dynstat_theta_sd             =   1.0553967552752E-03
(PID.TID 0000.0001) %MON dynstat_theta_del2           =   1.0999253165115E-06
(PID.TID 0000.0001) %MON dynstat_salt_max             =   3.4400000000000E+01
(PID.TID 0000.0001) %MON dynstat_salt_min             =   3.4394485218631E+01
(PID.TID 0000.0001) %MON dynstat_salt_mean            =   3.4399908493227E+01
(PID.TID 0000.0001) %MON dynstat_salt_sd              =   4.2816047523022E-04
(PID.TID 0000.0001) %MON dynstat_salt_del2            =   4.4809667422507E-07
(PID.TID 0000.0001) %MON advcfl_uvel_max              =   7.9940737937758E-05
(PID.TID 0000.0001) %MON advcfl_vvel_max              =   9.1131283931868E-06
(PID.TID 0000.0001) %MON advcfl_wvel_max              =   7.6983523982860E-05
(PID.TID 0000.0001) %MON advcfl_W_hf_max              =   8.2496229518191E-05
(PID.TID 0000.0001) %MON pe_b_mean                    =  -1.5095632819553E-08
(PID.TID 0000.0001) %MON ke_max                       =   3.6558183956469E-08
(PID.TID 0000.0001) %MON ke_mean                      =   1.7924482997706E-10
(PID.TID 0000.0001) %MON ke_vol                       =   2.9241705273104E+14
(PID.TID 0000.0001) %MON vort_r_min                   =  -9.3822396242836E-09
(PID.TID 0000.0001) %MON vort_r_max                   =   1.3088254007369E-08
(PID.TID 0000.0001) %MON vort_a_mean                  =  -1.4007437277459E-04
(PID.TID 0000.0001) %MON vort_a_sd                    =   1.7682753347588E-06
(PID.TID 0000.0001) %MON vort_p_mean                  =  -1.5039772194465E-04
(PID.TID 0000.0001) %MON vort_p_sd                    =   8.7078486818135E-05
(PID.TID 0000.0001) %MON surfExpan_theta_mean         =  -6.0907155723626E-13
(PID.TID 0000.0001) %MON surfExpan_salt_mean          =  -2.5062374606227E-13
(PID.TID 0000.0001) // =======================================================
(PID.TID 0000.0001) // End MONITOR dynamic field statistics
(PID.TID 0000.0001) // =======================================================
(PID.TID 0000.0001) %CHECKPOINT        20 ckptA
(PID.TID 0000.0001)   Seconds in section "ALL                    [THE_MODEL_MAIN]":
(PID.TID 0000.0001)           User time:   16.969999999999999
(PID.TID 0000.0001)         System time:  0.14999999999999999
(PID.TID 0000.0001)     Wall clock time:   22.228759050369263
(PID.TID 0000.0001)          No. starts:           1
(PID.TID 0000.0001)           No. stops:           1
(PID.TID 0000.0001)   Seconds in section "INITIALISE_FIXED       [THE_MODEL_MAIN]":
(PID.TID 0000.0001)           User time:  0.32000000000000001
(PID.TID 0000.0001)         System time:  7.00000000000000067E-002
(PID.TID 0000.0001)     Wall clock time:   3.2557461261749268
(PID.TID 0000.0001)          No. starts:           1
(PID.TID 0000.0001)           No. stops:           1
(PID.TID 0000.0001)   Seconds in section "THE_MAIN_LOOP          [THE_MODEL_MAIN]":
(PID.TID 0000.0001)           User time:   16.649999999999999
(PID.TID 0000.0001)         System time:  7.99999999999999878E-002
(PID.TID 0000.0001)     Wall clock time:   18.971823930740356
(PID.TID 0000.0001)          No. starts:           1
(PID.TID 0000.0001)           No. stops:           1
(PID.TID 0000.0001)   Seconds in section "INITIALISE_VARIA    [THE_MAIN_LOOP]":
(PID.TID 0000.0001)           User time:  0.27999999999999997
(PID.TID 0000.0001)         System time:  2.99999999999999989E-002
(PID.TID 0000.0001)     Wall clock time:   1.2289760112762451
(PID.TID 0000.0001)          No. starts:           1
(PID.TID 0000.0001)           No. stops:           1
(PID.TID 0000.0001)   Seconds in section "MAIN LOOP           [THE_MAIN_LOOP]":
(PID.TID 0000.0001)           User time:   16.369999999999997
(PID.TID 0000.0001)         System time:  4.99999999999999889E-002
(PID.TID 0000.0001)     Wall clock time:   17.742809057235718
(PID.TID 0000.0001)          No. starts:           1
(PID.TID 0000.0001)           No. stops:           1
(PID.TID 0000.0001)   Seconds in section "FORWARD_STEP        [THE_MAIN_LOOP]":
(PID.TID 0000.0001)           User time:   16.369999999999990
(PID.TID 0000.0001)         System time:  4.99999999999999750E-002
(PID.TID 0000.0001)     Wall clock time:   17.742623567581177
(PID.TID 0000.0001)          No. starts:          20
(PID.TID 0000.0001)           No. stops:          20
(PID.TID 0000.0001)   Seconds in section "UPDATE_SURF_DR      [FORWARD_STEP]":
(PID.TID 0000.0001)           User time:  0.11999999999999744
(PID.TID 0000.0001)         System time:   0.0000000000000000
(PID.TID 0000.0001)     Wall clock time:  0.15136742591857910
(PID.TID 0000.0001)          No. starts:          40
(PID.TID 0000.0001)           No. stops:          40
(PID.TID 0000.0001)   Seconds in section "LOAD_FIELDS_DRIVER  [FORWARD_STEP]":
(PID.TID 0000.0001)           User time:   0.0000000000000000
(PID.TID 0000.0001)         System time:   0.0000000000000000
(PID.TID 0000.0001)     Wall clock time:  5.32150268554687500E-004
(PID.TID 0000.0001)          No. starts:          20
(PID.TID 0000.0001)           No. stops:          20
(PID.TID 0000.0001)   Seconds in section "EXTERNAL_FLDS_LOAD [LOAD_FLDS_DRIVER]":
(PID.TID 0000.0001)           User time:   0.0000000000000000
(PID.TID 0000.0001)         System time:   0.0000000000000000
(PID.TID 0000.0001)     Wall clock time:  1.78575515747070313E-004
(PID.TID 0000.0001)          No. starts:          20
(PID.TID 0000.0001)           No. stops:          20
(PID.TID 0000.0001)   Seconds in section "DO_ATMOSPHERIC_PHYS [FORWARD_STEP]":
(PID.TID 0000.0001)           User time:   0.0000000000000000
(PID.TID 0000.0001)         System time:   0.0000000000000000
(PID.TID 0000.0001)     Wall clock time:  1.75476074218750000E-004
(PID.TID 0000.0001)          No. starts:          20
(PID.TID 0000.0001)           No. stops:          20
(PID.TID 0000.0001)   Seconds in section "DO_OCEANIC_PHYS     [FORWARD_STEP]":
(PID.TID 0000.0001)           User time:  0.52000000000000313
(PID.TID 0000.0001)         System time:   0.0000000000000000
(PID.TID 0000.0001)     Wall clock time:  0.49561095237731934
(PID.TID 0000.0001)          No. starts:          20
(PID.TID 0000.0001)           No. stops:          20
(PID.TID 0000.0001)   Seconds in section "SHELFICE_THERMODYNAMICS [DO_OCEANIC_PHYS]":
(PID.TID 0000.0001)           User time:  7.00000000000002842E-002
(PID.TID 0000.0001)         System time:   0.0000000000000000
(PID.TID 0000.0001)     Wall clock time:  3.80327701568603516E-002
(PID.TID 0000.0001)          No. starts:          20
(PID.TID 0000.0001)           No. stops:          20
(PID.TID 0000.0001)   Seconds in section "THERMODYNAMICS      [FORWARD_STEP]":
(PID.TID 0000.0001)           User time:   2.4699999999999953
(PID.TID 0000.0001)         System time:  9.99999999999999500E-003
(PID.TID 0000.0001)     Wall clock time:   2.4974024295806885
(PID.TID 0000.0001)          No. starts:          20
(PID.TID 0000.0001)           No. stops:          20
(PID.TID 0000.0001)   Seconds in section "DYNAMICS            [FORWARD_STEP]":
(PID.TID 0000.0001)           User time:   6.2900000000000027
(PID.TID 0000.0001)         System time:   0.0000000000000000
(PID.TID 0000.0001)     Wall clock time:   6.2744717597961426
(PID.TID 0000.0001)          No. starts:          20
(PID.TID 0000.0001)           No. stops:          20
(PID.TID 0000.0001)   Seconds in section "SOLVE_FOR_PRESSURE  [FORWARD_STEP]":
(PID.TID 0000.0001)           User time:   3.0599999999999987
(PID.TID 0000.0001)         System time:   0.0000000000000000
(PID.TID 0000.0001)     Wall clock time:   3.0940463542938232
(PID.TID 0000.0001)          No. starts:          20
(PID.TID 0000.0001)           No. stops:          20
(PID.TID 0000.0001)   Seconds in section "MOM_CORRECTION_STEP [FORWARD_STEP]":
(PID.TID 0000.0001)           User time:  0.60000000000000142
(PID.TID 0000.0001)         System time:   0.0000000000000000
(PID.TID 0000.0001)     Wall clock time:  0.60239768028259277
(PID.TID 0000.0001)          No. starts:          20
(PID.TID 0000.0001)           No. stops:          20
(PID.TID 0000.0001)   Seconds in section "UPDATE_ETAH         [FORWARD_STEP]":
(PID.TID 0000.0001)           User time:   0.0000000000000000
(PID.TID 0000.0001)         System time:   0.0000000000000000
(PID.TID 0000.0001)     Wall clock time:  2.12693214416503906E-003
(PID.TID 0000.0001)          No. starts:          20
(PID.TID 0000.0001)           No. stops:          20
(PID.TID 0000.0001)   Seconds in section "TRC_CORRECTION_STEP [FORWARD_STEP]":
(PID.TID 0000.0001)           User time:   1.1699999999999946
(PID.TID 0000.0001)         System time:   0.0000000000000000
(PID.TID 0000.0001)     Wall clock time:   1.1584465503692627
(PID.TID 0000.0001)          No. starts:          20
(PID.TID 0000.0001)           No. stops:          20
(PID.TID 0000.0001)   Seconds in section "BLOCKING_EXCHANGES  [FORWARD_STEP]":
(PID.TID 0000.0001)           User time:  0.14000000000000412
(PID.TID 0000.0001)         System time:   0.0000000000000000
(PID.TID 0000.0001)     Wall clock time:  0.10611295700073242
(PID.TID 0000.0001)          No. starts:          20
(PID.TID 0000.0001)           No. stops:          20
(PID.TID 0000.0001)   Seconds in section "DO_STATEVARS_TAVE   [FORWARD_STEP]":
(PID.TID 0000.0001)           User time:   0.0000000000000000
(PID.TID 0000.0001)         System time:   0.0000000000000000
(PID.TID 0000.0001)     Wall clock time:  1.87158584594726563E-004
(PID.TID 0000.0001)          No. starts:          20
(PID.TID 0000.0001)           No. stops:          20
(PID.TID 0000.0001)   Seconds in section "MONITOR             [FORWARD_STEP]":
(PID.TID 0000.0001)           User time:   1.8299999999999983
(PID.TID 0000.0001)         System time:   0.0000000000000000
(PID.TID 0000.0001)     Wall clock time:   1.8643951416015625
(PID.TID 0000.0001)          No. starts:          20
(PID.TID 0000.0001)           No. stops:          20
(PID.TID 0000.0001)   Seconds in section "DO_THE_MODEL_IO     [FORWARD_STEP]":
(PID.TID 0000.0001)           User time:  8.99999999999998579E-002
(PID.TID 0000.0001)         System time:  2.00000000000000039E-002
(PID.TID 0000.0001)     Wall clock time:   1.3874270915985107
(PID.TID 0000.0001)          No. starts:          20
(PID.TID 0000.0001)           No. stops:          20
(PID.TID 0000.0001)   Seconds in section "DO_WRITE_PICKUP     [FORWARD_STEP]":
(PID.TID 0000.0001)           User time:  7.99999999999982947E-002
(PID.TID 0000.0001)         System time:  1.99999999999999900E-002
(PID.TID 0000.0001)     Wall clock time:  0.10484123229980469
(PID.TID 0000.0001)          No. starts:          20
(PID.TID 0000.0001)           No. stops:          20
(PID.TID 0000.0001) // ======================================================
(PID.TID 0000.0001) // Tile <-> Tile communication statistics
(PID.TID 0000.0001) // ======================================================
(PID.TID 0000.0001) // o Tile number: 000001
(PID.TID 0000.0001) //         No. X exchanges =              0
(PID.TID 0000.0001) //            Max. X spins =              0
(PID.TID 0000.0001) //            Min. X spins =     1000000000
(PID.TID 0000.0001) //          Total. X spins =              0
(PID.TID 0000.0001) //            Avg. X spins =       0.00E+00
(PID.TID 0000.0001) //         No. Y exchanges =              0
(PID.TID 0000.0001) //            Max. Y spins =              0
(PID.TID 0000.0001) //            Min. Y spins =     1000000000
(PID.TID 0000.0001) //          Total. Y spins =              0
(PID.TID 0000.0001) //            Avg. Y spins =       0.00E+00
(PID.TID 0000.0001) // o Tile number: 000002
(PID.TID 0000.0001) //         No. X exchanges =              0
(PID.TID 0000.0001) //            Max. X spins =              0
(PID.TID 0000.0001) //            Min. X spins =     1000000000
(PID.TID 0000.0001) //          Total. X spins =              0
(PID.TID 0000.0001) //            Avg. X spins =       0.00E+00
(PID.TID 0000.0001) //         No. Y exchanges =              0
(PID.TID 0000.0001) //            Max. Y spins =              0
(PID.TID 0000.0001) //            Min. Y spins =     1000000000
(PID.TID 0000.0001) //          Total. Y spins =              0
(PID.TID 0000.0001) //            Avg. Y spins =       0.00E+00
(PID.TID 0000.0001) // o Thread number: 000001
(PID.TID 0000.0001) //            No. barriers =          27828
(PID.TID 0000.0001) //      Max. barrier spins =              1
(PID.TID 0000.0001) //      Min. barrier spins =              1
(PID.TID 0000.0001) //     Total barrier spins =          27828
(PID.TID 0000.0001) //      Avg. barrier spins =       1.00E+00
PROGRAM MAIN: Execution ended Normally
