(PID.TID 0000.0001) 
(PID.TID 0000.0001) // ======================================================
(PID.TID 0000.0001) //                      MITgcm UV
(PID.TID 0000.0001) //                      =========
(PID.TID 0000.0001) // ======================================================
(PID.TID 0000.0001) // execution environment starting up...
(PID.TID 0000.0001) 
(PID.TID 0000.0001) // MITgcmUV version:  checkpoint63l
(PID.TID 0000.0001) // Build user:        jmc
(PID.TID 0000.0001) // Build host:        baudelaire
(PID.TID 0000.0001) // Build date:        Thu Apr 26 11:18:20 EDT 2012
(PID.TID 0000.0001) 
(PID.TID 0000.0001) // =======================================================
(PID.TID 0000.0001) // Execution Environment parameter file "eedata"
(PID.TID 0000.0001) // =======================================================
(PID.TID 0000.0001) ># Example "eedata" file
(PID.TID 0000.0001) ># Lines beginning "#" are comments
(PID.TID 0000.0001) ># nTx - No. threads per process in X
(PID.TID 0000.0001) ># nTy - No. threads per process in Y
(PID.TID 0000.0001) > &EEPARMS
(PID.TID 0000.0001) > /
(PID.TID 0000.0001) ># Note: Some systems use & as the
(PID.TID 0000.0001) ># namelist terminator. Other systems
(PID.TID 0000.0001) ># use a / character (as shown here).
(PID.TID 0000.0001) 
(PID.TID 0000.0001) // =======================================================
(PID.TID 0000.0001) // Computational Grid Specification ( see files "SIZE.h" )
(PID.TID 0000.0001) //                                  ( and "eedata"       )
(PID.TID 0000.0001) // =======================================================
(PID.TID 0000.0001)      nPx =    1 ; /* No. processes in X */
(PID.TID 0000.0001)      nPy =    1 ; /* No. processes in Y */
(PID.TID 0000.0001)      nSx =    1 ; /* No. tiles in X per process */
(PID.TID 0000.0001)      nSy =    1 ; /* No. tiles in Y per process */
(PID.TID 0000.0001)      sNx =   50 ; /* Tile size in X */
(PID.TID 0000.0001)      sNy =  100 ; /* Tile size in Y */
(PID.TID 0000.0001)      OLx =    3 ; /* Tile overlap distance in X */
(PID.TID 0000.0001)      OLy =    3 ; /* Tile overlap distance in Y */
(PID.TID 0000.0001)      nTx =    1 ; /* No. threads in X per process */
(PID.TID 0000.0001)      nTy =    1 ; /* No. threads in Y per process */
(PID.TID 0000.0001)       Nr =   30 ; /* No. levels in the vertical   */
(PID.TID 0000.0001)       Nx =   50 ; /* Total domain size in X ( = nPx*nSx*sNx ) */
(PID.TID 0000.0001)       Ny =  100 ; /* Total domain size in Y ( = nPy*nSy*sNy ) */
(PID.TID 0000.0001)   nTiles =    1 ; /* Total no. tiles per process ( = nSx*nSy ) */
(PID.TID 0000.0001)   nProcs =    1 ; /* Total no. processes ( = nPx*nPy ) */
(PID.TID 0000.0001) nThreads =    1 ; /* Total no. threads per process ( = nTx*nTy ) */
(PID.TID 0000.0001) usingMPI =    F ; /* Flag used to control whether MPI is in use */
(PID.TID 0000.0001)                   /*  note: To execute a program with MPI calls */
(PID.TID 0000.0001)                   /*  it must be launched appropriately e.g     */
(PID.TID 0000.0001)                   /*  "mpirun -np 64 ......"                    */
(PID.TID 0000.0001) useCoupler=    F ;/* Flag used to control communications with   */
(PID.TID 0000.0001)                   /*  other model components, through a coupler */
(PID.TID 0000.0001) debugMode =    F ; /* print debug msg. (sequence of S/R calls)  */
(PID.TID 0000.0001) printMapIncludesZeros=    F ; /* print zeros in Std.Output maps */
(PID.TID 0000.0001) maxLengthPrt1D=   65 /* maxLength of 1D array printed to StdOut */
(PID.TID 0000.0001) 
(PID.TID 0000.0001) // ======================================================
(PID.TID 0000.0001) // Mapping of tiles to threads
(PID.TID 0000.0001) // ======================================================
(PID.TID 0000.0001) // -o- Thread   1, tiles (   1:   1,   1:   1)
(PID.TID 0000.0001) 
(PID.TID 0000.0001) // ======================================================
(PID.TID 0000.0001) // Tile <-> Tile connectvity table
(PID.TID 0000.0001) // ======================================================
(PID.TID 0000.0001) // Tile number: 000001 (process no. = 000001)
(PID.TID 0000.0001) //        WEST: Tile = 000001, Process = 000001, Comm = put
(PID.TID 0000.0001) //                bi = 000001, bj = 000001
(PID.TID 0000.0001) //        EAST: Tile = 000001, Process = 000001, Comm = put
(PID.TID 0000.0001) //                bi = 000001, bj = 000001
(PID.TID 0000.0001) //       SOUTH: Tile = 000001, Process = 000001, Comm = put
(PID.TID 0000.0001) //                bi = 000001, bj = 000001
(PID.TID 0000.0001) //       NORTH: Tile = 000001, Process = 000001, Comm = put
(PID.TID 0000.0001) //                bi = 000001, bj = 000001
(PID.TID 0000.0001) 
(PID.TID 0000.0001)  INI_PARMS: opening model parameter file "data"
(PID.TID 0000.0001)  OPEN_COPY_DATA_FILE: opening file data
(PID.TID 0000.0001) // =======================================================
(PID.TID 0000.0001) // Parameter file "data"
(PID.TID 0000.0001) // =======================================================
(PID.TID 0000.0001) ># ====================
(PID.TID 0000.0001) ># | Model parameters |
(PID.TID 0000.0001) ># ====================
(PID.TID 0000.0001) >#
(PID.TID 0000.0001) ># Continuous equation parameters
(PID.TID 0000.0001) > &PARM01
(PID.TID 0000.0001) > Tref = 30*-1.9,
(PID.TID 0000.0001) > Sref = 30*34.4,
(PID.TID 0000.0001) > viscAz=1.E-3,
(PID.TID 0000.0001) > viscAh=600.0,
(PID.TID 0000.0001) > no_slip_sides=.FALSE.,
(PID.TID 0000.0001) > no_slip_bottom=.FALSE.,
(PID.TID 0000.0001) > diffKhT=100.0,
(PID.TID 0000.0001) > diffKzT=5.E-5,
(PID.TID 0000.0001) > diffKhS=100.0,
(PID.TID 0000.0001) > diffKzS=5.E-5,
(PID.TID 0000.0001) > bottomDragQuadratic=2.5E-3,
(PID.TID 0000.0001) > eosType='JMD95Z',
(PID.TID 0000.0001) > HeatCapacity_cp = 3974.0,
(PID.TID 0000.0001) > rhoConst=1030.,
(PID.TID 0000.0001) > rhoNil=1030.,
(PID.TID 0000.0001) > gravity=9.81,
(PID.TID 0000.0001) > convertFW2Salt = 33.4,
(PID.TID 0000.0001) > rigidLid=.FALSE.,
(PID.TID 0000.0001) > implicitFreeSurface=.TRUE.,
(PID.TID 0000.0001) > exactConserv=.TRUE.,
(PID.TID 0000.0001) > hFacMin=0.05,
(PID.TID 0000.0001) > nonHydrostatic=.FALSE.,
(PID.TID 0000.0001) > readBinaryPrec=64,
(PID.TID 0000.0001) > useCDScheme = .TRUE.,
(PID.TID 0000.0001) >#ph(
(PID.TID 0000.0001) > implicitDiffusion=.TRUE.,
(PID.TID 0000.0001) ># ivdc_kappa = 7200.,
(PID.TID 0000.0001) > staggerTimeStep=.TRUE.,
(PID.TID 0000.0001) > vectorInvariantMomentum=.TRUE.,
(PID.TID 0000.0001) > nonlinFreeSurf=2,
(PID.TID 0000.0001) ># hFacInf=0.2,
(PID.TID 0000.0001) ># hFacSup=2.0,
(PID.TID 0000.0001) >#ph)
(PID.TID 0000.0001) > /
(PID.TID 0000.0001) >
(PID.TID 0000.0001) ># Elliptic solver parameters
(PID.TID 0000.0001) > &PARM02
(PID.TID 0000.0001) > cg2dMaxIters=1000,
(PID.TID 0000.0001) > cg2dTargetResidual=1.E-13,
(PID.TID 0000.0001) >#ph cg3dMaxIters=400,
(PID.TID 0000.0001) >#ph cg3dTargetResidual=1.E-13,
(PID.TID 0000.0001) > /
(PID.TID 0000.0001) >
(PID.TID 0000.0001) ># Time stepping parameters
(PID.TID 0000.0001) > &PARM03
(PID.TID 0000.0001) > nIter0=8640,
(PID.TID 0000.0001) > nTimeSteps=10,
(PID.TID 0000.0001) > deltaT=1800.0,
(PID.TID 0000.0001) > abEps=0.1,
(PID.TID 0000.0001) > cAdjFreq = 1.,
(PID.TID 0000.0001) > tauCD = 400000.,
(PID.TID 0000.0001) > pChkptFreq=0.0,
(PID.TID 0000.0001) > chkptFreq=0.0,
(PID.TID 0000.0001) > dumpFreq=0.0,
(PID.TID 0000.0001) > taveFreq=0.0,
(PID.TID 0000.0001) > monitorFreq=1.,
(PID.TID 0000.0001) > monitorSelect=2,
(PID.TID 0000.0001) > adjMonitorFreq=1800.,
(PID.TID 0000.0001) > /
(PID.TID 0000.0001) >
(PID.TID 0000.0001) ># Gridding parameters
(PID.TID 0000.0001) > &PARM04
(PID.TID 0000.0001) > usingSphericalPolarGrid=.TRUE.,
(PID.TID 0000.0001) > ygOrigin = -80.0,
(PID.TID 0000.0001) > delX=50*0.3,
(PID.TID 0000.0001) > delY=100*0.1,
(PID.TID 0000.0001) > delZ=30*30.0,
(PID.TID 0000.0001) > /
(PID.TID 0000.0001) >
(PID.TID 0000.0001) ># Input datasets
(PID.TID 0000.0001) > &PARM05
(PID.TID 0000.0001) > bathyFile='bathy.box',
(PID.TID 0000.0001) > /
(PID.TID 0000.0001) 
(PID.TID 0000.0001)  INI_PARMS ; starts to read PARM01
(PID.TID 0000.0001)  INI_PARMS ; read PARM01 : OK
(PID.TID 0000.0001)  INI_PARMS ; starts to read PARM02
(PID.TID 0000.0001)  INI_PARMS ; read PARM02 : OK
(PID.TID 0000.0001)  INI_PARMS ; starts to read PARM03
(PID.TID 0000.0001)  INI_PARMS ; read PARM03 : OK
(PID.TID 0000.0001)  INI_PARMS ; starts to read PARM04
(PID.TID 0000.0001)  INI_PARMS ; read PARM04 : OK
(PID.TID 0000.0001)  INI_PARMS ; starts to read PARM05
(PID.TID 0000.0001)  INI_PARMS ; read PARM05 : OK
(PID.TID 0000.0001)  INI_PARMS: finished reading file "data"
(PID.TID 0000.0001)  PACKAGES_BOOT: opening data.pkg
(PID.TID 0000.0001)  OPEN_COPY_DATA_FILE: opening file data.pkg
(PID.TID 0000.0001) // =======================================================
(PID.TID 0000.0001) // Parameter file "data.pkg"
(PID.TID 0000.0001) // =======================================================
(PID.TID 0000.0001) ># Packages
(PID.TID 0000.0001) > &PACKAGES
(PID.TID 0000.0001) > useMNC=.TRUE.,
(PID.TID 0000.0001) > useShelfIce=.true.,
(PID.TID 0000.0001) > useGrdchk=.TRUE.,
(PID.TID 0000.0001) > /
(PID.TID 0000.0001) 
(PID.TID 0000.0001)  PACKAGES_BOOT: finished reading data.pkg
(PID.TID 0000.0001)  MNC_READPARMS: opening file 'data.mnc'
(PID.TID 0000.0001)  OPEN_COPY_DATA_FILE: opening file data.mnc
(PID.TID 0000.0001) // =======================================================
(PID.TID 0000.0001) // Parameter file "data.mnc"
(PID.TID 0000.0001) // =======================================================
(PID.TID 0000.0001) ># Example "data.mnc" file
(PID.TID 0000.0001) ># Lines beginning "#" are comments
(PID.TID 0000.0001) > &MNC_01
(PID.TID 0000.0001) ># mnc_echo_gvtypes=.FALSE.,
(PID.TID 0000.0001) ># mnc_use_indir=.FALSE.,
(PID.TID 0000.0001) > mnc_use_outdir=.TRUE.,
(PID.TID 0000.0001) > mnc_outdir_str='mnc_test_',
(PID.TID 0000.0001) >#mnc_outdir_date=.TRUE.,
(PID.TID 0000.0001) > monitor_mnc=.FALSE.,
(PID.TID 0000.0001) >#snapshot_mnc=.FALSE.,
(PID.TID 0000.0001) >#timeave_mnc=.FALSE.,
(PID.TID 0000.0001) > pickup_read_mnc=.FALSE.,
(PID.TID 0000.0001) > pickup_write_mnc=.FALSE.,
(PID.TID 0000.0001) > /
(PID.TID 0000.0001) ># Note: Some systems use & as the
(PID.TID 0000.0001) ># namelist terminator. Other systems
(PID.TID 0000.0001) ># use a / character (as shown here).
(PID.TID 0000.0001) 
(PID.TID 0000.0001)  MNC_READPARMS: finished reading data.mnc
(PID.TID 0000.0001)  SHELFICE_READPARMS: opening data.shelfice
(PID.TID 0000.0001)  OPEN_COPY_DATA_FILE: opening file data.shelfice
(PID.TID 0000.0001) // =======================================================
(PID.TID 0000.0001) // Parameter file "data.shelfice"
(PID.TID 0000.0001) // =======================================================
(PID.TID 0000.0001) ># ===================================
(PID.TID 0000.0001) ># | Parameters for SHELFICE package |
(PID.TID 0000.0001) ># ===================================
(PID.TID 0000.0001) > &SHELFICE_PARM01
(PID.TID 0000.0001) > SHELFICEboundaryLayer = .TRUE.,
(PID.TID 0000.0001) > SHELFICEtopoFile='icetopo.exp1',
(PID.TID 0000.0001) > SHELFICEloadAnomalyFile = 'phi0surf.exp1.jmd95z',
(PID.TID 0000.0001) > useISOMIPTD = .FALSE.,
(PID.TID 0000.0001) > no_slip_shelfice = .false.,
(PID.TID 0000.0001) > SHELFICEwriteState = .TRUE.,
(PID.TID 0000.0001) > /
(PID.TID 0000.0001) 
(PID.TID 0000.0001)  SHELFICE_READPARMS: finished reading data.shelfice
(PID.TID 0000.0001) OPTIM_READPARMS: opening data.optim
(PID.TID 0000.0001)  OPEN_COPY_DATA_FILE: opening file data.optim
(PID.TID 0000.0001) // =======================================================
(PID.TID 0000.0001) // Parameter file "data.optim"
(PID.TID 0000.0001) // =======================================================
(PID.TID 0000.0001) > &OPTIM
(PID.TID 0000.0001) > optimcycle=0,
(PID.TID 0000.0001) > /
(PID.TID 0000.0001) 
(PID.TID 0000.0001) OPTIM_READPARMS: finished reading data.optim
(PID.TID 0000.0001) CTRL_READPARMS: opening data.ctrl
(PID.TID 0000.0001)  OPEN_COPY_DATA_FILE: opening file data.ctrl
(PID.TID 0000.0001) // =======================================================
(PID.TID 0000.0001) // Parameter file "data.ctrl"
(PID.TID 0000.0001) // =======================================================
(PID.TID 0000.0001) >#
(PID.TID 0000.0001) >#
(PID.TID 0000.0001) ># *********************
(PID.TID 0000.0001) ># ECCO controlvariables
(PID.TID 0000.0001) ># *********************
(PID.TID 0000.0001) > &CTRL_NML
(PID.TID 0000.0001) > xx_theta_file      ='xx_theta',
(PID.TID 0000.0001) > xx_salt_file       ='xx_salt',
(PID.TID 0000.0001) >#
(PID.TID 0000.0001) > xx_hfluxstartdate1 = 19790101,
(PID.TID 0000.0001) > xx_hfluxstartdate2 = 000000,
(PID.TID 0000.0001) > xx_hfluxperiod     = 864000.0,
(PID.TID 0000.0001) > xx_hflux_file      = 'xx_hfl',
(PID.TID 0000.0001) >#
(PID.TID 0000.0001) > xx_sfluxstartdate1 = 19790101,
(PID.TID 0000.0001) > xx_sfluxstartdate2 = 000000,
(PID.TID 0000.0001) > xx_sfluxperiod     = 864000.0,
(PID.TID 0000.0001) > xx_sflux_file      = 'xx_sfl',
(PID.TID 0000.0001) >#
(PID.TID 0000.0001) > xx_tauustartdate1 = 19790101,
(PID.TID 0000.0001) > xx_tauustartdate2 = 000000,
(PID.TID 0000.0001) > xx_tauuperiod     = 864000.0,
(PID.TID 0000.0001) > xx_tauu_file      = 'xx_tauu',
(PID.TID 0000.0001) >#
(PID.TID 0000.0001) > xx_tauvstartdate1 = 19790101,
(PID.TID 0000.0001) > xx_tauvstartdate2 = 000000,
(PID.TID 0000.0001) > xx_tauvperiod     = 864000.0,
(PID.TID 0000.0001) > xx_tauv_file      = 'xx_tauv',
(PID.TID 0000.0001) >#
(PID.TID 0000.0001) > xx_atempstartdate1 = 19790101,
(PID.TID 0000.0001) > xx_atempstartdate2 = 000000,
(PID.TID 0000.0001) > xx_atempperiod     = 864000.0,
(PID.TID 0000.0001) > xx_atemp_file      = 'xx_atemp',
(PID.TID 0000.0001) >#
(PID.TID 0000.0001) > xx_aqhstartdate1 = 19790101,
(PID.TID 0000.0001) > xx_aqhstartdate2 = 000000,
(PID.TID 0000.0001) > xx_aqhperiod     = 864000.0,
(PID.TID 0000.0001) > xx_aqh_file      = 'xx_aqh',
(PID.TID 0000.0001) >#
(PID.TID 0000.0001) > xx_precipstartdate1 = 19790101,
(PID.TID 0000.0001) > xx_precipstartdate2 = 000000,
(PID.TID 0000.0001) > xx_precipperiod     = 864000.0,
(PID.TID 0000.0001) > xx_precip_file      = 'xx_precip',
(PID.TID 0000.0001) >#
(PID.TID 0000.0001) > xx_swdownstartdate1 = 19790101,
(PID.TID 0000.0001) > xx_swdownstartdate2 = 000000,
(PID.TID 0000.0001) > xx_swdownperiod     = 864000.0,
(PID.TID 0000.0001) > xx_swdown_file      = 'xx_swdown',
(PID.TID 0000.0001) >#
(PID.TID 0000.0001) > xx_uwindstartdate1 = 19790101,
(PID.TID 0000.0001) > xx_uwindstartdate2 = 000000,
(PID.TID 0000.0001) > xx_uwindperiod     = 864000.0,
(PID.TID 0000.0001) > xx_uwind_file      = 'xx_uwind',
(PID.TID 0000.0001) >#
(PID.TID 0000.0001) > xx_vwindstartdate1 = 19790101,
(PID.TID 0000.0001) > xx_vwindstartdate2 = 000000,
(PID.TID 0000.0001) > xx_vwindperiod     = 864000.0,
(PID.TID 0000.0001) > xx_vwind_file      = 'xx_vwind',
(PID.TID 0000.0001) >#
(PID.TID 0000.0001) > xx_sststartdate1 = 19790101,
(PID.TID 0000.0001) > xx_sststartdate2 = 000000,
(PID.TID 0000.0001) > xx_sstperiod     = 864000.0,
(PID.TID 0000.0001) > xx_sst_file      = 'xx_sst',
(PID.TID 0000.0001) >#
(PID.TID 0000.0001) > xx_sssstartdate1 = 19790101,
(PID.TID 0000.0001) > xx_sssstartdate2 = 000000,
(PID.TID 0000.0001) > xx_sssperiod     = 864000.0,
(PID.TID 0000.0001) > xx_sss_file      = 'xx_sss',
(PID.TID 0000.0001) > /
(PID.TID 0000.0001) >#
(PID.TID 0000.0001) ># *********************
(PID.TID 0000.0001) ># names for ctrl_pack/unpack
(PID.TID 0000.0001) ># *********************
(PID.TID 0000.0001) > &CTRL_PACKNAMES
(PID.TID 0000.0001) > /
(PID.TID 0000.0001) 
(PID.TID 0000.0001) CTRL_READPARMS: finished reading data.ctrl
(PID.TID 0000.0001) COST_READPARMS: opening data.cost
(PID.TID 0000.0001)  OPEN_COPY_DATA_FILE: opening file data.cost
(PID.TID 0000.0001) // =======================================================
(PID.TID 0000.0001) // Parameter file "data.cost"
(PID.TID 0000.0001) // =======================================================
(PID.TID 0000.0001) >#
(PID.TID 0000.0001) >#
(PID.TID 0000.0001) ># ******************
(PID.TID 0000.0001) ># cost function
(PID.TID 0000.0001) ># ******************
(PID.TID 0000.0001) > &COST_NML
(PID.TID 0000.0001) >#revert to default 1 month
(PID.TID 0000.0001) ># lastinterval=7776000.,
(PID.TID 0000.0001) > mult_test=1.,
(PID.TID 0000.0001) > /
(PID.TID 0000.0001) 
(PID.TID 0000.0001) COST_READPARMS: finished reading data.cost
(PID.TID 0000.0001) GRDCHK_READPARMS: opening data.grdchk
(PID.TID 0000.0001)  OPEN_COPY_DATA_FILE: opening file data.grdchk
(PID.TID 0000.0001) // =======================================================
(PID.TID 0000.0001) // Parameter file "data.grdchk"
(PID.TID 0000.0001) // =======================================================
(PID.TID 0000.0001) ># *******************
(PID.TID 0000.0001) ># ECCO gradient check
(PID.TID 0000.0001) ># *******************
(PID.TID 0000.0001) > &GRDCHK_NML
(PID.TID 0000.0001) > grdchk_eps       = 1.d-2,
(PID.TID 0000.0001) >  iglopos         = 20,
(PID.TID 0000.0001) >  jglopos         = 24,
(PID.TID 0000.0001) >  kglopos         = 20,
(PID.TID 0000.0001) ># nbeg             = 1,
(PID.TID 0000.0001) > nstep            = 1,
(PID.TID 0000.0001) > nend             = 4,
(PID.TID 0000.0001) > grdchkvarindex   = 1,
(PID.TID 0000.0001) > /
(PID.TID 0000.0001) 
(PID.TID 0000.0001) GRDCHK_READPARMS: finished reading data.grdchk
(PID.TID 0000.0001) 
(PID.TID 0000.0001) // =======================================================
(PID.TID 0000.0001) // Gradient check configuration  >>> START <<<
(PID.TID 0000.0001) // =======================================================
(PID.TID 0000.0001) 
(PID.TID 0000.0001)   eps:                              0.100E-01
(PID.TID 0000.0001)   First location:                           0
(PID.TID 0000.0001)   Last location:                            4
(PID.TID 0000.0001)   Increment:                                1
(PID.TID 0000.0001)   grdchkWhichProc:                          0
(PID.TID 0000.0001)   iLocTile =       1  ,    jLocTile =       1
(PID.TID 0000.0001) 
(PID.TID 0000.0001) // =======================================================
(PID.TID 0000.0001) // Gradient check configuration  >>> END <<<
(PID.TID 0000.0001) // =======================================================
(PID.TID 0000.0001) 
(PID.TID 0000.0001) SET_PARMS: done
(PID.TID 0000.0001) Enter INI_VERTICAL_GRID: setInterFDr=    T ; setCenterDr=    F
(PID.TID 0000.0001) %MON XC_max                       =   1.4850000000000E+01
(PID.TID 0000.0001) %MON XC_min                       =   1.5000000000000E-01
(PID.TID 0000.0001) %MON XC_mean                      =   7.5000000000000E+00
(PID.TID 0000.0001) %MON XC_sd                        =   4.3292609068985E+00
(PID.TID 0000.0001) %MON XG_max                       =   1.4700000000000E+01
(PID.TID 0000.0001) %MON XG_min                       =   1.1102230246252E-16
(PID.TID 0000.0001) %MON XG_mean                      =   7.3500000000000E+00
(PID.TID 0000.0001) %MON XG_sd                        =   4.3292609068985E+00
(PID.TID 0000.0001) %MON DXC_max                      =   1.1380125394806E+04
(PID.TID 0000.0001) %MON DXC_min                      =   5.8203914905589E+03
(PID.TID 0000.0001) %MON DXC_mean                     =   8.6215028627210E+03
(PID.TID 0000.0001) %MON DXC_sd                       =   1.6219001271572E+03
(PID.TID 0000.0001) %MON DXF_max                      =   1.1380125394806E+04
(PID.TID 0000.0001) %MON DXF_min                      =   5.8203914905589E+03
(PID.TID 0000.0001) %MON DXF_mean                     =   8.6215028627210E+03
(PID.TID 0000.0001) %MON DXF_sd                       =   1.6219001271572E+03
(PID.TID 0000.0001) %MON DXG_max                      =   1.1352761512017E+04
(PID.TID 0000.0001) %MON DXG_min                      =   5.7917296935586E+03
(PID.TID 0000.0001) %MON DXG_mean                     =   8.5934208253080E+03
(PID.TID 0000.0001) %MON DXG_sd                       =   1.6222785520817E+03
(PID.TID 0000.0001) %MON DXV_max                      =   1.1352761512017E+04
(PID.TID 0000.0001) %MON DXV_min                      =   5.7917296935586E+03
(PID.TID 0000.0001) %MON DXV_mean                     =   8.5934208253080E+03
(PID.TID 0000.0001) %MON DXV_sd                       =   1.6222785520817E+03
(PID.TID 0000.0001) %MON YC_max                       =  -7.0050000000001E+01
(PID.TID 0000.0001) %MON YC_min                       =  -7.9950000000000E+01
(PID.TID 0000.0001) %MON YC_mean                      =  -7.5000000000000E+01
(PID.TID 0000.0001) %MON YC_sd                        =   2.8866070047720E+00
(PID.TID 0000.0001) %MON YG_max                       =  -7.0100000000001E+01
(PID.TID 0000.0001) %MON YG_min                       =  -8.0000000000000E+01
(PID.TID 0000.0001) %MON YG_mean                      =  -7.5050000000000E+01
(PID.TID 0000.0001) %MON YG_sd                        =   2.8866070047720E+00
(PID.TID 0000.0001) %MON DYC_max                      =   1.1117747335204E+04
(PID.TID 0000.0001) %MON DYC_min                      =   1.1117747335204E+04
(PID.TID 0000.0001) %MON DYC_mean                     =   1.1117747335203E+04
(PID.TID 0000.0001) %MON DYC_sd                       =   7.4760464485735E-10
(PID.TID 0000.0001) %MON DYF_max                      =   1.1117747335204E+04
(PID.TID 0000.0001) %MON DYF_min                      =   1.1117747335204E+04
(PID.TID 0000.0001) %MON DYF_mean                     =   1.1117747335203E+04
(PID.TID 0000.0001) %MON DYF_sd                       =   7.4760464485735E-10
(PID.TID 0000.0001) %MON DYG_max                      =   1.1117747335204E+04
(PID.TID 0000.0001) %MON DYG_min                      =   1.1117747335204E+04
(PID.TID 0000.0001) %MON DYG_mean                     =   1.1117747335203E+04
(PID.TID 0000.0001) %MON DYG_sd                       =   7.4760464485735E-10
(PID.TID 0000.0001) %MON DYU_max                      =   1.1117747335204E+04
(PID.TID 0000.0001) %MON DYU_min                      =   1.1117747335204E+04
(PID.TID 0000.0001) %MON DYU_mean                     =   1.1117747335203E+04
(PID.TID 0000.0001) %MON DYU_sd                       =   7.4760464485735E-10
(PID.TID 0000.0001) %MON RA_max                       =   1.2652134272379E+08
(PID.TID 0000.0001) %MON RA_min                       =   6.4709633770803E+07
(PID.TID 0000.0001) %MON RA_mean                      =   9.5851678311588E+07
(PID.TID 0000.0001) %MON RA_sd                        =   1.8031873527992E+07
(PID.TID 0000.0001) %MON RAW_max                      =   1.2652134272379E+08
(PID.TID 0000.0001) %MON RAW_min                      =   6.4709633770803E+07
(PID.TID 0000.0001) %MON RAW_mean                     =   9.5851678311588E+07
(PID.TID 0000.0001) %MON RAW_sd                       =   1.8031873527992E+07
(PID.TID 0000.0001) %MON RAS_max                      =   1.2621711802744E+08
(PID.TID 0000.0001) %MON RAS_min                      =   6.4390979194019E+07
(PID.TID 0000.0001) %MON RAS_mean                     =   9.5539469354601E+07
(PID.TID 0000.0001) %MON RAS_sd                       =   1.8036080760153E+07
(PID.TID 0000.0001) %MON RAZ_max                      =   1.2621711802744E+08
(PID.TID 0000.0001) %MON RAZ_min                      =   6.4390979194019E+07
(PID.TID 0000.0001) %MON RAZ_mean                     =   9.5539469354601E+07
(PID.TID 0000.0001) %MON RAZ_sd                       =   1.8036080760153E+07
(PID.TID 0000.0001) %MON AngleCS_max                  =   1.0000000000000E+00
(PID.TID 0000.0001) %MON AngleCS_min                  =   1.0000000000000E+00
(PID.TID 0000.0001) %MON AngleCS_mean                 =   1.0000000000000E+00
(PID.TID 0000.0001) %MON AngleCS_sd                   =   0.0000000000000E+00
(PID.TID 0000.0001) %MON AngleSN_max                  =   0.0000000000000E+00
(PID.TID 0000.0001) %MON AngleSN_min                  =   0.0000000000000E+00
(PID.TID 0000.0001) %MON AngleSN_mean                 =   0.0000000000000E+00
(PID.TID 0000.0001) %MON AngleSN_sd                   =   0.0000000000000E+00
(PID.TID 0000.0001) GAD_INIT_FIXED: GAD_OlMinSize=  1  0  1
(PID.TID 0000.0001) 
(PID.TID 0000.0001) // ===================================
(PID.TID 0000.0001) // GAD parameters :
(PID.TID 0000.0001) // ===================================
(PID.TID 0000.0001) tempAdvScheme =   /* Temp. Horiz.Advection scheme selector */
(PID.TID 0000.0001)                       2
(PID.TID 0000.0001)     ;
(PID.TID 0000.0001) tempVertAdvScheme =   /* Temp. Vert. Advection scheme selector */
(PID.TID 0000.0001)                       2
(PID.TID 0000.0001)     ;
(PID.TID 0000.0001) tempMultiDimAdvec =   /* use Muti-Dim Advec method for Temp */
(PID.TID 0000.0001)                   F
(PID.TID 0000.0001)     ;
(PID.TID 0000.0001) tempSOM_Advection = /* use 2nd Order Moment Advection for Temp */
(PID.TID 0000.0001)                   F
(PID.TID 0000.0001)     ;
(PID.TID 0000.0001) AdamsBashforthGt = /* apply Adams-Bashforth extrapolation on Gt */
(PID.TID 0000.0001)                   T
(PID.TID 0000.0001)     ;
(PID.TID 0000.0001) AdamsBashforth_T = /* apply Adams-Bashforth extrapolation on Temp */
(PID.TID 0000.0001)                   F
(PID.TID 0000.0001)     ;
(PID.TID 0000.0001) saltAdvScheme =   /* Salt. Horiz.advection scheme selector */
(PID.TID 0000.0001)                       2
(PID.TID 0000.0001)     ;
(PID.TID 0000.0001) saltVertAdvScheme =   /* Salt. Vert. Advection scheme selector */
(PID.TID 0000.0001)                       2
(PID.TID 0000.0001)     ;
(PID.TID 0000.0001) saltMultiDimAdvec =   /* use Muti-Dim Advec method for Salt */
(PID.TID 0000.0001)                   F
(PID.TID 0000.0001)     ;
(PID.TID 0000.0001) saltSOM_Advection = /* use 2nd Order Moment Advection for Salt */
(PID.TID 0000.0001)                   F
(PID.TID 0000.0001)     ;
(PID.TID 0000.0001) AdamsBashforthGs = /* apply Adams-Bashforth extrapolation on Gs */
(PID.TID 0000.0001)                   T
(PID.TID 0000.0001)     ;
(PID.TID 0000.0001) AdamsBashforth_S = /* apply Adams-Bashforth extrapolation on Salt */
(PID.TID 0000.0001)                   F
(PID.TID 0000.0001)     ;
(PID.TID 0000.0001) // ===================================
(PID.TID 0000.0001) ctrl-wet 1:    nvarlength =       306642
(PID.TID 0000.0001) ctrl-wet 2: surface wet C =            0
(PID.TID 0000.0001) ctrl-wet 3: surface wet W =            0
(PID.TID 0000.0001) ctrl-wet 4: surface wet S =            0
(PID.TID 0000.0001) ctrl-wet 4a:surface wet V =            0
(PID.TID 0000.0001) ctrl-wet 5: 3D wet points =       100597
(PID.TID 0000.0001) ctrl-wet 6: no recs for i =     1           1
(PID.TID 0000.0001) ctrl-wet 6: no recs for i =     2           1
(PID.TID 0000.0001) ctrl-wet 6: no recs for i =     3           0
(PID.TID 0000.0001) ctrl-wet 6: no recs for i =     4           0
(PID.TID 0000.0001) ctrl-wet 6: no recs for i =     5           0
(PID.TID 0000.0001) ctrl-wet 6: no recs for i =     6           0
(PID.TID 0000.0001) ctrl-wet 6: no recs for i =     7           0
(PID.TID 0000.0001) ctrl-wet 6: no recs for i =     8           0
(PID.TID 0000.0001) ctrl-wet 6: no recs for i =     9           0
(PID.TID 0000.0001) ctrl-wet 6: no recs for i =    10           0
(PID.TID 0000.0001) ctrl-wet 6: no recs for i =    11           0
(PID.TID 0000.0001) ctrl-wet 6: no recs for i =    12           0
(PID.TID 0000.0001) ctrl-wet 6: no recs for i =    13           0
(PID.TID 0000.0001) ctrl-wet 6: no recs for i =    14           0
(PID.TID 0000.0001) ctrl-wet 6: no recs for i =    15           1
(PID.TID 0000.0001) ctrl-wet 6: no recs for i =    16           0
(PID.TID 0000.0001) ctrl-wet 6: no recs for i =    17           0
(PID.TID 0000.0001) ctrl-wet 6: no recs for i =    18           0
(PID.TID 0000.0001) ctrl-wet 6: no recs for i =    19           0
(PID.TID 0000.0001) ctrl-wet 6: no recs for i =    20           0
(PID.TID 0000.0001) ctrl-wet 6: no recs for i =    21           0
(PID.TID 0000.0001) ctrl-wet 6: no recs for i =    22           0
(PID.TID 0000.0001) ctrl-wet 6: no recs for i =    23           0
(PID.TID 0000.0001) ctrl-wet 6: no recs for i =    24           0
(PID.TID 0000.0001) ctrl-wet 6: no recs for i =    25           0
(PID.TID 0000.0001) ctrl-wet 6: no recs for i =    26           0
(PID.TID 0000.0001) ctrl-wet 6: no recs for i =    27           0
(PID.TID 0000.0001) ctrl-wet 6: no recs for i =    28           0
(PID.TID 0000.0001) ctrl-wet 6: no recs for i =    29           0
(PID.TID 0000.0001) ctrl-wet 6: no recs for i =    30           0
(PID.TID 0000.0001) ctrl-wet 6: no recs for i =    31           0
(PID.TID 0000.0001) ctrl-wet 6: no recs for i =    32           0
(PID.TID 0000.0001) ctrl-wet 6: no recs for i =    33           0
(PID.TID 0000.0001) ctrl-wet 6: no recs for i =    34           0
(PID.TID 0000.0001) ctrl-wet 6: no recs for i =    35           0
(PID.TID 0000.0001) ctrl-wet 6: no recs for i =    36           0
(PID.TID 0000.0001) ctrl-wet 6: no recs for i =    37           0
(PID.TID 0000.0001) ctrl-wet 6: no recs for i =    38           0
(PID.TID 0000.0001) ctrl-wet 6: no recs for i =    39           0
(PID.TID 0000.0001) ctrl-wet 6: no recs for i =    40           0
(PID.TID 0000.0001) ctrl-wet 6: no recs for i =    41           0
(PID.TID 0000.0001) ctrl-wet 6: no recs for i =    42           0
(PID.TID 0000.0001) ctrl-wet 6: no recs for i =    43           0
(PID.TID 0000.0001) ctrl-wet 6: no recs for i =    44           0
(PID.TID 0000.0001) ctrl-wet 6: no recs for i =    45           1
(PID.TID 0000.0001) ctrl-wet 6: no recs for i =    46           0
(PID.TID 0000.0001) ctrl-wet 6: no recs for i =    47           0
(PID.TID 0000.0001) ctrl-wet 6: no recs for i =    48           0
(PID.TID 0000.0001) ctrl-wet 6: no recs for i =    49           0
(PID.TID 0000.0001) ctrl-wet 6: no recs for i =    50           0
(PID.TID 0000.0001) ctrl-wet 6: no recs for i =    51           0
(PID.TID 0000.0001) ctrl-wet 6: no recs for i =    52           0
(PID.TID 0000.0001) ctrl-wet 6: no recs for i =    53           0
(PID.TID 0000.0001) ctrl-wet 6: no recs for i =    54           0
(PID.TID 0000.0001) ctrl-wet 6: no recs for i =    55           0
(PID.TID 0000.0001) ctrl-wet 6: no recs for i =    56           0
(PID.TID 0000.0001) ctrl-wet 6: no recs for i =    57           0
(PID.TID 0000.0001) ctrl-wet 6: no recs for i =    58           0
(PID.TID 0000.0001) ctrl-wet 6: no recs for i =    59           0
(PID.TID 0000.0001) ctrl-wet 6: no recs for i =    60           0
(PID.TID 0000.0001) ctrl-wet 7: flux        201194
(PID.TID 0000.0001) ctrl-wet 8: atmos       201194
(PID.TID 0000.0001) ctrl-wet -------------------------------------------------
(PID.TID 0000.0001) ctrl-wet 13: global nvarlength for Nr =   30      306642
(PID.TID 0000.0001) ctrl-wet -------------------------------------------------
(PID.TID 0000.0001) ctrl-wet 14: global nWet C/S/W/V k=    1           0           0           0           0
(PID.TID 0000.0001) ctrl-wet 14: global nWet C/S/W/V k=    2           0           0           0           0
(PID.TID 0000.0001) ctrl-wet 14: global nWet C/S/W/V k=    3           0           0           0           0
(PID.TID 0000.0001) ctrl-wet 14: global nWet C/S/W/V k=    4           0           0           0           0
(PID.TID 0000.0001) ctrl-wet 14: global nWet C/S/W/V k=    5           0           0           0           0
(PID.TID 0000.0001) ctrl-wet 14: global nWet C/S/W/V k=    6           0           0           0           0
(PID.TID 0000.0001) ctrl-wet 14: global nWet C/S/W/V k=    7        2989        2940        2928           0
(PID.TID 0000.0001) ctrl-wet 14: global nWet C/S/W/V k=    8        3087        3038        3024           0
(PID.TID 0000.0001) ctrl-wet 14: global nWet C/S/W/V k=    9        3234        3185        3168           0
(PID.TID 0000.0001) ctrl-wet 14: global nWet C/S/W/V k=   10        3332        3283        3264           0
(PID.TID 0000.0001) ctrl-wet 14: global nWet C/S/W/V k=   11        3430        3381        3360           0
(PID.TID 0000.0001) ctrl-wet 14: global nWet C/S/W/V k=   12        3577        3528        3504           0
(PID.TID 0000.0001) ctrl-wet 14: global nWet C/S/W/V k=   13        3675        3626        3600           0
(PID.TID 0000.0001) ctrl-wet 14: global nWet C/S/W/V k=   14        3822        3773        3744           0
(PID.TID 0000.0001) ctrl-wet 14: global nWet C/S/W/V k=   15        3920        3871        3840           0
(PID.TID 0000.0001) ctrl-wet 14: global nWet C/S/W/V k=   16        4018        3969        3936           0
(PID.TID 0000.0001) ctrl-wet 14: global nWet C/S/W/V k=   17        4165        4116        4080           0
(PID.TID 0000.0001) ctrl-wet 14: global nWet C/S/W/V k=   18        4263        4214        4176           0
(PID.TID 0000.0001) ctrl-wet 14: global nWet C/S/W/V k=   19        4410        4361        4320           0
(PID.TID 0000.0001) ctrl-wet 14: global nWet C/S/W/V k=   20        4508        4459        4416           0
(PID.TID 0000.0001) ctrl-wet 14: global nWet C/S/W/V k=   21        4606        4557        4512           0
(PID.TID 0000.0001) ctrl-wet 14: global nWet C/S/W/V k=   22        4753        4704        4656           0
(PID.TID 0000.0001) ctrl-wet 14: global nWet C/S/W/V k=   23        4851        4802        4752           0
(PID.TID 0000.0001) ctrl-wet 14: global nWet C/S/W/V k=   24        4851        4802        4752           0
(PID.TID 0000.0001) ctrl-wet 14: global nWet C/S/W/V k=   25        4851        4802        4752           0
(PID.TID 0000.0001) ctrl-wet 14: global nWet C/S/W/V k=   26        4851        4802        4752           0
(PID.TID 0000.0001) ctrl-wet 14: global nWet C/S/W/V k=   27        4851        4802        4752           0
(PID.TID 0000.0001) ctrl-wet 14: global nWet C/S/W/V k=   28        4851        4802        4752           0
(PID.TID 0000.0001) ctrl-wet 14: global nWet C/S/W/V k=   29        4851        4802        4752           0
(PID.TID 0000.0001) ctrl-wet 14: global nWet C/S/W/V k=   30        4851        4802        4752           0
(PID.TID 0000.0001) ctrl-wet -------------------------------------------------
(PID.TID 0000.0001) ctrl-wet -------------------------------------------------
(PID.TID 0000.0001) ctrl-wet -------------------------------------------------
(PID.TID 0000.0001) ctrl-wet 17a:surface wet I =         4851
(PID.TID 0000.0001) ctrl-wet 17b: global nWet I k=    1        4851
(PID.TID 0000.0001) ctrl-wet 17b: global nWet I k=    2           0
(PID.TID 0000.0001) ctrl-wet 17b: global nWet I k=    3           0
(PID.TID 0000.0001) ctrl-wet 17b: global nWet I k=    4           0
(PID.TID 0000.0001) ctrl-wet 17b: global nWet I k=    5           0
(PID.TID 0000.0001) ctrl-wet 17b: global nWet I k=    6           0
(PID.TID 0000.0001) ctrl-wet 17b: global nWet I k=    7        2989
(PID.TID 0000.0001) ctrl-wet 17b: global nWet I k=    8        3087
(PID.TID 0000.0001) ctrl-wet 17b: global nWet I k=    9        3234
(PID.TID 0000.0001) ctrl-wet 17b: global nWet I k=   10        3332
(PID.TID 0000.0001) ctrl-wet 17b: global nWet I k=   11        3430
(PID.TID 0000.0001) ctrl-wet 17b: global nWet I k=   12        3577
(PID.TID 0000.0001) ctrl-wet 17b: global nWet I k=   13        3675
(PID.TID 0000.0001) ctrl-wet 17b: global nWet I k=   14        3822
(PID.TID 0000.0001) ctrl-wet 17b: global nWet I k=   15        3920
(PID.TID 0000.0001) ctrl-wet 17b: global nWet I k=   16        4018
(PID.TID 0000.0001) ctrl-wet 17b: global nWet I k=   17        4165
(PID.TID 0000.0001) ctrl-wet 17b: global nWet I k=   18        4263
(PID.TID 0000.0001) ctrl-wet 17b: global nWet I k=   19        4410
(PID.TID 0000.0001) ctrl-wet 17b: global nWet I k=   20        4508
(PID.TID 0000.0001) ctrl-wet 17b: global nWet I k=   21        4606
(PID.TID 0000.0001) ctrl-wet 17b: global nWet I k=   22        4753
(PID.TID 0000.0001) ctrl-wet 17b: global nWet I k=   23        4851
(PID.TID 0000.0001) ctrl-wet 17b: global nWet I k=   24        4851
(PID.TID 0000.0001) ctrl-wet 17b: global nWet I k=   25        4851
(PID.TID 0000.0001) ctrl-wet 17b: global nWet I k=   26        4851
(PID.TID 0000.0001) ctrl-wet 17b: global nWet I k=   27        4851
(PID.TID 0000.0001) ctrl-wet 17b: global nWet I k=   28        4851
(PID.TID 0000.0001) ctrl-wet 17b: global nWet I k=   29        4851
(PID.TID 0000.0001) ctrl-wet 17b: global nWet I k=   30        4851
(PID.TID 0000.0001) ctrl-wet 17c: global SUM(K) shifwflx         4851
(PID.TID 0000.0001) ctrl-wet -------------------------------------------------
(PID.TID 0000.0001) ctrl_init: no. of control variables:            4
(PID.TID 0000.0001) ctrl_init: control vector length:          306642
(PID.TID 0000.0001) %MON fCori_max                    =  -1.3709057042516E-04
(PID.TID 0000.0001) %MON fCori_min                    =  -1.4360464034757E-04
(PID.TID 0000.0001) %MON fCori_mean                   =  -1.4069429304699E-04
(PID.TID 0000.0001) %MON fCori_sd                     =   1.9069739624987E-06
(PID.TID 0000.0001) %MON fCoriG_max                   =  -1.3713394327439E-04
(PID.TID 0000.0001) %MON fCoriG_min                   =  -1.4362679550910E-04
(PID.TID 0000.0001) %MON fCoriG_mean                  =  -1.4072713798624E-04
(PID.TID 0000.0001) %MON fCoriG_sd                    =   1.9008093726821E-06
(PID.TID 0000.0001) %MON fCoriCos_max                 =   4.9761447480159E-05
(PID.TID 0000.0001) %MON fCoriCos_min                 =   2.5450607565678E-05
(PID.TID 0000.0001) %MON fCoriCos_mean                =   3.7698922201606E-05
(PID.TID 0000.0001) %MON fCoriCos_sd                  =   7.0920218535055E-06
(PID.TID 0000.0001) INI_CG2D: CG2D normalisation factor =  1.0404366262810520E-03
(PID.TID 0000.0001) 
(PID.TID 0000.0001) // =======================================================
(PID.TID 0000.0001) // Model configuration
(PID.TID 0000.0001) // =======================================================
(PID.TID 0000.0001) //
(PID.TID 0000.0001) // "Physical" paramters ( PARM01 in namelist )
(PID.TID 0000.0001) //
(PID.TID 0000.0001) buoyancyRelation = /* Type of relation to get Buoyancy */
(PID.TID 0000.0001)               'OCEANIC'
(PID.TID 0000.0001)     ;
(PID.TID 0000.0001) fluidIsAir   =  /* fluid major constituent is Air */
(PID.TID 0000.0001)                   F
(PID.TID 0000.0001)     ;
(PID.TID 0000.0001) fluidIsWater =  /* fluid major constituent is Water */
(PID.TID 0000.0001)                   T
(PID.TID 0000.0001)     ;
(PID.TID 0000.0001) usingPCoords =  /* use p (or p*) vertical coordinate */
(PID.TID 0000.0001)                   F
(PID.TID 0000.0001)     ;
(PID.TID 0000.0001) usingZCoords =  /* use z (or z*) vertical coordinate */
(PID.TID 0000.0001)                   T
(PID.TID 0000.0001)     ;
(PID.TID 0000.0001) tRef =   /* Reference temperature profile ( oC or K ) */
(PID.TID 0000.0001)    30 @ -1.900000000000000E+00              /* K =  1: 30 */
(PID.TID 0000.0001)     ;
(PID.TID 0000.0001) sRef =   /* Reference salinity profile ( psu ) */
(PID.TID 0000.0001)    30 @  3.440000000000000E+01              /* K =  1: 30 */
(PID.TID 0000.0001)     ;
(PID.TID 0000.0001) viscAh  =   /* Lateral eddy viscosity ( m^2/s ) */
(PID.TID 0000.0001)                 6.000000000000000E+02
(PID.TID 0000.0001)     ;
(PID.TID 0000.0001) viscAhMax = /* Maximum lateral eddy viscosity ( m^2/s ) */
(PID.TID 0000.0001)                 1.000000000000000E+21
(PID.TID 0000.0001)     ;
(PID.TID 0000.0001) viscAhGrid = /* Grid dependent lateral eddy viscosity ( non-dim. ) */
(PID.TID 0000.0001)                 0.000000000000000E+00
(PID.TID 0000.0001)     ;
(PID.TID 0000.0001) useFullLeith = /* Use Full Form of Leith Viscosity on/off flag*/
(PID.TID 0000.0001)                   F
(PID.TID 0000.0001)     ;
(PID.TID 0000.0001) useStrainTensionVisc= /* Use StrainTension Form of Viscous Operator flag*/
(PID.TID 0000.0001)                   F
(PID.TID 0000.0001)     ;
(PID.TID 0000.0001) useAreaViscLength = /* Use area for visc length instead of geom. mean*/
(PID.TID 0000.0001)                   F
(PID.TID 0000.0001)     ;
(PID.TID 0000.0001) viscC2leith = /* Leith harmonic visc. factor (on grad(vort),non-dim.) */
(PID.TID 0000.0001)                 0.000000000000000E+00
(PID.TID 0000.0001)     ;
(PID.TID 0000.0001) viscC2leithD = /* Leith harmonic viscosity factor (on grad(div),non-dim.)*/
(PID.TID 0000.0001)                 0.000000000000000E+00
(PID.TID 0000.0001)     ;
(PID.TID 0000.0001) viscC2smag = /* Smagorinsky harmonic viscosity factor (non-dim.) */
(PID.TID 0000.0001)                 0.000000000000000E+00
(PID.TID 0000.0001)     ;
(PID.TID 0000.0001) viscA4  =   /* Lateral biharmonic viscosity ( m^4/s ) */
(PID.TID 0000.0001)                 0.000000000000000E+00
(PID.TID 0000.0001)     ;
(PID.TID 0000.0001) viscA4Max = /* Maximum biharmonic viscosity ( m^2/s ) */
(PID.TID 0000.0001)                 1.000000000000000E+21
(PID.TID 0000.0001)     ;
(PID.TID 0000.0001) viscA4Grid = /* Grid dependent biharmonic viscosity ( non-dim. ) */
(PID.TID 0000.0001)                 0.000000000000000E+00
(PID.TID 0000.0001)     ;
(PID.TID 0000.0001) viscC4leith = /* Leith biharm viscosity factor (on grad(vort), non-dim.)*/
(PID.TID 0000.0001)                 0.000000000000000E+00
(PID.TID 0000.0001)     ;
(PID.TID 0000.0001) viscC4leithD = /* Leith biharm viscosity factor (on grad(div), non-dim.) */
(PID.TID 0000.0001)                 0.000000000000000E+00
(PID.TID 0000.0001)     ;
(PID.TID 0000.0001) viscC4Smag = /* Smagorinsky biharm viscosity factor (non-dim) */
(PID.TID 0000.0001)                 0.000000000000000E+00
(PID.TID 0000.0001)     ;
(PID.TID 0000.0001) no_slip_sides =  /* Viscous BCs: No-slip sides */
(PID.TID 0000.0001)                   F
(PID.TID 0000.0001)     ;
(PID.TID 0000.0001) sideDragFactor = /* side-drag scaling factor (non-dim) */
(PID.TID 0000.0001)                 2.000000000000000E+00
(PID.TID 0000.0001)     ;
(PID.TID 0000.0001) viscArNr = /* vertical profile of vertical viscosity ( m^2/s )*/
(PID.TID 0000.0001)    30 @  1.000000000000000E-03              /* K =  1: 30 */
(PID.TID 0000.0001)     ;
(PID.TID 0000.0001) no_slip_bottom =  /* Viscous BCs: No-slip bottom */
(PID.TID 0000.0001)                   F
(PID.TID 0000.0001)     ;
(PID.TID 0000.0001) bottomDragLinear = /* linear bottom-drag coefficient ( m/s ) */
(PID.TID 0000.0001)                 0.000000000000000E+00
(PID.TID 0000.0001)     ;
(PID.TID 0000.0001) bottomDragQuadratic = /* quadratic bottom-drag coefficient (-) */
(PID.TID 0000.0001)                 2.500000000000000E-03
(PID.TID 0000.0001)     ;
(PID.TID 0000.0001) diffKhT =   /* Laplacian diffusion of heat laterally ( m^2/s ) */
(PID.TID 0000.0001)                 1.000000000000000E+02
(PID.TID 0000.0001)     ;
(PID.TID 0000.0001) diffK4T =   /* Biharmonic diffusion of heat laterally ( m^4/s ) */
(PID.TID 0000.0001)                 0.000000000000000E+00
(PID.TID 0000.0001)     ;
(PID.TID 0000.0001) diffKhS =   /* Laplacian diffusion of salt laterally ( m^2/s ) */
(PID.TID 0000.0001)                 1.000000000000000E+02
(PID.TID 0000.0001)     ;
(PID.TID 0000.0001) diffK4S =   /* Biharmonic diffusion of salt laterally ( m^4/s ) */
(PID.TID 0000.0001)                 0.000000000000000E+00
(PID.TID 0000.0001)     ;
(PID.TID 0000.0001) diffKrNrT = /* vertical profile of vertical diffusion of Temp ( m^2/s )*/
(PID.TID 0000.0001)    30 @  5.000000000000000E-05              /* K =  1: 30 */
(PID.TID 0000.0001)     ;
(PID.TID 0000.0001) diffKrNrS = /* vertical profile of vertical diffusion of Salt ( m^2/s )*/
(PID.TID 0000.0001)    30 @  5.000000000000000E-05              /* K =  1: 30 */
(PID.TID 0000.0001)     ;
(PID.TID 0000.0001) diffKrBL79surf = /* Surface diffusion for Bryan and Lewis 79 ( m^2/s ) */
(PID.TID 0000.0001)                 0.000000000000000E+00
(PID.TID 0000.0001)     ;
(PID.TID 0000.0001) diffKrBL79deep = /* Deep diffusion for Bryan and Lewis 1979 ( m^2/s ) */
(PID.TID 0000.0001)                 0.000000000000000E+00
(PID.TID 0000.0001)     ;
(PID.TID 0000.0001) diffKrBL79scl = /* Depth scale for Bryan and Lewis 1979 ( m ) */
(PID.TID 0000.0001)                 2.000000000000000E+02
(PID.TID 0000.0001)     ;
(PID.TID 0000.0001) diffKrBL79Ho = /* Turning depth for Bryan and Lewis 1979 ( m ) */
(PID.TID 0000.0001)                -2.000000000000000E+03
(PID.TID 0000.0001)     ;
(PID.TID 0000.0001) ivdc_kappa = /* Implicit Vertical Diffusivity for Convection ( m^2/s) */
(PID.TID 0000.0001)                 0.000000000000000E+00
(PID.TID 0000.0001)     ;
(PID.TID 0000.0001) hMixCriteria=  /* Criteria for mixed-layer diagnostic */
(PID.TID 0000.0001)                -8.000000000000000E-01
(PID.TID 0000.0001)     ;
(PID.TID 0000.0001) dRhoSmall =  /* Parameter for mixed-layer diagnostic */
(PID.TID 0000.0001)                 1.000000000000000E-06
(PID.TID 0000.0001)     ;
(PID.TID 0000.0001) hMixSmooth=  /* Smoothing parameter for mixed-layer diagnostic */
(PID.TID 0000.0001)                 0.000000000000000E+00
(PID.TID 0000.0001)     ;
(PID.TID 0000.0001) eosType =  /* Type of Equation of State */
(PID.TID 0000.0001)               'JMD95Z'
(PID.TID 0000.0001)     ;
(PID.TID 0000.0001) celsius2K = /* 0 degree Celsius converted to Kelvin ( K ) */
(PID.TID 0000.0001)                 2.731500000000000E+02
(PID.TID 0000.0001)     ;
(PID.TID 0000.0001) rhoConst  = /* Reference density (Boussinesq)  ( kg/m^3 ) */
(PID.TID 0000.0001)                 1.030000000000000E+03
(PID.TID 0000.0001)     ;
(PID.TID 0000.0001) rhoFacC = /* normalized Reference density @ cell-Center (-) */
(PID.TID 0000.0001)    30 @  1.000000000000000E+00              /* K =  1: 30 */
(PID.TID 0000.0001)     ;
(PID.TID 0000.0001) rhoFacF = /* normalized Reference density @ W-Interface (-) */
(PID.TID 0000.0001)    31 @  1.000000000000000E+00              /* K =  1: 31 */
(PID.TID 0000.0001)     ;
(PID.TID 0000.0001) rhoConstFresh = /* Fresh-water reference density ( kg/m^3 ) */
(PID.TID 0000.0001)                 1.030000000000000E+03
(PID.TID 0000.0001)     ;
(PID.TID 0000.0001) gravity =   /* Gravitational acceleration ( m/s^2 ) */
(PID.TID 0000.0001)                 9.810000000000000E+00
(PID.TID 0000.0001)     ;
(PID.TID 0000.0001) gBaro =   /* Barotropic gravity ( m/s^2 ) */
(PID.TID 0000.0001)                 9.810000000000000E+00
(PID.TID 0000.0001)     ;
(PID.TID 0000.0001) rotationPeriod =   /* Rotation Period ( s ) */
(PID.TID 0000.0001)                 8.616400000000000E+04
(PID.TID 0000.0001)     ;
(PID.TID 0000.0001) omega =   /* Angular velocity ( rad/s ) */
(PID.TID 0000.0001)                 7.292123516990375E-05
(PID.TID 0000.0001)     ;
(PID.TID 0000.0001) f0 =   /* Reference coriolis parameter ( 1/s ) */
(PID.TID 0000.0001)                 1.000000000000000E-04
(PID.TID 0000.0001)     ;
(PID.TID 0000.0001) beta =   /* Beta ( 1/(m.s) ) */
(PID.TID 0000.0001)                 9.999999999999999E-12
(PID.TID 0000.0001)     ;
(PID.TID 0000.0001) fPrime =   /* Second coriolis parameter ( 1/s ) */
(PID.TID 0000.0001)                 0.000000000000000E+00
(PID.TID 0000.0001)     ;
(PID.TID 0000.0001) rigidLid =   /* Rigid lid on/off flag */
(PID.TID 0000.0001)                   F
(PID.TID 0000.0001)     ;
(PID.TID 0000.0001) implicitFreeSurface =   /* Implicit free surface on/off flag */
(PID.TID 0000.0001)                   T
(PID.TID 0000.0001)     ;
(PID.TID 0000.0001) freeSurfFac =   /* Implicit free surface factor */
(PID.TID 0000.0001)                 1.000000000000000E+00
(PID.TID 0000.0001)     ;
(PID.TID 0000.0001) implicSurfPress =  /* Surface Pressure implicit factor (0-1)*/
(PID.TID 0000.0001)                 1.000000000000000E+00
(PID.TID 0000.0001)     ;
(PID.TID 0000.0001) implicDiv2Dflow =  /* Barot. Flow Div. implicit factor (0-1)*/
(PID.TID 0000.0001)                 1.000000000000000E+00
(PID.TID 0000.0001)     ;
(PID.TID 0000.0001) uniformLin_PhiSurf = /* use uniform Bo_surf on/off flag*/
(PID.TID 0000.0001)                   T
(PID.TID 0000.0001)     ;
(PID.TID 0000.0001) uniformFreeSurfLev = /* free-surface level-index is uniform */
(PID.TID 0000.0001)                   F
(PID.TID 0000.0001)     ;
(PID.TID 0000.0001) hFacMin =   /* minimum partial cell factor (hFac) */
(PID.TID 0000.0001)                 5.000000000000000E-02
(PID.TID 0000.0001)     ;
(PID.TID 0000.0001) hFacMinDr = /* minimum partial cell thickness ( m) */
(PID.TID 0000.0001)                 5.000000000000000E-02
(PID.TID 0000.0001)     ;
(PID.TID 0000.0001) exactConserv =  /* Exact Volume Conservation on/off flag*/
(PID.TID 0000.0001)                   T
(PID.TID 0000.0001)     ;
(PID.TID 0000.0001) linFSConserveTr = /* Tracer correction for Lin Free Surface on/off flag*/
(PID.TID 0000.0001)                   F
(PID.TID 0000.0001)     ;
(PID.TID 0000.0001) nonlinFreeSurf = /* Non-linear Free Surf. options (-1,0,1,2,3)*/
(PID.TID 0000.0001)                       2
(PID.TID 0000.0001)      -1,0= Off ; 1,2,3= On, 2=+rescale gU,gV, 3=+update cg2d solv.
(PID.TID 0000.0001)     ;
(PID.TID 0000.0001) hFacInf =   /* lower threshold for hFac (nonlinFreeSurf only)*/
(PID.TID 0000.0001)                 2.000000000000000E-01
(PID.TID 0000.0001)     ;
(PID.TID 0000.0001) hFacSup =   /* upper threshold for hFac (nonlinFreeSurf only)*/
(PID.TID 0000.0001)                 2.000000000000000E+00
(PID.TID 0000.0001)     ;
(PID.TID 0000.0001) select_rStar = /* r* Vertical coord. options (=0 r coord.; >0 uses r*)*/
(PID.TID 0000.0001)                       0
(PID.TID 0000.0001)     ;
(PID.TID 0000.0001) useRealFreshWaterFlux = /* Real Fresh Water Flux on/off flag*/
(PID.TID 0000.0001)                   F
(PID.TID 0000.0001)     ;
(PID.TID 0000.0001) temp_EvPrRn = /* Temp. of Evap/Prec/R (UNSET=use local T)(oC)*/
(PID.TID 0000.0001)                 1.234567000000000E+05
(PID.TID 0000.0001)     ;
(PID.TID 0000.0001) salt_EvPrRn = /* Salin. of Evap/Prec/R (UNSET=use local S)(psu)*/
(PID.TID 0000.0001)                 0.000000000000000E+00
(PID.TID 0000.0001)     ;
(PID.TID 0000.0001) selectAddFluid = /* option for mass source/sink of fluid (=0: off) */
(PID.TID 0000.0001)                       0
(PID.TID 0000.0001)     ;
(PID.TID 0000.0001) temp_addMass = /* Temp. of addMass array (UNSET=use local T)(oC)*/
(PID.TID 0000.0001)                 1.234567000000000E+05
(PID.TID 0000.0001)     ;
(PID.TID 0000.0001) salt_addMass = /* Salin. of addMass array (UNSET=use local S)(psu)*/
(PID.TID 0000.0001)                 0.000000000000000E+00
(PID.TID 0000.0001)     ;
(PID.TID 0000.0001) convertFW2Salt = /* convert F.W. Flux to Salt Flux (-1=use local S)(psu)*/
(PID.TID 0000.0001)                 3.340000000000000E+01
(PID.TID 0000.0001)     ;
(PID.TID 0000.0001) use3Dsolver = /* use 3-D pressure solver on/off flag */
(PID.TID 0000.0001)                   F
(PID.TID 0000.0001)     ;
(PID.TID 0000.0001) nonHydrostatic =  /* Non-Hydrostatic on/off flag */
(PID.TID 0000.0001)                   F
(PID.TID 0000.0001)     ;
(PID.TID 0000.0001) nh_Am2 = /* Non-Hydrostatic terms scaling factor */
(PID.TID 0000.0001)                 1.000000000000000E+00
(PID.TID 0000.0001)     ;
(PID.TID 0000.0001) implicitNHPress = /* Non-Hyd Pressure implicit factor (0-1)*/
(PID.TID 0000.0001)                 1.000000000000000E+00
(PID.TID 0000.0001)     ;
(PID.TID 0000.0001) selectNHfreeSurf = /* Non-Hyd (free-)Surface option */
(PID.TID 0000.0001)                       0
(PID.TID 0000.0001)     ;
(PID.TID 0000.0001) quasiHydrostatic = /* Quasi-Hydrostatic on/off flag */
(PID.TID 0000.0001)                   F
(PID.TID 0000.0001)     ;
(PID.TID 0000.0001) calc_wVelocity = /* vertical velocity calculation on/off flag */
(PID.TID 0000.0001)                   T
(PID.TID 0000.0001)     ;
(PID.TID 0000.0001) momStepping =  /* Momentum equation on/off flag */
(PID.TID 0000.0001)                   T
(PID.TID 0000.0001)     ;
(PID.TID 0000.0001) vectorInvariantMomentum= /* Vector-Invariant Momentum on/off */
(PID.TID 0000.0001)                   T
(PID.TID 0000.0001)     ;
(PID.TID 0000.0001) momAdvection =  /* Momentum advection on/off flag */
(PID.TID 0000.0001)                   T
(PID.TID 0000.0001)     ;
(PID.TID 0000.0001) momViscosity =  /* Momentum viscosity on/off flag */
(PID.TID 0000.0001)                   T
(PID.TID 0000.0001)     ;
(PID.TID 0000.0001) momImplVertAdv= /* Momentum implicit vert. advection on/off*/
(PID.TID 0000.0001)                   F
(PID.TID 0000.0001)     ;
(PID.TID 0000.0001) implicitViscosity = /* Implicit viscosity on/off flag */
(PID.TID 0000.0001)                   F
(PID.TID 0000.0001)     ;
(PID.TID 0000.0001) metricTerms =  /* metric-Terms on/off flag */
(PID.TID 0000.0001)                   T
(PID.TID 0000.0001)     ;
(PID.TID 0000.0001) useNHMTerms = /* Non-Hydrostatic Metric-Terms on/off */
(PID.TID 0000.0001)                   F
(PID.TID 0000.0001)     ;
(PID.TID 0000.0001) selectCoriMap = /* Coriolis Map options (0,1,2,3)*/
(PID.TID 0000.0001)                       2
(PID.TID 0000.0001)     0= f-Plane ; 1= Beta-Plane ; 2= Spherical ; 3= read from file
(PID.TID 0000.0001)     ;
(PID.TID 0000.0001) use3dCoriolis = /* 3-D Coriolis on/off flag */
(PID.TID 0000.0001)                   F
(PID.TID 0000.0001)     ;
(PID.TID 0000.0001) useCoriolis =  /* Coriolis on/off flag */
(PID.TID 0000.0001)                   T
(PID.TID 0000.0001)     ;
(PID.TID 0000.0001) useCDscheme =  /* CD scheme on/off flag */
(PID.TID 0000.0001)                   T
(PID.TID 0000.0001)     ;
(PID.TID 0000.0001) useEnergyConservingCoriolis= /* Flx-Form Coriolis scheme flag */
(PID.TID 0000.0001)                   F
(PID.TID 0000.0001)     ;
(PID.TID 0000.0001) useJamartWetPoints= /* Coriolis WetPoints method flag */
(PID.TID 0000.0001)                   F
(PID.TID 0000.0001)     ;
(PID.TID 0000.0001) useJamartMomAdv= /* V.I Non-linear terms Jamart flag */
(PID.TID 0000.0001)                   F
(PID.TID 0000.0001)     ;
(PID.TID 0000.0001) useAbsVorticity= /* V.I Works with f+zeta in Coriolis */
(PID.TID 0000.0001)                   F
(PID.TID 0000.0001)     ;
(PID.TID 0000.0001) selectVortScheme= /* V.I Scheme selector for Vorticity-Term */
(PID.TID 0000.0001)                       1
(PID.TID 0000.0001)    = 0 : enstrophy (Shallow-Water Eq.) conserving scheme by Sadourny, JAS 75
(PID.TID 0000.0001)    = 1 : same as 0 with modified hFac
(PID.TID 0000.0001)    = 2 : energy conserving scheme (used by Sadourny in JAS 75 paper)
(PID.TID 0000.0001)    = 3 : energy (general) and enstrophy (2D, nonDiv.) conserving scheme
(PID.TID 0000.0001)          from Sadourny (Burridge & Haseler, ECMWF Rep.4, 1977)
(PID.TID 0000.0001)     ;
(PID.TID 0000.0001) upwindVorticity= /* V.I Upwind bias vorticity flag */
(PID.TID 0000.0001)                   F
(PID.TID 0000.0001)     ;
(PID.TID 0000.0001) highOrderVorticity= /* V.I High order vort. advect. flag */
(PID.TID 0000.0001)                   F
(PID.TID 0000.0001)     ;
(PID.TID 0000.0001) upwindShear= /* V.I Upwind vertical Shear advection flag */
(PID.TID 0000.0001)                   F
(PID.TID 0000.0001)     ;
(PID.TID 0000.0001) selectKEscheme= /* V.I Kinetic Energy scheme selector */
(PID.TID 0000.0001)                       0
(PID.TID 0000.0001)     ;
(PID.TID 0000.0001) momForcing =  /* Momentum forcing on/off flag */
(PID.TID 0000.0001)                   T
(PID.TID 0000.0001)     ;
(PID.TID 0000.0001) momPressureForcing =  /* Momentum pressure term on/off flag */
(PID.TID 0000.0001)                   T
(PID.TID 0000.0001)     ;
(PID.TID 0000.0001) implicitIntGravWave= /* Implicit Internal Gravity Wave flag */
(PID.TID 0000.0001)                   F
(PID.TID 0000.0001)     ;
(PID.TID 0000.0001) staggerTimeStep =    /* Stagger time stepping on/off flag */
(PID.TID 0000.0001)                   T
(PID.TID 0000.0001)     ;
(PID.TID 0000.0001) doResetHFactors = /* reset thickness factors @ each time-step */
(PID.TID 0000.0001)                   T
(PID.TID 0000.0001)     ;
(PID.TID 0000.0001) multiDimAdvection =  /* enable/disable Multi-Dim Advection */
(PID.TID 0000.0001)                   T
(PID.TID 0000.0001)     ;
(PID.TID 0000.0001) useMultiDimAdvec =   /* Multi-Dim Advection is/is-not used */
(PID.TID 0000.0001)                   F
(PID.TID 0000.0001)     ;
(PID.TID 0000.0001) implicitDiffusion = /* Implicit Diffusion on/off flag */
(PID.TID 0000.0001)                   T
(PID.TID 0000.0001)     ;
(PID.TID 0000.0001) tempStepping =  /* Temperature equation on/off flag */
(PID.TID 0000.0001)                   T
(PID.TID 0000.0001)     ;
(PID.TID 0000.0001) tempAdvection=  /* Temperature advection on/off flag */
(PID.TID 0000.0001)                   T
(PID.TID 0000.0001)     ;
(PID.TID 0000.0001) tempImplVertAdv = /* Temp. implicit vert. advection on/off */
(PID.TID 0000.0001)                   F
(PID.TID 0000.0001)     ;
(PID.TID 0000.0001) tempForcing  =  /* Temperature forcing on/off flag */
(PID.TID 0000.0001)                   T
(PID.TID 0000.0001)     ;
(PID.TID 0000.0001) tempIsActiveTr = /* Temp. is a dynamically Active Tracer */
(PID.TID 0000.0001)                   T
(PID.TID 0000.0001)     ;
(PID.TID 0000.0001) saltStepping =  /* Salinity equation on/off flag */
(PID.TID 0000.0001)                   T
(PID.TID 0000.0001)     ;
(PID.TID 0000.0001) saltAdvection=  /* Salinity advection on/off flag */
(PID.TID 0000.0001)                   T
(PID.TID 0000.0001)     ;
(PID.TID 0000.0001) saltImplVertAdv = /* Sali. implicit vert. advection on/off */
(PID.TID 0000.0001)                   F
(PID.TID 0000.0001)     ;
(PID.TID 0000.0001) saltForcing  =  /* Salinity forcing on/off flag */
(PID.TID 0000.0001)                   T
(PID.TID 0000.0001)     ;
(PID.TID 0000.0001) saltIsActiveTr = /* Salt  is a dynamically Active Tracer */
(PID.TID 0000.0001)                   T
(PID.TID 0000.0001)     ;
(PID.TID 0000.0001)  readBinaryPrec = /* Precision used for reading binary files */
(PID.TID 0000.0001)                      64
(PID.TID 0000.0001)     ;
(PID.TID 0000.0001) writeBinaryPrec = /* Precision used for writing binary files */
(PID.TID 0000.0001)                      32
(PID.TID 0000.0001)     ;
(PID.TID 0000.0001)  globalFiles = /* write "global" (=not per tile) files */
(PID.TID 0000.0001)                   F
(PID.TID 0000.0001)     ;
(PID.TID 0000.0001)  useSingleCpuIO = /* only master MPI process does I/O */
(PID.TID 0000.0001)                   F
(PID.TID 0000.0001)     ;
(PID.TID 0000.0001) /* debLev[*]  : level of debug & auxiliary message printing */
(PID.TID 0000.0001) debLevZero =  0 ; /* level of disabled aux. msg printing */
(PID.TID 0000.0001)    debLevA =  1 ; /* level of minimum  aux. msg printing */
(PID.TID 0000.0001)    debLevB =  2 ; /* level of low aux. print (report read-file opening)*/
(PID.TID 0000.0001)    debLevC =  3 ; /* level of moderate debug prt (most pkgs debug msg) */
(PID.TID 0000.0001)    debLevD =  4 ; /* level of enhanced debug prt (add DEBUG_STATS prt) */
(PID.TID 0000.0001)    debLevE =  5 ; /* level of extensive debug printing */
(PID.TID 0000.0001) debugLevel =  /* select debug printing level */
(PID.TID 0000.0001)                       1
(PID.TID 0000.0001)     ;
(PID.TID 0000.0001) //
(PID.TID 0000.0001) // Elliptic solver(s) paramters ( PARM02 in namelist )
(PID.TID 0000.0001) //
(PID.TID 0000.0001) cg2dMaxIters =   /* Upper limit on 2d con. grad iterations  */
(PID.TID 0000.0001)                    1000
(PID.TID 0000.0001)     ;
(PID.TID 0000.0001) cg2dChkResFreq =   /* 2d con. grad convergence test frequency */
(PID.TID 0000.0001)                       1
(PID.TID 0000.0001)     ;
(PID.TID 0000.0001) cg2dTargetResidual =   /* 2d con. grad target residual  */
(PID.TID 0000.0001)                 1.000000000000000E-13
(PID.TID 0000.0001)     ;
(PID.TID 0000.0001) cg2dTargetResWunit =   /* CG2d target residual [W units] */
(PID.TID 0000.0001)                -1.000000000000000E+00
(PID.TID 0000.0001)     ;
(PID.TID 0000.0001) cg2dPreCondFreq =   /* Freq. for updating cg2d preconditioner */
(PID.TID 0000.0001)                       1
(PID.TID 0000.0001)     ;
(PID.TID 0000.0001) useSRCGSolver =  /* use single reduction CG solver(s) */
(PID.TID 0000.0001)                   F
(PID.TID 0000.0001)     ;
(PID.TID 0000.0001) printResidualFreq = /* Freq. for printing CG residual */
(PID.TID 0000.0001)                       0
(PID.TID 0000.0001)     ;
(PID.TID 0000.0001) //
(PID.TID 0000.0001) // Time stepping paramters ( PARM03 in namelist )
(PID.TID 0000.0001) //
(PID.TID 0000.0001) deltaTmom =   /* Momentum equation timestep ( s ) */
(PID.TID 0000.0001)                 1.800000000000000E+03
(PID.TID 0000.0001)     ;
(PID.TID 0000.0001) deltaTfreesurf = /* FreeSurface equation timestep ( s ) */
(PID.TID 0000.0001)                 1.800000000000000E+03
(PID.TID 0000.0001)     ;
(PID.TID 0000.0001) dTtracerLev =  /* Tracer equation timestep ( s ) */
(PID.TID 0000.0001)    30 @  1.800000000000000E+03              /* K =  1: 30 */
(PID.TID 0000.0001)     ;
(PID.TID 0000.0001) deltaTClock  =   /* Model clock timestep ( s ) */
(PID.TID 0000.0001)                 1.800000000000000E+03
(PID.TID 0000.0001)     ;
(PID.TID 0000.0001) cAdjFreq =   /* Convective adjustment interval ( s ) */
(PID.TID 0000.0001)                 1.000000000000000E+00
(PID.TID 0000.0001)     ;
(PID.TID 0000.0001) momForcingOutAB = /* =1: take Momentum Forcing out of Adams-Bash. stepping */
(PID.TID 0000.0001)                       0
(PID.TID 0000.0001)     ;
(PID.TID 0000.0001) tracForcingOutAB = /* =1: take T,S,pTr Forcing out of Adams-Bash. stepping */
(PID.TID 0000.0001)                       0
(PID.TID 0000.0001)     ;
(PID.TID 0000.0001) momDissip_In_AB = /* put Dissipation Tendency in Adams-Bash. stepping */
(PID.TID 0000.0001)                   T
(PID.TID 0000.0001)     ;
(PID.TID 0000.0001) doAB_onGtGs = /* apply AB on Tendencies (rather than on T,S)*/
(PID.TID 0000.0001)                   T
(PID.TID 0000.0001)     ;
(PID.TID 0000.0001) abEps =   /* Adams-Bashforth-2 stabilizing weight */
(PID.TID 0000.0001)                 1.000000000000000E-01
(PID.TID 0000.0001)     ;
(PID.TID 0000.0001) tauCD =   /* CD coupling time-scale ( s ) */
(PID.TID 0000.0001)                 4.000000000000000E+05
(PID.TID 0000.0001)     ;
(PID.TID 0000.0001) rCD =   /* Normalised CD coupling parameter */
(PID.TID 0000.0001)                 9.955000000000001E-01
(PID.TID 0000.0001)     ;
(PID.TID 0000.0001) epsAB_CD = /* AB-2 stabilizing weight for CD-scheme*/
(PID.TID 0000.0001)                 1.000000000000000E-01
(PID.TID 0000.0001)     ;
(PID.TID 0000.0001) pickupStrictlyMatch= /* stop if pickup do not strictly match */
(PID.TID 0000.0001)                   T
(PID.TID 0000.0001)     ;
(PID.TID 0000.0001) nIter0   =   /* Run starting timestep number */
(PID.TID 0000.0001)                    8640
(PID.TID 0000.0001)     ;
(PID.TID 0000.0001) nTimeSteps = /* Number of timesteps */
(PID.TID 0000.0001)                      10
(PID.TID 0000.0001)     ;
(PID.TID 0000.0001) nEndIter =   /* Run ending timestep number */
(PID.TID 0000.0001)                    8650
(PID.TID 0000.0001)     ;
(PID.TID 0000.0001) baseTime =   /* Model base time ( s ) */
(PID.TID 0000.0001)                 0.000000000000000E+00
(PID.TID 0000.0001)     ;
(PID.TID 0000.0001) startTime =  /* Run start time ( s ) */
(PID.TID 0000.0001)                 1.555200000000000E+07
(PID.TID 0000.0001)     ;
(PID.TID 0000.0001) endTime  =   /* Integration ending time ( s ) */
(PID.TID 0000.0001)                 1.557000000000000E+07
(PID.TID 0000.0001)     ;
(PID.TID 0000.0001) pChkPtFreq = /* Permanent restart/pickup file interval ( s ) */
(PID.TID 0000.0001)                 0.000000000000000E+00
(PID.TID 0000.0001)     ;
(PID.TID 0000.0001) chkPtFreq  = /* Rolling restart/pickup file interval ( s ) */
(PID.TID 0000.0001)                 0.000000000000000E+00
(PID.TID 0000.0001)     ;
(PID.TID 0000.0001) pickup_write_mdsio =   /* Model IO flag. */
(PID.TID 0000.0001)                   T
(PID.TID 0000.0001)     ;
(PID.TID 0000.0001) pickup_read_mdsio =   /* Model IO flag. */
(PID.TID 0000.0001)                   T
(PID.TID 0000.0001)     ;
(PID.TID 0000.0001) pickup_write_mnc =   /* Model IO flag. */
(PID.TID 0000.0001)                   F
(PID.TID 0000.0001)     ;
(PID.TID 0000.0001) pickup_read_mnc =   /* Model IO flag. */
(PID.TID 0000.0001)                   F
(PID.TID 0000.0001)     ;
(PID.TID 0000.0001) pickup_write_immed =   /* Model IO flag. */
(PID.TID 0000.0001)                   F
(PID.TID 0000.0001)     ;
(PID.TID 0000.0001) writePickupAtEnd =   /* Model IO flag. */
(PID.TID 0000.0001)                   T
(PID.TID 0000.0001)     ;
(PID.TID 0000.0001) dumpFreq =   /* Model state write out interval ( s ). */
(PID.TID 0000.0001)                 0.000000000000000E+00
(PID.TID 0000.0001)     ;
(PID.TID 0000.0001) dumpInitAndLast= /* write out Initial & Last iter. model state */
(PID.TID 0000.0001)                   T
(PID.TID 0000.0001)     ;
(PID.TID 0000.0001) snapshot_mdsio =   /* Model IO flag. */
(PID.TID 0000.0001)                   F
(PID.TID 0000.0001)     ;
(PID.TID 0000.0001) snapshot_mnc =   /* Model IO flag. */
(PID.TID 0000.0001)                   T
(PID.TID 0000.0001)     ;
(PID.TID 0000.0001) monitorFreq =   /* Monitor output interval ( s ). */
(PID.TID 0000.0001)                 1.000000000000000E+00
(PID.TID 0000.0001)     ;
(PID.TID 0000.0001) monitorSelect = /* select group of variables to monitor */
(PID.TID 0000.0001)                       2
(PID.TID 0000.0001)     ;
(PID.TID 0000.0001) monitor_stdio =   /* Model IO flag. */
(PID.TID 0000.0001)                   T
(PID.TID 0000.0001)     ;
(PID.TID 0000.0001) monitor_mnc =   /* Model IO flag. */
(PID.TID 0000.0001)                   F
(PID.TID 0000.0001)     ;
(PID.TID 0000.0001) externForcingPeriod =   /* forcing period (s) */
(PID.TID 0000.0001)                 0.000000000000000E+00
(PID.TID 0000.0001)     ;
(PID.TID 0000.0001) externForcingCycle =   /* period of the cyle (s). */
(PID.TID 0000.0001)                 0.000000000000000E+00
(PID.TID 0000.0001)     ;
(PID.TID 0000.0001) tauThetaClimRelax =   /* relaxation time scale (s) */
(PID.TID 0000.0001)                 0.000000000000000E+00
(PID.TID 0000.0001)     ;
(PID.TID 0000.0001) tauSaltClimRelax =   /* relaxation time scale (s) */
(PID.TID 0000.0001)                 0.000000000000000E+00
(PID.TID 0000.0001)     ;
(PID.TID 0000.0001) latBandClimRelax =   /* max. Lat. where relaxation */
(PID.TID 0000.0001)                 1.800000000000000E+02
(PID.TID 0000.0001)     ;
(PID.TID 0000.0001) //
(PID.TID 0000.0001) // Gridding paramters ( PARM04 in namelist )
(PID.TID 0000.0001) //
(PID.TID 0000.0001) usingCartesianGrid = /* Cartesian coordinates flag ( True/False ) */
(PID.TID 0000.0001)                   F
(PID.TID 0000.0001)     ;
(PID.TID 0000.0001) usingCylindricalGrid = /* Cylindrical coordinates flag ( True/False ) */
(PID.TID 0000.0001)                   F
(PID.TID 0000.0001)     ;
(PID.TID 0000.0001) usingSphericalPolarGrid = /* Spherical coordinates flag ( True/False ) */
(PID.TID 0000.0001)                   T
(PID.TID 0000.0001)     ;
(PID.TID 0000.0001) usingCurvilinearGrid = /* Curvilinear coordinates flag ( True/False ) */
(PID.TID 0000.0001)                   F
(PID.TID 0000.0001)     ;
(PID.TID 0000.0001) selectSigmaCoord = /* Hybrid-Sigma Vert. Coordinate option */
(PID.TID 0000.0001)                       0
(PID.TID 0000.0001)     ;
(PID.TID 0000.0001) Ro_SeaLevel = /* r(1) ( units of r ==  m ) */
(PID.TID 0000.0001)                 0.000000000000000E+00
(PID.TID 0000.0001)     ;
(PID.TID 0000.0001) rSigmaBnd = /* r/sigma transition ( units of r ==  m ) */
(PID.TID 0000.0001)                 1.234567000000000E+05
(PID.TID 0000.0001)     ;
(PID.TID 0000.0001) rkSign =   /* index orientation relative to vertical coordinate */
(PID.TID 0000.0001)                -1.000000000000000E+00
(PID.TID 0000.0001)     ;
(PID.TID 0000.0001) gravitySign = /* gravity orientation relative to vertical coordinate */
(PID.TID 0000.0001)                -1.000000000000000E+00
(PID.TID 0000.0001)     ;
(PID.TID 0000.0001) mass2rUnit = /* convert mass per unit area [kg/m2] to r-units [m] */
(PID.TID 0000.0001)                 9.708737864077669E-04
(PID.TID 0000.0001)     ;
(PID.TID 0000.0001) rUnit2mass = /* convert r-units [m] to mass per unit area [kg/m2] */
(PID.TID 0000.0001)                 1.030000000000000E+03
(PID.TID 0000.0001)     ;
(PID.TID 0000.0001) drC =   /* C spacing ( units of r ) */
(PID.TID 0000.0001)                 1.500000000000000E+01,      /* K =  1 */
(PID.TID 0000.0001)    29 @  3.000000000000000E+01              /* K =  2: 30 */
(PID.TID 0000.0001)     ;
(PID.TID 0000.0001) drF =   /* W spacing ( units of r ) */
(PID.TID 0000.0001)    30 @  3.000000000000000E+01              /* K =  1: 30 */
(PID.TID 0000.0001)     ;
(PID.TID 0000.0001) delX = /* U spacing ( m - cartesian, degrees - spherical ) */
(PID.TID 0000.0001)    50 @  3.000000000000000E-01              /* I =  1: 50 */
(PID.TID 0000.0001)     ;
(PID.TID 0000.0001) delY = /* V spacing ( m - cartesian, degrees - spherical ) */
(PID.TID 0000.0001)   100 @  1.000000000000000E-01              /* J =  1:100 */
(PID.TID 0000.0001)     ;
(PID.TID 0000.0001) xgOrigin = /* X-axis origin of West  edge (cartesian: m, lat-lon: deg.) */
(PID.TID 0000.0001)                 0.000000000000000E+00
(PID.TID 0000.0001)     ;
(PID.TID 0000.0001) ygOrigin = /* Y-axis origin of South edge (cartesian: m, lat-lon: deg.) */
(PID.TID 0000.0001)                -8.000000000000000E+01
(PID.TID 0000.0001)     ;
(PID.TID 0000.0001) rSphere =  /* Radius ( ignored - cartesian, m - spherical ) */
(PID.TID 0000.0001)                 6.370000000000000E+06
(PID.TID 0000.0001)     ;
(PID.TID 0000.0001) deepAtmosphere = /* Deep/Shallow Atmosphere flag (True/False) */
(PID.TID 0000.0001)                   F
(PID.TID 0000.0001)     ;
(PID.TID 0000.0001) xC =  /* xC(:,1,:,1) : P-point X coord ( deg. or m if cartesian) */
(PID.TID 0000.0001)                 1.500000000000001E-01,      /* I =  1 */
(PID.TID 0000.0001)                 4.500000000000001E-01,      /* I =  2 */
(PID.TID 0000.0001)                 7.500000000000002E-01,      /* I =  3 */
(PID.TID 0000.0001)                 1.050000000000000E+00,      /* I =  4 */
(PID.TID 0000.0001)                 1.350000000000000E+00,      /* I =  5 */
(PID.TID 0000.0001)                 1.650000000000000E+00,      /* I =  6 */
(PID.TID 0000.0001)                 1.950000000000000E+00,      /* I =  7 */
(PID.TID 0000.0001)                 2.250000000000000E+00,      /* I =  8 */
(PID.TID 0000.0001)                 2.550000000000000E+00,      /* I =  9 */
(PID.TID 0000.0001)                 2.850000000000000E+00,      /* I = 10 */
(PID.TID 0000.0001)                 3.149999999999999E+00,      /* I = 11 */
(PID.TID 0000.0001)                 3.449999999999999E+00,      /* I = 12 */
(PID.TID 0000.0001)                 3.749999999999999E+00,      /* I = 13 */
(PID.TID 0000.0001)                 4.049999999999999E+00,      /* I = 14 */
(PID.TID 0000.0001)                 4.350000000000000E+00,      /* I = 15 */
(PID.TID 0000.0001)                 4.649999999999999E+00,      /* I = 16 */
(PID.TID 0000.0001)                 4.949999999999999E+00,      /* I = 17 */
(PID.TID 0000.0001)                 5.249999999999998E+00,      /* I = 18 */
(PID.TID 0000.0001)                 5.549999999999999E+00,      /* I = 19 */
(PID.TID 0000.0001)                 5.849999999999998E+00,      /* I = 20 */
(PID.TID 0000.0001)                 6.149999999999999E+00,      /* I = 21 */
(PID.TID 0000.0001)                 6.449999999999998E+00,      /* I = 22 */
(PID.TID 0000.0001)                 6.749999999999998E+00,      /* I = 23 */
(PID.TID 0000.0001)                 7.049999999999997E+00,      /* I = 24 */
(PID.TID 0000.0001)                 7.349999999999997E+00,      /* I = 25 */
(PID.TID 0000.0001)                 7.649999999999997E+00,      /* I = 26 */
(PID.TID 0000.0001)                 7.949999999999998E+00,      /* I = 27 */
(PID.TID 0000.0001)                 8.249999999999998E+00,      /* I = 28 */
(PID.TID 0000.0001)                 8.549999999999999E+00,      /* I = 29 */
(PID.TID 0000.0001)                 8.850000000000000E+00,      /* I = 30 */
(PID.TID 0000.0001)                 9.150000000000000E+00,      /* I = 31 */
(PID.TID 0000.0001)                 9.450000000000001E+00,      /* I = 32 */
(PID.TID 0000.0001)                 9.750000000000002E+00,      /* I = 33 */
(PID.TID 0000.0001)                 1.005000000000000E+01,      /* I = 34 */
(PID.TID 0000.0001)                 1.035000000000000E+01,      /* I = 35 */
(PID.TID 0000.0001)                 1.065000000000000E+01,      /* I = 36 */
(PID.TID 0000.0001)                 1.095000000000001E+01,      /* I = 37 */
(PID.TID 0000.0001)                 1.125000000000001E+01,      /* I = 38 */
(PID.TID 0000.0001)                 1.155000000000000E+01,      /* I = 39 */
(PID.TID 0000.0001)                 1.185000000000001E+01,      /* I = 40 */
(PID.TID 0000.0001)                 1.215000000000001E+01,      /* I = 41 */
(PID.TID 0000.0001)                 1.245000000000001E+01,      /* I = 42 */
(PID.TID 0000.0001)                 1.275000000000001E+01,      /* I = 43 */
(PID.TID 0000.0001)                 1.305000000000001E+01,      /* I = 44 */
(PID.TID 0000.0001)                 1.335000000000001E+01,      /* I = 45 */
(PID.TID 0000.0001)                 1.365000000000001E+01,      /* I = 46 */
(PID.TID 0000.0001)                 1.395000000000001E+01,      /* I = 47 */
(PID.TID 0000.0001)                 1.425000000000001E+01,      /* I = 48 */
(PID.TID 0000.0001)                 1.455000000000001E+01,      /* I = 49 */
(PID.TID 0000.0001)                 1.485000000000001E+01       /* I = 50 */
(PID.TID 0000.0001)     ;
(PID.TID 0000.0001) yC =  /* yC(1,:,1,:) : P-point Y coord ( deg. or m if cartesian) */
(PID.TID 0000.0001)                -7.995000000000000E+01,      /* J =  1 */
(PID.TID 0000.0001)                -7.985000000000001E+01,      /* J =  2 */
(PID.TID 0000.0001)                -7.975000000000001E+01,      /* J =  3 */
(PID.TID 0000.0001)      . . .
(PID.TID 0000.0001)                -7.775000000000013E+01,      /* J = 23 */
(PID.TID 0000.0001)                -7.765000000000013E+01,      /* J = 24 */
(PID.TID 0000.0001)                -7.755000000000014E+01,      /* J = 25 */
(PID.TID 0000.0001)                -7.745000000000014E+01,      /* J = 26 */
(PID.TID 0000.0001)                -7.735000000000015E+01,      /* J = 27 */
(PID.TID 0000.0001)                -7.725000000000016E+01,      /* J = 28 */
(PID.TID 0000.0001)      . . .
(PID.TID 0000.0001)                -7.525000000000027E+01,      /* J = 48 */
(PID.TID 0000.0001)                -7.515000000000028E+01,      /* J = 49 */
(PID.TID 0000.0001)                -7.505000000000028E+01,      /* J = 50 */
(PID.TID 0000.0001)                -7.495000000000029E+01,      /* J = 51 */
(PID.TID 0000.0001)                -7.485000000000029E+01,      /* J = 52 */
(PID.TID 0000.0001)                -7.475000000000030E+01,      /* J = 53 */
(PID.TID 0000.0001)      . . .
(PID.TID 0000.0001)                -7.275000000000041E+01,      /* J = 73 */
(PID.TID 0000.0001)                -7.265000000000042E+01,      /* J = 74 */
(PID.TID 0000.0001)                -7.255000000000042E+01,      /* J = 75 */
(PID.TID 0000.0001)                -7.245000000000043E+01,      /* J = 76 */
(PID.TID 0000.0001)                -7.235000000000043E+01,      /* J = 77 */
(PID.TID 0000.0001)                -7.225000000000044E+01,      /* J = 78 */
(PID.TID 0000.0001)      . . .
(PID.TID 0000.0001)                -7.025000000000055E+01,      /* J = 98 */
(PID.TID 0000.0001)                -7.015000000000056E+01,      /* J = 99 */
(PID.TID 0000.0001)                -7.005000000000057E+01       /* J =100 */
(PID.TID 0000.0001)     ;
(PID.TID 0000.0001) rcoord = /* P-point R coordinate (  units of r ) */
(PID.TID 0000.0001)                -1.500000000000000E+01,      /* K =  1 */
(PID.TID 0000.0001)                -4.500000000000000E+01,      /* K =  2 */
(PID.TID 0000.0001)                -7.500000000000000E+01,      /* K =  3 */
(PID.TID 0000.0001)                -1.050000000000000E+02,      /* K =  4 */
(PID.TID 0000.0001)                -1.350000000000000E+02,      /* K =  5 */
(PID.TID 0000.0001)                -1.650000000000000E+02,      /* K =  6 */
(PID.TID 0000.0001)                -1.950000000000000E+02,      /* K =  7 */
(PID.TID 0000.0001)                -2.250000000000000E+02,      /* K =  8 */
(PID.TID 0000.0001)                -2.550000000000000E+02,      /* K =  9 */
(PID.TID 0000.0001)                -2.850000000000000E+02,      /* K = 10 */
(PID.TID 0000.0001)                -3.150000000000000E+02,      /* K = 11 */
(PID.TID 0000.0001)                -3.450000000000000E+02,      /* K = 12 */
(PID.TID 0000.0001)                -3.750000000000000E+02,      /* K = 13 */
(PID.TID 0000.0001)                -4.050000000000000E+02,      /* K = 14 */
(PID.TID 0000.0001)                -4.350000000000000E+02,      /* K = 15 */
(PID.TID 0000.0001)                -4.650000000000000E+02,      /* K = 16 */
(PID.TID 0000.0001)                -4.950000000000000E+02,      /* K = 17 */
(PID.TID 0000.0001)                -5.250000000000000E+02,      /* K = 18 */
(PID.TID 0000.0001)                -5.550000000000000E+02,      /* K = 19 */
(PID.TID 0000.0001)                -5.850000000000000E+02,      /* K = 20 */
(PID.TID 0000.0001)                -6.150000000000000E+02,      /* K = 21 */
(PID.TID 0000.0001)                -6.450000000000000E+02,      /* K = 22 */
(PID.TID 0000.0001)                -6.750000000000000E+02,      /* K = 23 */
(PID.TID 0000.0001)                -7.050000000000000E+02,      /* K = 24 */
(PID.TID 0000.0001)                -7.350000000000000E+02,      /* K = 25 */
(PID.TID 0000.0001)                -7.650000000000000E+02,      /* K = 26 */
(PID.TID 0000.0001)                -7.950000000000000E+02,      /* K = 27 */
(PID.TID 0000.0001)                -8.250000000000000E+02,      /* K = 28 */
(PID.TID 0000.0001)                -8.550000000000000E+02,      /* K = 29 */
(PID.TID 0000.0001)                -8.850000000000000E+02       /* K = 30 */
(PID.TID 0000.0001)     ;
(PID.TID 0000.0001) rF =   /* W-Interf. R coordinate (  units of r ) */
(PID.TID 0000.0001)                 0.000000000000000E+00,      /* K =  1 */
(PID.TID 0000.0001)                -3.000000000000000E+01,      /* K =  2 */
(PID.TID 0000.0001)                -6.000000000000000E+01,      /* K =  3 */
(PID.TID 0000.0001)                -9.000000000000000E+01,      /* K =  4 */
(PID.TID 0000.0001)                -1.200000000000000E+02,      /* K =  5 */
(PID.TID 0000.0001)                -1.500000000000000E+02,      /* K =  6 */
(PID.TID 0000.0001)                -1.800000000000000E+02,      /* K =  7 */
(PID.TID 0000.0001)                -2.100000000000000E+02,      /* K =  8 */
(PID.TID 0000.0001)                -2.400000000000000E+02,      /* K =  9 */
(PID.TID 0000.0001)                -2.700000000000000E+02,      /* K = 10 */
(PID.TID 0000.0001)                -3.000000000000000E+02,      /* K = 11 */
(PID.TID 0000.0001)                -3.300000000000000E+02,      /* K = 12 */
(PID.TID 0000.0001)                -3.600000000000000E+02,      /* K = 13 */
(PID.TID 0000.0001)                -3.900000000000000E+02,      /* K = 14 */
(PID.TID 0000.0001)                -4.200000000000000E+02,      /* K = 15 */
(PID.TID 0000.0001)                -4.500000000000000E+02,      /* K = 16 */
(PID.TID 0000.0001)                -4.800000000000000E+02,      /* K = 17 */
(PID.TID 0000.0001)                -5.100000000000000E+02,      /* K = 18 */
(PID.TID 0000.0001)                -5.400000000000000E+02,      /* K = 19 */
(PID.TID 0000.0001)                -5.700000000000000E+02,      /* K = 20 */
(PID.TID 0000.0001)                -6.000000000000000E+02,      /* K = 21 */
(PID.TID 0000.0001)                -6.300000000000000E+02,      /* K = 22 */
(PID.TID 0000.0001)                -6.600000000000000E+02,      /* K = 23 */
(PID.TID 0000.0001)                -6.900000000000000E+02,      /* K = 24 */
(PID.TID 0000.0001)                -7.200000000000000E+02,      /* K = 25 */
(PID.TID 0000.0001)                -7.500000000000000E+02,      /* K = 26 */
(PID.TID 0000.0001)                -7.800000000000000E+02,      /* K = 27 */
(PID.TID 0000.0001)                -8.100000000000000E+02,      /* K = 28 */
(PID.TID 0000.0001)                -8.400000000000000E+02,      /* K = 29 */
(PID.TID 0000.0001)                -8.700000000000000E+02,      /* K = 30 */
(PID.TID 0000.0001)                -9.000000000000000E+02       /* K = 31 */
(PID.TID 0000.0001)     ;
(PID.TID 0000.0001) deepFacC = /* deep-model grid factor @ cell-Center (-) */
(PID.TID 0000.0001)    30 @  1.000000000000000E+00              /* K =  1: 30 */
(PID.TID 0000.0001)     ;
(PID.TID 0000.0001) deepFacF = /* deep-model grid factor @ W-Interface (-) */
(PID.TID 0000.0001)    31 @  1.000000000000000E+00              /* K =  1: 31 */
(PID.TID 0000.0001)     ;
(PID.TID 0000.0001) rVel2wUnit = /* convert units: rVel -> wSpeed (=1 if z-coord)*/
(PID.TID 0000.0001)    31 @  1.000000000000000E+00              /* K =  1: 31 */
(PID.TID 0000.0001)     ;
(PID.TID 0000.0001) wUnit2rVel = /* convert units: wSpeed -> rVel (=1 if z-coord)*/
(PID.TID 0000.0001)    31 @  1.000000000000000E+00              /* K =  1: 31 */
(PID.TID 0000.0001)     ;
(PID.TID 0000.0001) dBdrRef = /* Vertical grad. of reference buoyancy [(m/s/r)^2] */
(PID.TID 0000.0001)    30 @  0.000000000000000E+00              /* K =  1: 30 */
(PID.TID 0000.0001)     ;
(PID.TID 0000.0001) rotateGrid = /* use rotated grid ( True/False ) */
(PID.TID 0000.0001)                   F
(PID.TID 0000.0001)     ;
(PID.TID 0000.0001) phiEuler = /* Euler angle, rotation about original z-coordinate [rad] */
(PID.TID 0000.0001)                 0.000000000000000E+00
(PID.TID 0000.0001)     ;
(PID.TID 0000.0001) thetaEuler = /* Euler angle, rotation about new x-coordinate [rad] */
(PID.TID 0000.0001)                 0.000000000000000E+00
(PID.TID 0000.0001)     ;
(PID.TID 0000.0001) psiEuler = /* Euler angle, rotation about new z-coordinate [rad] */
(PID.TID 0000.0001)                 0.000000000000000E+00
(PID.TID 0000.0001)     ;
(PID.TID 0000.0001) dxF =  /* dxF(:,1,:,1) ( units: m ) */
(PID.TID 0000.0001)    50 @  5.820391490558872E+03              /* I =  1: 50 */
(PID.TID 0000.0001)     ;
(PID.TID 0000.0001) dxF =  /* dxF(1,:,1,:) ( units: m ) */
(PID.TID 0000.0001)                 5.820391490558872E+03,      /* J =  1 */
(PID.TID 0000.0001)                 5.877701765291692E+03,      /* J =  2 */
(PID.TID 0000.0001)                 5.934994135525598E+03,      /* J =  3 */
(PID.TID 0000.0001)      . . .
(PID.TID 0000.0001)                 7.076813247621209E+03,      /* J = 23 */
(PID.TID 0000.0001)                 7.133689397375063E+03,      /* J = 24 */
(PID.TID 0000.0001)                 7.190543816673855E+03,      /* J = 25 */
(PID.TID 0000.0001)                 7.247376332329164E+03,      /* J = 26 */
(PID.TID 0000.0001)                 7.304186771219292E+03,      /* J = 27 */
(PID.TID 0000.0001)                 7.360974960289787E+03,      /* J = 28 */
(PID.TID 0000.0001)      . . .
(PID.TID 0000.0001)                 8.491800393599013E+03,      /* J = 48 */
(PID.TID 0000.0001)                 8.548081485571185E+03,      /* J = 49 */
(PID.TID 0000.0001)                 8.604336538604706E+03,      /* J = 50 */
(PID.TID 0000.0001)                 8.660565381336924E+03,      /* J = 51 */
(PID.TID 0000.0001)                 8.716767842485036E+03,      /* J = 52 */
(PID.TID 0000.0001)                 8.772943750846600E+03,      /* J = 53 */
(PID.TID 0000.0001)      . . .
(PID.TID 0000.0001)                 9.890622914885218E+03,      /* J = 73 */
(PID.TID 0000.0001)                 9.946201814818334E+03,      /* J = 74 */
(PID.TID 0000.0001)                 1.000175041689580E+04,      /* J = 75 */
(PID.TID 0000.0001)                 1.005726855190695E+04,      /* J = 76 */
(PID.TID 0000.0001)                 1.011275605073392E+04,      /* J = 77 */
(PID.TID 0000.0001)                 1.016821274435215E+04,      /* J = 78 */
(PID.TID 0000.0001)      . . .
(PID.TID 0000.0001)                 1.127061807330668E+04,      /* J = 98 */
(PID.TID 0000.0001)                 1.132538898360582E+04,      /* J = 99 */
(PID.TID 0000.0001)                 1.138012539480601E+04       /* J =100 */
(PID.TID 0000.0001)     ;
(PID.TID 0000.0001) dyF =  /* dyF(:,1,:,1) ( units: m ) */
(PID.TID 0000.0001)    50 @  1.111774733520388E+04              /* I =  1: 50 */
(PID.TID 0000.0001)     ;
(PID.TID 0000.0001) dyF =  /* dyF(1,:,1,:) ( units: m ) */
(PID.TID 0000.0001)   100 @  1.111774733520388E+04              /* J =  1:100 */
(PID.TID 0000.0001)     ;
(PID.TID 0000.0001) dxG =  /* dxG(:,1,:,1) ( units: m ) */
(PID.TID 0000.0001)    50 @  5.791729693558576E+03              /* I =  1: 50 */
(PID.TID 0000.0001)     ;
(PID.TID 0000.0001) dxG =  /* dxG(1,:,1,:) ( units: m ) */
(PID.TID 0000.0001)                 5.791729693558576E+03,      /* J =  1 */
(PID.TID 0000.0001)                 5.849048855077854E+03,      /* J =  2 */
(PID.TID 0000.0001)                 5.906350199379949E+03,      /* J =  3 */
(PID.TID 0000.0001)      . . .
(PID.TID 0000.0001)                 7.048367077963129E+03,      /* J = 23 */
(PID.TID 0000.0001)                 7.105254027978149E+03,      /* J = 24 */
(PID.TID 0000.0001)                 7.162119334157175E+03,      /* J = 25 */
(PID.TID 0000.0001)                 7.218962823278620E+03,      /* J = 26 */
(PID.TID 0000.0001)                 7.275784322187360E+03,      /* J = 27 */
(PID.TID 0000.0001)                 7.332583657795253E+03,      /* J = 28 */
(PID.TID 0000.0001)      . . .
(PID.TID 0000.0001)                 8.463650136583461E+03,      /* J = 48 */
(PID.TID 0000.0001)                 8.519944183739159E+03,      /* J = 49 */
(PID.TID 0000.0001)                 8.576212277667308E+03,      /* J = 50 */
(PID.TID 0000.0001)                 8.632454246965530E+03,      /* J = 51 */
(PID.TID 0000.0001)                 8.688669920311038E+03,      /* J = 52 */
(PID.TID 0000.0001)                 8.744859126461139E+03,      /* J = 53 */
(PID.TID 0000.0001)      . . .
(PID.TID 0000.0001)                 9.862822156126382E+03,      /* J = 73 */
(PID.TID 0000.0001)                 9.918416141504455E+03,      /* J = 74 */
(PID.TID 0000.0001)                 9.973979913666863E+03,      /* J = 75 */
(PID.TID 0000.0001)                 1.002951330335672E+04,      /* J = 76 */
(PID.TID 0000.0001)                 1.008501614140969E+04,      /* J = 77 */
(PID.TID 0000.0001)                 1.014048825875450E+04,      /* J = 78 */
(PID.TID 0000.0001)      . . .
(PID.TID 0000.0001)                 1.124321973312895E+04,      /* J = 98 */
(PID.TID 0000.0001)                 1.129800783041847E+04,      /* J = 99 */
(PID.TID 0000.0001)                 1.135276151201679E+04       /* J =100 */
(PID.TID 0000.0001)     ;
(PID.TID 0000.0001) dyG =  /* dyG(:,1,:,1) ( units: m ) */
(PID.TID 0000.0001)    50 @  1.111774733520388E+04              /* I =  1: 50 */
(PID.TID 0000.0001)     ;
(PID.TID 0000.0001) dyG =  /* dyG(1,:,1,:) ( units: m ) */
(PID.TID 0000.0001)   100 @  1.111774733520388E+04              /* J =  1:100 */
(PID.TID 0000.0001)     ;
(PID.TID 0000.0001) dxC =  /* dxC(:,1,:,1) ( units: m ) */
(PID.TID 0000.0001)    50 @  5.820391490558872E+03              /* I =  1: 50 */
(PID.TID 0000.0001)     ;
(PID.TID 0000.0001) dxC =  /* dxC(1,:,1,:) ( units: m ) */
(PID.TID 0000.0001)                 5.820391490558872E+03,      /* J =  1 */
(PID.TID 0000.0001)                 5.877701765291692E+03,      /* J =  2 */
(PID.TID 0000.0001)                 5.934994135525598E+03,      /* J =  3 */
(PID.TID 0000.0001)      . . .
(PID.TID 0000.0001)                 7.076813247621209E+03,      /* J = 23 */
(PID.TID 0000.0001)                 7.133689397375063E+03,      /* J = 24 */
(PID.TID 0000.0001)                 7.190543816673855E+03,      /* J = 25 */
(PID.TID 0000.0001)                 7.247376332329164E+03,      /* J = 26 */
(PID.TID 0000.0001)                 7.304186771219292E+03,      /* J = 27 */
(PID.TID 0000.0001)                 7.360974960289787E+03,      /* J = 28 */
(PID.TID 0000.0001)      . . .
(PID.TID 0000.0001)                 8.491800393599013E+03,      /* J = 48 */
(PID.TID 0000.0001)                 8.548081485571185E+03,      /* J = 49 */
(PID.TID 0000.0001)                 8.604336538604706E+03,      /* J = 50 */
(PID.TID 0000.0001)                 8.660565381336924E+03,      /* J = 51 */
(PID.TID 0000.0001)                 8.716767842485036E+03,      /* J = 52 */
(PID.TID 0000.0001)                 8.772943750846600E+03,      /* J = 53 */
(PID.TID 0000.0001)      . . .
(PID.TID 0000.0001)                 9.890622914885218E+03,      /* J = 73 */
(PID.TID 0000.0001)                 9.946201814818334E+03,      /* J = 74 */
(PID.TID 0000.0001)                 1.000175041689580E+04,      /* J = 75 */
(PID.TID 0000.0001)                 1.005726855190695E+04,      /* J = 76 */
(PID.TID 0000.0001)                 1.011275605073392E+04,      /* J = 77 */
(PID.TID 0000.0001)                 1.016821274435215E+04,      /* J = 78 */
(PID.TID 0000.0001)      . . .
(PID.TID 0000.0001)                 1.127061807330668E+04,      /* J = 98 */
(PID.TID 0000.0001)                 1.132538898360582E+04,      /* J = 99 */
(PID.TID 0000.0001)                 1.138012539480601E+04       /* J =100 */
(PID.TID 0000.0001)     ;
(PID.TID 0000.0001) dyC =  /* dyC(:,1,:,1) ( units: m ) */
(PID.TID 0000.0001)    50 @  1.111774733520388E+04              /* I =  1: 50 */
(PID.TID 0000.0001)     ;
(PID.TID 0000.0001) dyC =  /* dyC(1,:,1,:) ( units: m ) */
(PID.TID 0000.0001)   100 @  1.111774733520388E+04              /* J =  1:100 */
(PID.TID 0000.0001)     ;
(PID.TID 0000.0001) dxV =  /* dxV(:,1,:,1) ( units: m ) */
(PID.TID 0000.0001)    50 @  5.791729693558576E+03              /* I =  1: 50 */
(PID.TID 0000.0001)     ;
(PID.TID 0000.0001) dxV =  /* dxV(1,:,1,:) ( units: m ) */
(PID.TID 0000.0001)                 5.791729693558576E+03,      /* J =  1 */
(PID.TID 0000.0001)                 5.849048855077854E+03,      /* J =  2 */
(PID.TID 0000.0001)                 5.906350199379949E+03,      /* J =  3 */
(PID.TID 0000.0001)      . . .
(PID.TID 0000.0001)                 7.048367077963129E+03,      /* J = 23 */
(PID.TID 0000.0001)                 7.105254027978149E+03,      /* J = 24 */
(PID.TID 0000.0001)                 7.162119334157175E+03,      /* J = 25 */
(PID.TID 0000.0001)                 7.218962823278620E+03,      /* J = 26 */
(PID.TID 0000.0001)                 7.275784322187360E+03,      /* J = 27 */
(PID.TID 0000.0001)                 7.332583657795253E+03,      /* J = 28 */
(PID.TID 0000.0001)      . . .
(PID.TID 0000.0001)                 8.463650136583461E+03,      /* J = 48 */
(PID.TID 0000.0001)                 8.519944183739159E+03,      /* J = 49 */
(PID.TID 0000.0001)                 8.576212277667308E+03,      /* J = 50 */
(PID.TID 0000.0001)                 8.632454246965530E+03,      /* J = 51 */
(PID.TID 0000.0001)                 8.688669920311038E+03,      /* J = 52 */
(PID.TID 0000.0001)                 8.744859126461139E+03,      /* J = 53 */
(PID.TID 0000.0001)      . . .
(PID.TID 0000.0001)                 9.862822156126382E+03,      /* J = 73 */
(PID.TID 0000.0001)                 9.918416141504455E+03,      /* J = 74 */
(PID.TID 0000.0001)                 9.973979913666863E+03,      /* J = 75 */
(PID.TID 0000.0001)                 1.002951330335672E+04,      /* J = 76 */
(PID.TID 0000.0001)                 1.008501614140969E+04,      /* J = 77 */
(PID.TID 0000.0001)                 1.014048825875450E+04,      /* J = 78 */
(PID.TID 0000.0001)      . . .
(PID.TID 0000.0001)                 1.124321973312895E+04,      /* J = 98 */
(PID.TID 0000.0001)                 1.129800783041847E+04,      /* J = 99 */
(PID.TID 0000.0001)                 1.135276151201679E+04       /* J =100 */
(PID.TID 0000.0001)     ;
(PID.TID 0000.0001) dyU =  /* dyU(:,1,:,1) ( units: m ) */
(PID.TID 0000.0001)    50 @  1.111774733520388E+04              /* I =  1: 50 */
(PID.TID 0000.0001)     ;
(PID.TID 0000.0001) dyU =  /* dyU(1,:,1,:) ( units: m ) */
(PID.TID 0000.0001)   100 @  1.111774733520388E+04              /* J =  1:100 */
(PID.TID 0000.0001)     ;
(PID.TID 0000.0001) rA  =  /* rA (:,1,:,1) ( units: m^2 ) */
(PID.TID 0000.0001)    50 @  6.470963377080289E+07              /* I =  1: 50 */
(PID.TID 0000.0001)     ;
(PID.TID 0000.0001) rA  =  /* rA (1,:,1,:) ( units: m^2 ) */
(PID.TID 0000.0001)                 6.470963377080289E+07,      /* J =  1 */
(PID.TID 0000.0001)                 6.534679484410104E+07,      /* J =  2 */
(PID.TID 0000.0001)                 6.598375685977945E+07,      /* J =  3 */
(PID.TID 0000.0001)      . . .
(PID.TID 0000.0001)                 7.867821163932665E+07,      /* J = 23 */
(PID.TID 0000.0001)                 7.931054622142966E+07,      /* J = 24 */
(PID.TID 0000.0001)                 7.994263920984067E+07,      /* J = 25 */
(PID.TID 0000.0001)                 8.057448867913349E+07,      /* J = 26 */
(PID.TID 0000.0001)                 8.120609270456599E+07,      /* J = 27 */
(PID.TID 0000.0001)                 8.183744936212724E+07,      /* J = 28 */
(PID.TID 0000.0001)      . . .
(PID.TID 0000.0001)                 9.440967921416211E+07,      /* J = 48 */
(PID.TID 0000.0001)                 9.503539809503193E+07,      /* J = 49 */
(PID.TID 0000.0001)                 9.566082748163140E+07,      /* J = 50 */
(PID.TID 0000.0001)                 9.628596546870193E+07,      /* J = 51 */
(PID.TID 0000.0001)                 9.691081015209354E+07,      /* J = 52 */
(PID.TID 0000.0001)                 9.753535962826957E+07,      /* J = 53 */
(PID.TID 0000.0001)      . . .
(PID.TID 0000.0001)                 1.099614325987181E+08,      /* J = 73 */
(PID.TID 0000.0001)                 1.105793446869293E+08,      /* J = 74 */
(PID.TID 0000.0001)                 1.111969199312560E+08,      /* J = 75 */
(PID.TID 0000.0001)                 1.118141564504991E+08,      /* J = 76 */
(PID.TID 0000.0001)                 1.124310523644033E+08,      /* J = 77 */
(PID.TID 0000.0001)                 1.130476057938687E+08,      /* J = 78 */
(PID.TID 0000.0001)      . . .
(PID.TID 0000.0001)                 1.253038681465364E+08,      /* J = 98 */
(PID.TID 0000.0001)                 1.259127972112936E+08,      /* J = 99 */
(PID.TID 0000.0001)                 1.265213427237870E+08       /* J =100 */
(PID.TID 0000.0001)     ;
(PID.TID 0000.0001) rAw =  /* rAw(:,1,:,1) ( units: m^2 ) */
(PID.TID 0000.0001)    50 @  6.470963377080289E+07              /* I =  1: 50 */
(PID.TID 0000.0001)     ;
(PID.TID 0000.0001) rAw =  /* rAw(1,:,1,:) ( units: m^2 ) */
(PID.TID 0000.0001)                 6.470963377080289E+07,      /* J =  1 */
(PID.TID 0000.0001)                 6.534679484410104E+07,      /* J =  2 */
(PID.TID 0000.0001)                 6.598375685977945E+07,      /* J =  3 */
(PID.TID 0000.0001)      . . .
(PID.TID 0000.0001)                 7.867821163932665E+07,      /* J = 23 */
(PID.TID 0000.0001)                 7.931054622142966E+07,      /* J = 24 */
(PID.TID 0000.0001)                 7.994263920984067E+07,      /* J = 25 */
(PID.TID 0000.0001)                 8.057448867913349E+07,      /* J = 26 */
(PID.TID 0000.0001)                 8.120609270456599E+07,      /* J = 27 */
(PID.TID 0000.0001)                 8.183744936212724E+07,      /* J = 28 */
(PID.TID 0000.0001)      . . .
(PID.TID 0000.0001)                 9.440967921416211E+07,      /* J = 48 */
(PID.TID 0000.0001)                 9.503539809503193E+07,      /* J = 49 */
(PID.TID 0000.0001)                 9.566082748163140E+07,      /* J = 50 */
(PID.TID 0000.0001)                 9.628596546870193E+07,      /* J = 51 */
(PID.TID 0000.0001)                 9.691081015209354E+07,      /* J = 52 */
(PID.TID 0000.0001)                 9.753535962826957E+07,      /* J = 53 */
(PID.TID 0000.0001)      . . .
(PID.TID 0000.0001)                 1.099614325987181E+08,      /* J = 73 */
(PID.TID 0000.0001)                 1.105793446869293E+08,      /* J = 74 */
(PID.TID 0000.0001)                 1.111969199312560E+08,      /* J = 75 */
(PID.TID 0000.0001)                 1.118141564504991E+08,      /* J = 76 */
(PID.TID 0000.0001)                 1.124310523644033E+08,      /* J = 77 */
(PID.TID 0000.0001)                 1.130476057938687E+08,      /* J = 78 */
(PID.TID 0000.0001)      . . .
(PID.TID 0000.0001)                 1.253038681465364E+08,      /* J = 98 */
(PID.TID 0000.0001)                 1.259127972112936E+08,      /* J = 99 */
(PID.TID 0000.0001)                 1.265213427237870E+08       /* J =100 */
(PID.TID 0000.0001)     ;
(PID.TID 0000.0001) rAs =  /* rAs(:,1,:,1) ( units: m^2 ) */
(PID.TID 0000.0001)    50 @  6.439097919401864E+07              /* I =  1: 50 */
(PID.TID 0000.0001)     ;
(PID.TID 0000.0001) rAs =  /* rAs(1,:,1,:) ( units: m^2 ) */
(PID.TID 0000.0001)                 6.439097919401864E+07,      /* J =  1 */
(PID.TID 0000.0001)                 6.502823906837179E+07,      /* J =  2 */
(PID.TID 0000.0001)                 6.566530085543716E+07,      /* J =  3 */
(PID.TID 0000.0001)      . . .
(PID.TID 0000.0001)                 7.836195435256335E+07,      /* J = 23 */
(PID.TID 0000.0001)                 7.899440900921808E+07,      /* J = 24 */
(PID.TID 0000.0001)                 7.962662303520055E+07,      /* J = 25 */
(PID.TID 0000.0001)                 8.025859450470714E+07,      /* J = 26 */
(PID.TID 0000.0001)                 8.089032149259475E+07,      /* J = 27 */
(PID.TID 0000.0001)                 8.152180207452223E+07,      /* J = 28 */
(PID.TID 0000.0001)      . . .
(PID.TID 0000.0001)                 9.409671180895932E+07,      /* J = 48 */
(PID.TID 0000.0001)                 9.472257472228888E+07,      /* J = 49 */
(PID.TID 0000.0001)                 9.534814909420149E+07,      /* J = 50 */
(PID.TID 0000.0001)                 9.597343301913190E+07,      /* J = 51 */
(PID.TID 0000.0001)                 9.659842459236403E+07,      /* J = 52 */
(PID.TID 0000.0001)                 9.722312190998378E+07,      /* J = 53 */
(PID.TID 0000.0001)      . . .
(PID.TID 0000.0001)                 1.096523508263446E+08,      /* J = 73 */
(PID.TID 0000.0001)                 1.102704306306916E+08,      /* J = 74 */
(PID.TID 0000.0001)                 1.108881745321664E+08,      /* J = 75 */
(PID.TID 0000.0001)                 1.115055806490511E+08,      /* J = 76 */
(PID.TID 0000.0001)                 1.121226471005947E+08,      /* J = 77 */
(PID.TID 0000.0001)                 1.127393720071080E+08,      /* J = 78 */
(PID.TID 0000.0001)      . . .
(PID.TID 0000.0001)                 1.249992603617116E+08,      /* J = 98 */
(PID.TID 0000.0001)                 1.256083805070198E+08,      /* J = 99 */
(PID.TID 0000.0001)                 1.262171180274426E+08       /* J =100 */
(PID.TID 0000.0001)     ;
(PID.TID 0000.0001) globalArea = /* Integrated horizontal Area (m^2) */
(PID.TID 0000.0001)                 4.665024516720134E+11
(PID.TID 0000.0001)     ;
(PID.TID 0000.0001) // =======================================================
(PID.TID 0000.0001) // End of Model config. summary
(PID.TID 0000.0001) // =======================================================
(PID.TID 0000.0001) 
(PID.TID 0000.0001) == Packages configuration : Check & print summary ==
(PID.TID 0000.0001) 
(PID.TID 0000.0001) SHELFICE_CHECK: #define ALLOW_SHELFICE
(PID.TID 0000.0001) CTRL_CHECK: ctrl package
(PID.TID 0000.0001) COST_CHECK: cost package
(PID.TID 0000.0001) GRDCHK_CHECK: grdchk package
(PID.TID 0000.0001) GAD_CHECK: #define ALLOW_GENERIC_ADVDIFF
(PID.TID 0000.0001) // =======================================================
(PID.TID 0000.0001) // CONFIG_CHECK : Normal End
(PID.TID 0000.0001) // =======================================================
(PID.TID 0000.0001) 
(PID.TID 0000.0001) INI_CG2D: CG2D normalisation factor =  1.0404366262810520E-03
(PID.TID 0000.0001) 
(PID.TID 0000.0001)  nRecords = 243 ; filePrec =  64 ; fileIter =      8640
(PID.TID 0000.0001)     nDims =   2 , dims:
(PID.TID 0000.0001)    1:  50   1  50
(PID.TID 0000.0001)    2: 100   1 100
(PID.TID 0000.0001)     nFlds =  11 , nFl3D =   8 , fields:
(PID.TID 0000.0001)  >Uvel    < >Vvel    < >Theta   < >Salt    < >GuNm1   < >GvNm1   < >GtNm1   < >GsNm1   < >EtaN    < >dEtaHdt < >EtaH    <
(PID.TID 0000.0001)   nTimRec =   0 , timeList:
(PID.TID 0000.0001) READ_MFLDS_3D_RL: read field: "Uvel    ", #   1 in fldList, rec=   1
(PID.TID 0000.0001) READ_MFLDS_3D_RL: read field: "Vvel    ", #   2 in fldList, rec=   2
(PID.TID 0000.0001) READ_MFLDS_3D_RL: read field: "Theta   ", #   3 in fldList, rec=   3
(PID.TID 0000.0001) READ_MFLDS_3D_RL: read field: "Salt    ", #   4 in fldList, rec=   4
(PID.TID 0000.0001) READ_MFLDS_3D_RL: read field: "GuNm1   ", #   5 in fldList, rec=   5
(PID.TID 0000.0001) READ_MFLDS_3D_RL: read field: "GvNm1   ", #   6 in fldList, rec=   6
(PID.TID 0000.0001) READ_MFLDS_3D_RL: read field: "GtNm1   ", #   7 in fldList, rec=   7
(PID.TID 0000.0001) READ_MFLDS_3D_RL: read field: "GsNm1   ", #   8 in fldList, rec=   8
(PID.TID 0000.0001) READ_MFLDS_3D_RL: read field: "EtaN    ", #   9 in fldList, rec= 241
(PID.TID 0000.0001) READ_MFLDS_3D_RL: read field: "dEtaHdt ", #  10 in fldList, rec= 242
(PID.TID 0000.0001) READ_MFLDS_3D_RL: read field: "EtaH    ", #  11 in fldList, rec= 243
(PID.TID 0000.0001) READ_MFLDS_CHECK: - normal end ; reset MFLDS file-name: pickup.0000008640
 SURF_ADJUSTMENT: Iter=        -1 Nb_pts,Vol=       343  8.64061790E+10
 SURF_ADJUSTMENT: Iter=      8640 Nb_pts,Vol=       343  8.64061794E+10
(PID.TID 0000.0001) // =======================================================
(PID.TID 0000.0001) // Begin MONITOR dynamic field statistics
(PID.TID 0000.0001) // =======================================================
(PID.TID 0000.0001) %MON time_tsnumber                =                  8640
(PID.TID 0000.0001) %MON time_secondsf                =   1.5552000000000E+07
(PID.TID 0000.0001) %MON dynstat_eta_max              =   1.1547478263152E-02
(PID.TID 0000.0001) %MON dynstat_eta_min              =  -2.6792518859505E-03
(PID.TID 0000.0001) %MON dynstat_eta_mean             =  -2.8068109805926E-16
(PID.TID 0000.0001) %MON dynstat_eta_sd               =   1.0200397966504E-03
(PID.TID 0000.0001) %MON dynstat_eta_del2             =   2.5371559200346E-05
(PID.TID 0000.0001) %MON dynstat_uvel_max             =   7.0225293882088E-03
(PID.TID 0000.0001) %MON dynstat_uvel_min             =  -1.1431056075099E-02
(PID.TID 0000.0001) %MON dynstat_uvel_mean            =   2.7714308408867E-05
(PID.TID 0000.0001) %MON dynstat_uvel_sd              =   1.1597613875186E-03
(PID.TID 0000.0001) %MON dynstat_uvel_del2            =   1.3535706652903E-06
(PID.TID 0000.0001) %MON dynstat_vvel_max             =   3.9338955473099E-02
(PID.TID 0000.0001) %MON dynstat_vvel_min             =  -1.3256941080851E-02
(PID.TID 0000.0001) %MON dynstat_vvel_mean            =   4.8656105946971E-07
(PID.TID 0000.0001) %MON dynstat_vvel_sd              =   2.7777746829805E-03
(PID.TID 0000.0001) %MON dynstat_vvel_del2            =   4.9315502354929E-06
(PID.TID 0000.0001) %MON dynstat_wvel_max             =   4.2878246713501E-05
(PID.TID 0000.0001) %MON dynstat_wvel_min             =  -1.2010769874736E-04
(PID.TID 0000.0001) %MON dynstat_wvel_mean            =   6.0608187872178E-12
(PID.TID 0000.0001) %MON dynstat_wvel_sd              =   4.2035962324366E-06
(PID.TID 0000.0001) %MON dynstat_wvel_del2            =   1.8678097711372E-08
(PID.TID 0000.0001) %MON dynstat_theta_max            =  -1.8364995507330E+00
(PID.TID 0000.0001) %MON dynstat_theta_min            =  -2.0000000000000E+00
(PID.TID 0000.0001) %MON dynstat_theta_mean           =  -1.9143211407061E+00
(PID.TID 0000.0001) %MON dynstat_theta_sd             =   3.1120635711534E-02
(PID.TID 0000.0001) %MON dynstat_theta_del2           =   6.3329018210602E-06
(PID.TID 0000.0001) %MON dynstat_salt_max             =   3.4425235078521E+01
(PID.TID 0000.0001) %MON dynstat_salt_min             =   3.4119681589956E+01
(PID.TID 0000.0001) %MON dynstat_salt_mean            =   3.4391202129073E+01
(PID.TID 0000.0001) %MON dynstat_salt_sd              =   2.4001470464679E-02
(PID.TID 0000.0001) %MON dynstat_salt_del2            =   3.6379539423634E-06
(PID.TID 0000.0001) %MON advcfl_uvel_max              =   3.4012427019763E-03
(PID.TID 0000.0001) %MON advcfl_vvel_max              =   6.3691067728586E-03
(PID.TID 0000.0001) %MON advcfl_wvel_max              =   7.2064619248418E-03
(PID.TID 0000.0001) %MON advcfl_W_hf_max              =   7.2064619248418E-03
(PID.TID 0000.0001) %MON pe_b_mean                    =   8.1394707749097E-09
(PID.TID 0000.0001) %MON ke_max                       =   7.7392672876306E-04
(PID.TID 0000.0001) %MON ke_mean                      =   4.4718480429073E-06
(PID.TID 0000.0001) %MON ke_vol                       =   2.9250345890999E+14
(PID.TID 0000.0001) %MON vort_r_min                   =  -2.3549373278644E-06
(PID.TID 0000.0001) %MON vort_r_max                   =   4.2468259247500E-06
(PID.TID 0000.0001) %MON vort_a_mean                  =  -1.4007437274364E-04
(PID.TID 0000.0001) %MON vort_a_sd                    =   1.7886551130468E-06
(PID.TID 0000.0001) %MON vort_p_mean                  =  -1.5035286409096E-04
(PID.TID 0000.0001) %MON vort_p_sd                    =   7.4650169174600E-05
(PID.TID 0000.0001) %MON surfExpan_theta_mean         =  -8.1445679796965E-23
(PID.TID 0000.0001) %MON surfExpan_salt_mean          =   1.1664850444969E-10
(PID.TID 0000.0001) // =======================================================
(PID.TID 0000.0001) // End MONITOR dynamic field statistics
(PID.TID 0000.0001) // =======================================================
(PID.TID 0000.0001) SOLVE_FOR_PRESSURE: putPmEinXvector =    F
 cg2d: Sum(rhs),rhsMax =   7.94736970460494E-13  5.27879962774467E-02
(PID.TID 0000.0001)                    cg2d_init_res =    5.68552511024113E+00
(PID.TID 0000.0001)                       cg2d_iters =   208
(PID.TID 0000.0001)                         cg2d_res =    7.96992759281891E-14
 SURF_ADJUSTMENT: Iter=      8641 Nb_pts,Vol=       343  8.64319980E+10
(PID.TID 0000.0001) // =======================================================
(PID.TID 0000.0001) // Begin MONITOR dynamic field statistics
(PID.TID 0000.0001) // =======================================================
(PID.TID 0000.0001) %MON time_tsnumber                =                  8641
(PID.TID 0000.0001) %MON time_secondsf                =   1.5553800000000E+07
(PID.TID 0000.0001) %MON dynstat_eta_max              =   1.6226833149937E-02
(PID.TID 0000.0001) %MON dynstat_eta_min              =  -8.0241380819163E-03
(PID.TID 0000.0001) %MON dynstat_eta_mean             =  -2.8019488468198E-16
(PID.TID 0000.0001) %MON dynstat_eta_sd               =   1.0058016438335E-03
(PID.TID 0000.0001) %MON dynstat_eta_del2             =   2.6540208095402E-05
(PID.TID 0000.0001) %MON dynstat_uvel_max             =   6.9633703375320E-03
(PID.TID 0000.0001) %MON dynstat_uvel_min             =  -1.2086746113396E-02
(PID.TID 0000.0001) %MON dynstat_uvel_mean            =   2.4861869786433E-05
(PID.TID 0000.0001) %MON dynstat_uvel_sd              =   1.1698791094731E-03
(PID.TID 0000.0001) %MON dynstat_uvel_del2            =   1.7014012479410E-06
(PID.TID 0000.0001) %MON dynstat_vvel_max             =   4.1403495510507E-02
(PID.TID 0000.0001) %MON dynstat_vvel_min             =  -1.3258888217828E-02
(PID.TID 0000.0001) %MON dynstat_vvel_mean            =   4.7274491814642E-06
(PID.TID 0000.0001) %MON dynstat_vvel_sd              =   2.7807705548688E-03
(PID.TID 0000.0001) %MON dynstat_vvel_del2            =   4.9351410405172E-06
(PID.TID 0000.0001) %MON dynstat_wvel_max             =   6.3920549231317E-05
(PID.TID 0000.0001) %MON dynstat_wvel_min             =  -1.2002663948464E-04
(PID.TID 0000.0001) %MON dynstat_wvel_mean            =   3.7803244801538E-09
(PID.TID 0000.0001) %MON dynstat_wvel_sd              =   4.1390138005572E-06
(PID.TID 0000.0001) %MON dynstat_wvel_del2            =   1.8821381017469E-08
(PID.TID 0000.0001) %MON dynstat_theta_max            =  -1.8769132173046E+00
(PID.TID 0000.0001) %MON dynstat_theta_min            =  -2.0008048173444E+00
(PID.TID 0000.0001) %MON dynstat_theta_mean           =  -1.9143294480451E+00
(PID.TID 0000.0001) %MON dynstat_theta_sd             =   3.1141219549357E-02
(PID.TID 0000.0001) %MON dynstat_theta_del2           =   6.2824214318670E-06
(PID.TID 0000.0001) %MON dynstat_salt_max             =   3.4409203471327E+01
(PID.TID 0000.0001) %MON dynstat_salt_min             =   3.4119632972807E+01
(PID.TID 0000.0001) %MON dynstat_salt_mean            =   3.4391199134674E+01
(PID.TID 0000.0001) %MON dynstat_salt_sd              =   2.4013313349516E-02
(PID.TID 0000.0001) %MON dynstat_salt_del2            =   3.6399075276051E-06
(PID.TID 0000.0001) %MON advcfl_uvel_max              =   3.5963393704612E-03
(PID.TID 0000.0001) %MON advcfl_vvel_max              =   6.7033626212144E-03
(PID.TID 0000.0001) %MON advcfl_wvel_max              =   7.2015983690782E-03
(PID.TID 0000.0001) %MON advcfl_W_hf_max              =   8.2536162581703E-03
(PID.TID 0000.0001) %MON pe_b_mean                    =  -3.5881411408130E-07
(PID.TID 0000.0001) %MON ke_max                       =   7.7997968771676E-04
(PID.TID 0000.0001) %MON ke_mean                      =   4.4915588113952E-06
(PID.TID 0000.0001) %MON ke_vol                       =   2.9250345891036E+14
(PID.TID 0000.0001) %MON vort_r_min                   =  -2.3577016281591E-06
(PID.TID 0000.0001) %MON vort_r_max                   =   4.3101771129570E-06
(PID.TID 0000.0001) %MON vort_a_mean                  =  -1.4007437273731E-04
(PID.TID 0000.0001) %MON vort_a_sd                    =   1.7887997066359E-06
(PID.TID 0000.0001) %MON vort_p_mean                  =  -1.5035286408468E-04
(PID.TID 0000.0001) %MON vort_p_sd                    =   7.4646066835771E-05
(PID.TID 0000.0001) %MON surfExpan_theta_mean         =   5.0210764664980E-12
(PID.TID 0000.0001) %MON surfExpan_salt_mean          =   1.9288938370103E-09
(PID.TID 0000.0001) // =======================================================
(PID.TID 0000.0001) // End MONITOR dynamic field statistics
(PID.TID 0000.0001) // =======================================================
 cg2d: Sum(rhs),rhsMax =   6.11005712171375E-13  6.89199308780190E-02
(PID.TID 0000.0001)                    cg2d_init_res =    1.44858807877065E+01
(PID.TID 0000.0001)                       cg2d_iters =   212
(PID.TID 0000.0001)                         cg2d_res =    8.83617965661539E-14
 SURF_ADJUSTMENT: Iter=      8642 Nb_pts,Vol=       343  8.64329692E+10
(PID.TID 0000.0001) // =======================================================
(PID.TID 0000.0001) // Begin MONITOR dynamic field statistics
(PID.TID 0000.0001) // =======================================================
(PID.TID 0000.0001) %MON time_tsnumber                =                  8642
(PID.TID 0000.0001) %MON time_secondsf                =   1.5555600000000E+07
(PID.TID 0000.0001) %MON dynstat_eta_max              =   1.5140641576752E-02
(PID.TID 0000.0001) %MON dynstat_eta_min              =  -9.8789365202514E-03
(PID.TID 0000.0001) %MON dynstat_eta_mean             =  -2.8006027783401E-16
(PID.TID 0000.0001) %MON dynstat_eta_sd               =   1.0609890614564E-03
(PID.TID 0000.0001) %MON dynstat_eta_del2             =   2.7630029320666E-05
(PID.TID 0000.0001) %MON dynstat_uvel_max             =   6.8619625350790E-03
(PID.TID 0000.0001) %MON dynstat_uvel_min             =  -1.2289692191250E-02
(PID.TID 0000.0001) %MON dynstat_uvel_mean            =   2.4889012804379E-05
(PID.TID 0000.0001) %MON dynstat_uvel_sd              =   1.1768173828325E-03
(PID.TID 0000.0001) %MON dynstat_uvel_del2            =   2.0522442526311E-06
(PID.TID 0000.0001) %MON dynstat_vvel_max             =   4.1015868857362E-02
(PID.TID 0000.0001) %MON dynstat_vvel_min             =  -1.3242262524520E-02
(PID.TID 0000.0001) %MON dynstat_vvel_mean            =  -5.3877635316465E-08
(PID.TID 0000.0001) %MON dynstat_vvel_sd              =   2.7026457139520E-03
(PID.TID 0000.0001) %MON dynstat_vvel_del2            =   4.7767968853421E-06
(PID.TID 0000.0001) %MON dynstat_wvel_max             =   5.3745249719585E-05
(PID.TID 0000.0001) %MON dynstat_wvel_min             =  -1.2011650070755E-04
(PID.TID 0000.0001) %MON dynstat_wvel_mean            =   1.2331774221915E-09
(PID.TID 0000.0001) %MON dynstat_wvel_sd              =   4.0505841926647E-06
(PID.TID 0000.0001) %MON dynstat_wvel_del2            =   1.7750168294346E-08
(PID.TID 0000.0001) %MON dynstat_theta_max            =  -1.8819023609585E+00
(PID.TID 0000.0001) %MON dynstat_theta_min            =  -2.0013241951082E+00
(PID.TID 0000.0001) %MON dynstat_theta_mean           =  -1.9143349827454E+00
(PID.TID 0000.0001) %MON dynstat_theta_sd             =   3.1155261824374E-02
(PID.TID 0000.0001) %MON dynstat_theta_del2           =   6.2544063743957E-06
(PID.TID 0000.0001) %MON dynstat_salt_max             =   3.4407234110493E+01
(PID.TID 0000.0001) %MON dynstat_salt_min             =   3.4119635325981E+01
(PID.TID 0000.0001) %MON dynstat_salt_mean            =   3.4391197128969E+01
(PID.TID 0000.0001) %MON dynstat_salt_sd              =   2.4020985604874E-02
(PID.TID 0000.0001) %MON dynstat_salt_del2            =   3.6399661612296E-06
(PID.TID 0000.0001) %MON advcfl_uvel_max              =   3.6567247680712E-03
(PID.TID 0000.0001) %MON advcfl_vvel_max              =   6.6406045862794E-03
(PID.TID 0000.0001) %MON advcfl_wvel_max              =   7.2069900424528E-03
(PID.TID 0000.0001) %MON advcfl_W_hf_max              =   7.2069900424528E-03
(PID.TID 0000.0001) %MON pe_b_mean                    =  -3.7331142997493E-07
(PID.TID 0000.0001) %MON ke_max                       =   7.6317549626097E-04
(PID.TID 0000.0001) %MON ke_mean                      =   4.2878451882275E-06
(PID.TID 0000.0001) %MON ke_vol                       =   2.9250348472901E+14
(PID.TID 0000.0001) %MON vort_r_min                   =  -2.4337661627127E-06
(PID.TID 0000.0001) %MON vort_r_max                   =   4.2559570168567E-06
(PID.TID 0000.0001) %MON vort_a_mean                  =  -1.4007437268909E-04
(PID.TID 0000.0001) %MON vort_a_sd                    =   1.7870787559042E-06
(PID.TID 0000.0001) %MON vort_p_mean                  =  -1.5035285109647E-04
(PID.TID 0000.0001) %MON vort_p_sd                    =   7.4652308550146E-05
(PID.TID 0000.0001) %MON surfExpan_theta_mean         =   2.3187980793737E-12
(PID.TID 0000.0001) %MON surfExpan_salt_mean          =   4.3219939562612E-10
(PID.TID 0000.0001) // =======================================================
(PID.TID 0000.0001) // End MONITOR dynamic field statistics
(PID.TID 0000.0001) // =======================================================
 cg2d: Sum(rhs),rhsMax =   5.06591784580485E-13  8.30013910087816E-02
(PID.TID 0000.0001)                    cg2d_init_res =    1.22367464552317E+01
(PID.TID 0000.0001)                       cg2d_iters =   209
(PID.TID 0000.0001)                         cg2d_res =    9.15068455947329E-14
 SURF_ADJUSTMENT: Iter=      8643 Nb_pts,Vol=       343  8.64326326E+10
(PID.TID 0000.0001) // =======================================================
(PID.TID 0000.0001) // Begin MONITOR dynamic field statistics
(PID.TID 0000.0001) // =======================================================
(PID.TID 0000.0001) %MON time_tsnumber                =                  8643
(PID.TID 0000.0001) %MON time_secondsf                =   1.5557400000000E+07
(PID.TID 0000.0001) %MON dynstat_eta_max              =   1.5389312276396E-02
(PID.TID 0000.0001) %MON dynstat_eta_min              =  -1.1411133857927E-02
(PID.TID 0000.0001) %MON dynstat_eta_mean             =  -2.7958045291670E-16
(PID.TID 0000.0001) %MON dynstat_eta_sd               =   1.1193792787669E-03
(PID.TID 0000.0001) %MON dynstat_eta_del2             =   2.9559262647744E-05
(PID.TID 0000.0001) %MON dynstat_uvel_max             =   6.9897888597281E-03
(PID.TID 0000.0001) %MON dynstat_uvel_min             =  -1.2547995528216E-02
(PID.TID 0000.0001) %MON dynstat_uvel_mean            =   2.5056961669121E-05
(PID.TID 0000.0001) %MON dynstat_uvel_sd              =   1.2026203120045E-03
(PID.TID 0000.0001) %MON dynstat_uvel_del2            =   2.8066285904629E-06
(PID.TID 0000.0001) %MON dynstat_vvel_max             =   3.9226951757806E-02
(PID.TID 0000.0001) %MON dynstat_vvel_min             =  -1.3237275684475E-02
(PID.TID 0000.0001) %MON dynstat_vvel_mean            =  -8.1138183525434E-06
(PID.TID 0000.0001) %MON dynstat_vvel_sd              =   2.5961367420091E-03
(PID.TID 0000.0001) %MON dynstat_vvel_del2            =   4.8729966175666E-06
(PID.TID 0000.0001) %MON dynstat_wvel_max             =   4.7329008801506E-05
(PID.TID 0000.0001) %MON dynstat_wvel_min             =  -1.2022591940555E-04
(PID.TID 0000.0001) %MON dynstat_wvel_mean            =  -4.8737717221503E-09
(PID.TID 0000.0001) %MON dynstat_wvel_sd              =   4.0238984723653E-06
(PID.TID 0000.0001) %MON dynstat_wvel_del2            =   1.7398220219234E-08
(PID.TID 0000.0001) %MON dynstat_theta_max            =  -1.8848533635188E+00
(PID.TID 0000.0001) %MON dynstat_theta_min            =  -2.0018431315086E+00
(PID.TID 0000.0001) %MON dynstat_theta_mean           =  -1.9143405064945E+00
(PID.TID 0000.0001) %MON dynstat_theta_sd             =   3.1169337348786E-02
(PID.TID 0000.0001) %MON dynstat_theta_del2           =   6.2272389278037E-06
(PID.TID 0000.0001) %MON dynstat_salt_max             =   3.4406074296640E+01
(PID.TID 0000.0001) %MON dynstat_salt_min             =   3.4119636691142E+01
(PID.TID 0000.0001) %MON dynstat_salt_mean            =   3.4391195135808E+01
(PID.TID 0000.0001) %MON dynstat_salt_sd              =   2.4028643116673E-02
(PID.TID 0000.0001) %MON dynstat_salt_del2            =   3.6396772776254E-06
(PID.TID 0000.0001) %MON advcfl_uvel_max              =   3.7118990612770E-03
(PID.TID 0000.0001) %MON advcfl_vvel_max              =   6.3509730015604E-03
(PID.TID 0000.0001) %MON advcfl_wvel_max              =   7.2135551643332E-03
(PID.TID 0000.0001) %MON advcfl_W_hf_max              =   7.2135551643332E-03
(PID.TID 0000.0001) %MON pe_b_mean                    =  -4.1746643390907E-07
(PID.TID 0000.0001) %MON ke_max                       =   7.4853490060948E-04
(PID.TID 0000.0001) %MON ke_mean                      =   4.0390860887907E-06
(PID.TID 0000.0001) %MON ke_vol                       =   2.9250348570023E+14
(PID.TID 0000.0001) %MON vort_r_min                   =  -2.6070687913946E-06
(PID.TID 0000.0001) %MON vort_r_max                   =   4.1698918357883E-06
(PID.TID 0000.0001) %MON vort_a_mean                  =  -1.4007437251774E-04
(PID.TID 0000.0001) %MON vort_a_sd                    =   1.7855674723918E-06
(PID.TID 0000.0001) %MON vort_p_mean                  =  -1.5035285067660E-04
(PID.TID 0000.0001) %MON vort_p_sd                    =   7.4661334544965E-05
(PID.TID 0000.0001) %MON surfExpan_theta_mean         =  -1.0273512528212E-11
(PID.TID 0000.0001) %MON surfExpan_salt_mean          =  -9.2503300305886E-10
(PID.TID 0000.0001) // =======================================================
(PID.TID 0000.0001) // End MONITOR dynamic field statistics
(PID.TID 0000.0001) // =======================================================
 cg2d: Sum(rhs),rhsMax =   4.28860072454462E-13  9.80469288742860E-02
(PID.TID 0000.0001)                    cg2d_init_res =    1.08092741881036E+01
(PID.TID 0000.0001)                       cg2d_iters =   208
(PID.TID 0000.0001)                         cg2d_res =    9.44018845588888E-14
 SURF_ADJUSTMENT: Iter=      8644 Nb_pts,Vol=       343  8.64311182E+10
(PID.TID 0000.0001) // =======================================================
(PID.TID 0000.0001) // Begin MONITOR dynamic field statistics
(PID.TID 0000.0001) // =======================================================
(PID.TID 0000.0001) %MON time_tsnumber                =                  8644
(PID.TID 0000.0001) %MON time_secondsf                =   1.5559200000000E+07
(PID.TID 0000.0001) %MON dynstat_eta_max              =   1.7507063837216E-02
(PID.TID 0000.0001) %MON dynstat_eta_min              =  -1.3010111432684E-02
(PID.TID 0000.0001) %MON dynstat_eta_mean             =  -2.7968562959361E-16
(PID.TID 0000.0001) %MON dynstat_eta_sd               =   1.1898558039395E-03
(PID.TID 0000.0001) %MON dynstat_eta_del2             =   3.1795598856754E-05
(PID.TID 0000.0001) %MON dynstat_uvel_max             =   1.1362984494830E-02
(PID.TID 0000.0001) %MON dynstat_uvel_min             =  -1.7357414285709E-02
(PID.TID 0000.0001) %MON dynstat_uvel_mean            =   2.4203550579227E-05
(PID.TID 0000.0001) %MON dynstat_uvel_sd              =   1.2614601607773E-03
(PID.TID 0000.0001) %MON dynstat_uvel_del2            =   3.8849889288207E-06
(PID.TID 0000.0001) %MON dynstat_vvel_max             =   3.8603272383700E-02
(PID.TID 0000.0001) %MON dynstat_vvel_min             =  -1.3250784504381E-02
(PID.TID 0000.0001) %MON dynstat_vvel_mean            =  -1.7669345581373E-05
(PID.TID 0000.0001) %MON dynstat_vvel_sd              =   2.4845754022818E-03
(PID.TID 0000.0001) %MON dynstat_vvel_del2            =   5.4520532147043E-06
(PID.TID 0000.0001) %MON dynstat_wvel_max             =   4.5467702479024E-05
(PID.TID 0000.0001) %MON dynstat_wvel_min             =  -1.2036535195203E-04
(PID.TID 0000.0001) %MON dynstat_wvel_mean            =  -1.0388009491496E-08
(PID.TID 0000.0001) %MON dynstat_wvel_sd              =   4.0331308709678E-06
(PID.TID 0000.0001) %MON dynstat_wvel_del2            =   1.7307525569081E-08
(PID.TID 0000.0001) %MON dynstat_theta_max            =  -1.8867199646286E+00
(PID.TID 0000.0001) %MON dynstat_theta_min            =  -2.0023614264471E+00
(PID.TID 0000.0001) %MON dynstat_theta_mean           =  -1.9143460243347E+00
(PID.TID 0000.0001) %MON dynstat_theta_sd             =   3.1183436736544E-02
(PID.TID 0000.0001) %MON dynstat_theta_del2           =   6.2007161899166E-06
(PID.TID 0000.0001) %MON dynstat_salt_max             =   3.4405345372868E+01
(PID.TID 0000.0001) %MON dynstat_salt_min             =   3.4119639732627E+01
(PID.TID 0000.0001) %MON dynstat_salt_mean            =   3.4391193144488E+01
(PID.TID 0000.0001) %MON dynstat_salt_sd              =   2.4036299269337E-02
(PID.TID 0000.0001) %MON dynstat_salt_del2            =   3.6393702545036E-06
(PID.TID 0000.0001) %MON advcfl_uvel_max              =   4.8440865410018E-03
(PID.TID 0000.0001) %MON advcfl_vvel_max              =   6.2499972517486E-03
(PID.TID 0000.0001) %MON advcfl_wvel_max              =   7.2219211171217E-03
(PID.TID 0000.0001) %MON advcfl_W_hf_max              =   7.2219211171217E-03
(PID.TID 0000.0001) %MON pe_b_mean                    =  -4.9953419373904E-07
(PID.TID 0000.0001) %MON ke_max                       =   7.2970660726630E-04
(PID.TID 0000.0001) %MON ke_mean                      =   3.8301261419846E-06
(PID.TID 0000.0001) %MON ke_vol                       =   2.9250348536364E+14
(PID.TID 0000.0001) %MON vort_r_min                   =  -2.8328934493883E-06
(PID.TID 0000.0001) %MON vort_r_max                   =   4.4072041602838E-06
(PID.TID 0000.0001) %MON vort_a_mean                  =  -1.4007437210082E-04
(PID.TID 0000.0001) %MON vort_a_sd                    =   1.7854047309914E-06
(PID.TID 0000.0001) %MON vort_p_mean                  =  -1.5035285057842E-04
(PID.TID 0000.0001) %MON vort_p_sd                    =   7.4673366210439E-05
(PID.TID 0000.0001) %MON surfExpan_theta_mean         =  -2.8279418515448E-11
(PID.TID 0000.0001) %MON surfExpan_salt_mean          =  -2.0714754954281E-09
(PID.TID 0000.0001) // =======================================================
(PID.TID 0000.0001) // End MONITOR dynamic field statistics
(PID.TID 0000.0001) // =======================================================
 cg2d: Sum(rhs),rhsMax =   3.66527663255012E-13  1.14437154543359E-01
(PID.TID 0000.0001)                    cg2d_init_res =    9.68770022757992E+00
(PID.TID 0000.0001)                       cg2d_iters =   209
(PID.TID 0000.0001)                         cg2d_res =    7.98446650012343E-14
 SURF_ADJUSTMENT: Iter=      8645 Nb_pts,Vol=       343  8.64283652E+10
(PID.TID 0000.0001) // =======================================================
(PID.TID 0000.0001) // Begin MONITOR dynamic field statistics
(PID.TID 0000.0001) // =======================================================
(PID.TID 0000.0001) %MON time_tsnumber                =                  8645
(PID.TID 0000.0001) %MON time_secondsf                =   1.5561000000000E+07
(PID.TID 0000.0001) %MON dynstat_eta_max              =   1.9836478445509E-02
(PID.TID 0000.0001) %MON dynstat_eta_min              =  -1.4852556806783E-02
(PID.TID 0000.0001) %MON dynstat_eta_mean             =  -2.8094863145716E-16
(PID.TID 0000.0001) %MON dynstat_eta_sd               =   1.2865086155691E-03
(PID.TID 0000.0001) %MON dynstat_eta_del2             =   3.4561261451779E-05
(PID.TID 0000.0001) %MON dynstat_uvel_max             =   1.6867163553933E-02
(PID.TID 0000.0001) %MON dynstat_uvel_min             =  -2.2757013326620E-02
(PID.TID 0000.0001) %MON dynstat_uvel_mean            =   2.2137877596446E-05
(PID.TID 0000.0001) %MON dynstat_uvel_sd              =   1.3575550822729E-03
(PID.TID 0000.0001) %MON dynstat_uvel_del2            =   5.1292724604391E-06
(PID.TID 0000.0001) %MON dynstat_vvel_max             =   3.8852169447672E-02
(PID.TID 0000.0001) %MON dynstat_vvel_min             =  -1.5104141375130E-02
(PID.TID 0000.0001) %MON dynstat_vvel_mean            =  -2.6821480285046E-05
(PID.TID 0000.0001) %MON dynstat_vvel_sd              =   2.3940545644139E-03
(PID.TID 0000.0001) %MON dynstat_vvel_del2            =   6.5321458955382E-06
(PID.TID 0000.0001) %MON dynstat_wvel_max             =   5.1382719967217E-05
(PID.TID 0000.0001) %MON dynstat_wvel_min             =  -1.2053410643801E-04
(PID.TID 0000.0001) %MON dynstat_wvel_mean            =  -1.3903564244057E-08
(PID.TID 0000.0001) %MON dynstat_wvel_sd              =   4.0820640652729E-06
(PID.TID 0000.0001) %MON dynstat_wvel_del2            =   1.7550514358158E-08
(PID.TID 0000.0001) %MON dynstat_theta_max            =  -1.8880322964675E+00
(PID.TID 0000.0001) %MON dynstat_theta_min            =  -2.0028790774519E+00
(PID.TID 0000.0001) %MON dynstat_theta_mean           =  -1.9143515363294E+00
(PID.TID 0000.0001) %MON dynstat_theta_sd             =   3.1197554735726E-02
(PID.TID 0000.0001) %MON dynstat_theta_del2           =   6.1747425994146E-06
(PID.TID 0000.0001) %MON dynstat_salt_max             =   3.4404836490433E+01
(PID.TID 0000.0001) %MON dynstat_salt_min             =   3.4119643704544E+01
(PID.TID 0000.0001) %MON dynstat_salt_mean            =   3.4391191153683E+01
(PID.TID 0000.0001) %MON dynstat_salt_sd              =   2.4043957451313E-02
(PID.TID 0000.0001) %MON dynstat_salt_del2            =   3.6391707212437E-06
(PID.TID 0000.0001) %MON advcfl_uvel_max              =   6.3510002212508E-03
(PID.TID 0000.0001) %MON advcfl_vvel_max              =   6.2902945081660E-03
(PID.TID 0000.0001) %MON advcfl_wvel_max              =   7.2320463862808E-03
(PID.TID 0000.0001) %MON advcfl_W_hf_max              =   7.2320463862808E-03
(PID.TID 0000.0001) %MON pe_b_mean                    =  -6.1475622374513E-07
(PID.TID 0000.0001) %MON ke_max                       =   7.1022625338013E-04
(PID.TID 0000.0001) %MON ke_mean                      =   3.7353356818978E-06
(PID.TID 0000.0001) %MON ke_vol                       =   2.9250348384923E+14
(PID.TID 0000.0001) %MON vort_r_min                   =  -3.0472823369038E-06
(PID.TID 0000.0001) %MON vort_r_max                   =   5.7532480925235E-06
(PID.TID 0000.0001) %MON vort_a_mean                  =  -1.4007437129018E-04
(PID.TID 0000.0001) %MON vort_a_sd                    =   1.7875402865163E-06
(PID.TID 0000.0001) %MON vort_p_mean                  =  -1.5035285064553E-04
(PID.TID 0000.0001) %MON vort_p_sd                    =   7.4687668430960E-05
(PID.TID 0000.0001) %MON surfExpan_theta_mean         =  -4.5850886614181E-11
(PID.TID 0000.0001) %MON surfExpan_salt_mean          =  -2.7659231973676E-09
(PID.TID 0000.0001) // =======================================================
(PID.TID 0000.0001) // End MONITOR dynamic field statistics
(PID.TID 0000.0001) // =======================================================
 cg2d: Sum(rhs),rhsMax =   3.15309925521742E-13  1.32277265949707E-01
(PID.TID 0000.0001)                    cg2d_init_res =    8.84315022417110E+00
(PID.TID 0000.0001)                       cg2d_iters =   208
(PID.TID 0000.0001)                         cg2d_res =    8.93965480128545E-14
 SURF_ADJUSTMENT: Iter=      8646 Nb_pts,Vol=       343  8.64246885E+10
(PID.TID 0000.0001) // =======================================================
(PID.TID 0000.0001) // Begin MONITOR dynamic field statistics
(PID.TID 0000.0001) // =======================================================
(PID.TID 0000.0001) %MON time_tsnumber                =                  8646
(PID.TID 0000.0001) %MON time_secondsf                =   1.5562800000000E+07
(PID.TID 0000.0001) %MON dynstat_eta_max              =   2.2390308291906E-02
(PID.TID 0000.0001) %MON dynstat_eta_min              =  -1.6983857248474E-02
(PID.TID 0000.0001) %MON dynstat_eta_mean             =  -2.8202811482607E-16
(PID.TID 0000.0001) %MON dynstat_eta_sd               =   1.4110712481686E-03
(PID.TID 0000.0001) %MON dynstat_eta_del2             =   3.7860713267152E-05
(PID.TID 0000.0001) %MON dynstat_uvel_max             =   2.2447134251121E-02
(PID.TID 0000.0001) %MON dynstat_uvel_min             =  -2.8429048955744E-02
(PID.TID 0000.0001) %MON dynstat_uvel_mean            =   1.9233208218191E-05
(PID.TID 0000.0001) %MON dynstat_uvel_sd              =   1.4847633326221E-03
(PID.TID 0000.0001) %MON dynstat_uvel_del2            =   6.4116324319037E-06
(PID.TID 0000.0001) %MON dynstat_vvel_max             =   4.2187754468512E-02
(PID.TID 0000.0001) %MON dynstat_vvel_min             =  -2.6183597132003E-02
(PID.TID 0000.0001) %MON dynstat_vvel_mean            =  -3.3691299260704E-05
(PID.TID 0000.0001) %MON dynstat_vvel_sd              =   2.3469848700229E-03
(PID.TID 0000.0001) %MON dynstat_vvel_del2            =   7.9638195090452E-06
(PID.TID 0000.0001) %MON dynstat_wvel_max             =   5.7264846877534E-05
(PID.TID 0000.0001) %MON dynstat_wvel_min             =  -1.2071854832892E-04
(PID.TID 0000.0001) %MON dynstat_wvel_mean            =  -1.4989526045791E-08
(PID.TID 0000.0001) %MON dynstat_wvel_sd              =   4.1725027410190E-06
(PID.TID 0000.0001) %MON dynstat_wvel_del2            =   1.8138464550493E-08
(PID.TID 0000.0001) %MON dynstat_theta_max            =  -1.8889936440541E+00
(PID.TID 0000.0001) %MON dynstat_theta_min            =  -2.0033960857287E+00
(PID.TID 0000.0001) %MON dynstat_theta_mean           =  -1.9143570424894E+00
(PID.TID 0000.0001) %MON dynstat_theta_sd             =   3.1211689011137E-02
(PID.TID 0000.0001) %MON dynstat_theta_del2           =   6.1492597705719E-06
(PID.TID 0000.0001) %MON dynstat_salt_max             =   3.4404466646506E+01
(PID.TID 0000.0001) %MON dynstat_salt_min             =   3.4119646896680E+01
(PID.TID 0000.0001) %MON dynstat_salt_mean            =   3.4391189162906E+01
(PID.TID 0000.0001) %MON dynstat_salt_sd              =   2.4051618576916E-02
(PID.TID 0000.0001) %MON dynstat_salt_del2            =   3.6391246201174E-06
(PID.TID 0000.0001) %MON advcfl_uvel_max              =   7.9339451806129E-03
(PID.TID 0000.0001) %MON advcfl_vvel_max              =   6.8303367358302E-03
(PID.TID 0000.0001) %MON advcfl_wvel_max              =   7.2431128997352E-03
(PID.TID 0000.0001) %MON advcfl_W_hf_max              =   7.2431128997352E-03
(PID.TID 0000.0001) %MON pe_b_mean                    =  -7.4843459335732E-07
(PID.TID 0000.0001) %MON ke_max                       =   8.0224962121625E-04
(PID.TID 0000.0001) %MON ke_mean                      =   3.8023077000062E-06
(PID.TID 0000.0001) %MON ke_vol                       =   2.9250348109621E+14
(PID.TID 0000.0001) %MON vort_r_min                   =  -4.1142669374746E-06
(PID.TID 0000.0001) %MON vort_r_max                   =   7.1856548478264E-06
(PID.TID 0000.0001) %MON vort_a_mean                  =  -1.4007436994602E-04
(PID.TID 0000.0001) %MON vort_a_sd                    =   1.7924997441247E-06
(PID.TID 0000.0001) %MON vort_p_mean                  =  -1.5035285077641E-04
(PID.TID 0000.0001) %MON vort_p_sd                    =   7.4703494329129E-05
(PID.TID 0000.0001) %MON surfExpan_theta_mean         =  -5.7778147082476E-11
(PID.TID 0000.0001) %MON surfExpan_salt_mean          =  -2.9421533999153E-09
(PID.TID 0000.0001) // =======================================================
(PID.TID 0000.0001) // End MONITOR dynamic field statistics
(PID.TID 0000.0001) // =======================================================
 cg2d: Sum(rhs),rhsMax =   2.77044066940985E-13  1.51606738119622E-01
(PID.TID 0000.0001)                    cg2d_init_res =    8.20457582523243E+00
(PID.TID 0000.0001)                       cg2d_iters =   207
(PID.TID 0000.0001)                         cg2d_res =    8.94144617940169E-14
 SURF_ADJUSTMENT: Iter=      8647 Nb_pts,Vol=       343  8.64206708E+10
(PID.TID 0000.0001) // =======================================================
(PID.TID 0000.0001) // Begin MONITOR dynamic field statistics
(PID.TID 0000.0001) // =======================================================
(PID.TID 0000.0001) %MON time_tsnumber                =                  8647
(PID.TID 0000.0001) %MON time_secondsf                =   1.5564600000000E+07
(PID.TID 0000.0001) %MON dynstat_eta_max              =   2.5129790347631E-02
(PID.TID 0000.0001) %MON dynstat_eta_min              =  -1.9476256786572E-02
(PID.TID 0000.0001) %MON dynstat_eta_mean             =  -2.8079455977020E-16
(PID.TID 0000.0001) %MON dynstat_eta_sd               =   1.5540312909732E-03
(PID.TID 0000.0001) %MON dynstat_eta_del2             =   4.1685913080788E-05
(PID.TID 0000.0001) %MON dynstat_uvel_max             =   2.7923611187921E-02
(PID.TID 0000.0001) %MON dynstat_uvel_min             =  -3.4090003065743E-02
(PID.TID 0000.0001) %MON dynstat_uvel_mean            =   1.6029693739731E-05
(PID.TID 0000.0001) %MON dynstat_uvel_sd              =   1.6308492858321E-03
(PID.TID 0000.0001) %MON dynstat_uvel_del2            =   7.6415262005174E-06
(PID.TID 0000.0001) %MON dynstat_vvel_max             =   4.5205746765900E-02
(PID.TID 0000.0001) %MON dynstat_vvel_min             =  -3.7281977020915E-02
(PID.TID 0000.0001) %MON dynstat_vvel_mean            =  -3.6641847613882E-05
(PID.TID 0000.0001) %MON dynstat_vvel_sd              =   2.3558241633430E-03
(PID.TID 0000.0001) %MON dynstat_vvel_del2            =   9.5814706655192E-06
(PID.TID 0000.0001) %MON dynstat_wvel_max             =   6.2846001726137E-05
(PID.TID 0000.0001) %MON dynstat_wvel_min             =  -1.2090721688179E-04
(PID.TID 0000.0001) %MON dynstat_wvel_mean            =  -1.3757714889228E-08
(PID.TID 0000.0001) %MON dynstat_wvel_sd              =   4.3030380027766E-06
(PID.TID 0000.0001) %MON dynstat_wvel_del2            =   1.9039218126847E-08
(PID.TID 0000.0001) %MON dynstat_theta_max            =  -1.8897085224670E+00
(PID.TID 0000.0001) %MON dynstat_theta_min            =  -2.0039124578774E+00
(PID.TID 0000.0001) %MON dynstat_theta_mean           =  -1.9143625429322E+00
(PID.TID 0000.0001) %MON dynstat_theta_sd             =   3.1225838422522E-02
(PID.TID 0000.0001) %MON dynstat_theta_del2           =   6.1242286091696E-06
(PID.TID 0000.0001) %MON dynstat_salt_max             =   3.4404194132811E+01
(PID.TID 0000.0001) %MON dynstat_salt_min             =   3.4119648224623E+01
(PID.TID 0000.0001) %MON dynstat_salt_mean            =   3.4391187172081E+01
(PID.TID 0000.0001) %MON dynstat_salt_sd              =   2.4059281715786E-02
(PID.TID 0000.0001) %MON dynstat_salt_del2            =   3.6392665789386E-06
(PID.TID 0000.0001) %MON advcfl_uvel_max              =   9.5137975227934E-03
(PID.TID 0000.0001) %MON advcfl_vvel_max              =   7.3189596530014E-03
(PID.TID 0000.0001) %MON advcfl_wvel_max              =   7.2544330129076E-03
(PID.TID 0000.0001) %MON advcfl_W_hf_max              =   7.3158606396240E-03
(PID.TID 0000.0001) %MON pe_b_mean                    =  -8.8165871101353E-07
(PID.TID 0000.0001) %MON ke_max                       =   9.8322566677598E-04
(PID.TID 0000.0001) %MON ke_mean                      =   4.0458246458383E-06
(PID.TID 0000.0001) %MON ke_vol                       =   2.9250347741949E+14
(PID.TID 0000.0001) %MON vort_r_min                   =  -5.8581716120801E-06
(PID.TID 0000.0001) %MON vort_r_max                   =   8.7909848569040E-06
(PID.TID 0000.0001) %MON vort_a_mean                  =  -1.4007436801288E-04
(PID.TID 0000.0001) %MON vort_a_sd                    =   1.8003260688887E-06
(PID.TID 0000.0001) %MON vort_p_mean                  =  -1.5035285072984E-04
(PID.TID 0000.0001) %MON vort_p_sd                    =   7.4720073170074E-05
(PID.TID 0000.0001) %MON surfExpan_theta_mean         =  -6.0405067441803E-11
(PID.TID 0000.0001) %MON surfExpan_salt_mean          =  -2.6477466164013E-09
(PID.TID 0000.0001) // =======================================================
(PID.TID 0000.0001) // End MONITOR dynamic field statistics
(PID.TID 0000.0001) // =======================================================
 cg2d: Sum(rhs),rhsMax =   2.42853588801328E-13  1.72455774247588E-01
(PID.TID 0000.0001)                    cg2d_init_res =    7.71973784821687E+00
(PID.TID 0000.0001)                       cg2d_iters =   205
(PID.TID 0000.0001)                         cg2d_res =    9.26809203270942E-14
 SURF_ADJUSTMENT: Iter=      8648 Nb_pts,Vol=       343  8.64169962E+10
(PID.TID 0000.0001) // =======================================================
(PID.TID 0000.0001) // Begin MONITOR dynamic field statistics
(PID.TID 0000.0001) // =======================================================
(PID.TID 0000.0001) %MON time_tsnumber                =                  8648
(PID.TID 0000.0001) %MON time_secondsf                =   1.5566400000000E+07
(PID.TID 0000.0001) %MON dynstat_eta_max              =   2.7996491684463E-02
(PID.TID 0000.0001) %MON dynstat_eta_min              =  -2.2413145170106E-02
(PID.TID 0000.0001) %MON dynstat_eta_mean             =  -2.7884742704490E-16
(PID.TID 0000.0001) %MON dynstat_eta_sd               =   1.7010976576968E-03
(PID.TID 0000.0001) %MON dynstat_eta_del2             =   4.6031065223353E-05
(PID.TID 0000.0001) %MON dynstat_uvel_max             =   3.6347694256889E-02
(PID.TID 0000.0001) %MON dynstat_uvel_min             =  -3.9506839471633E-02
(PID.TID 0000.0001) %MON dynstat_uvel_mean            =   1.2959832155704E-05
(PID.TID 0000.0001) %MON dynstat_uvel_sd              =   1.7826003454410E-03
(PID.TID 0000.0001) %MON dynstat_uvel_del2            =   8.7623983908758E-06
(PID.TID 0000.0001) %MON dynstat_vvel_max             =   4.8187428222957E-02
(PID.TID 0000.0001) %MON dynstat_vvel_min             =  -4.7911861461996E-02
(PID.TID 0000.0001) %MON dynstat_vvel_mean            =  -3.4625844667731E-05
(PID.TID 0000.0001) %MON dynstat_vvel_sd              =   2.4196999566020E-03
(PID.TID 0000.0001) %MON dynstat_vvel_del2            =   1.1266351575626E-05
(PID.TID 0000.0001) %MON dynstat_wvel_max             =   6.7948909088614E-05
(PID.TID 0000.0001) %MON dynstat_wvel_min             =  -1.2109160699854E-04
(PID.TID 0000.0001) %MON dynstat_wvel_mean            =  -1.0585432142992E-08
(PID.TID 0000.0001) %MON dynstat_wvel_sd              =   4.4677044568855E-06
(PID.TID 0000.0001) %MON dynstat_wvel_del2            =   2.0188776574701E-08
(PID.TID 0000.0001) %MON dynstat_theta_max            =  -1.8902432433159E+00
(PID.TID 0000.0001) %MON dynstat_theta_min            =  -2.0044282032093E+00
(PID.TID 0000.0001) %MON dynstat_theta_mean           =  -1.9143680378503E+00
(PID.TID 0000.0001) %MON dynstat_theta_sd             =   3.1240002423695E-02
(PID.TID 0000.0001) %MON dynstat_theta_del2           =   6.0996263131784E-06
(PID.TID 0000.0001) %MON dynstat_salt_max             =   3.4403992453287E+01
(PID.TID 0000.0001) %MON dynstat_salt_min             =   3.4119647166398E+01
(PID.TID 0000.0001) %MON dynstat_salt_mean            =   3.4391185181306E+01
(PID.TID 0000.0001) %MON dynstat_salt_sd              =   2.4066945353025E-02
(PID.TID 0000.0001) %MON dynstat_salt_del2            =   3.6396217701947E-06
(PID.TID 0000.0001) %MON advcfl_uvel_max              =   1.1025521786366E-02
(PID.TID 0000.0001) %MON advcfl_vvel_max              =   7.8017037252387E-03
(PID.TID 0000.0001) %MON advcfl_wvel_max              =   7.2654964199126E-03
(PID.TID 0000.0001) %MON advcfl_W_hf_max              =   9.9327738694837E-03
(PID.TID 0000.0001) %MON pe_b_mean                    =  -9.9593104014466E-07
(PID.TID 0000.0001) %MON ke_max                       =   1.2071380823080E-03
(PID.TID 0000.0001) %MON ke_mean                      =   4.4501493527753E-06
(PID.TID 0000.0001) %MON ke_vol                       =   2.9250347340177E+14
(PID.TID 0000.0001) %MON vort_r_min                   =  -7.5284609113170E-06
(PID.TID 0000.0001) %MON vort_r_max                   =   1.0939531145226E-05
(PID.TID 0000.0001) %MON vort_a_mean                  =  -1.4007436561956E-04
(PID.TID 0000.0001) %MON vort_a_sd                    =   1.8106508882327E-06
(PID.TID 0000.0001) %MON vort_p_mean                  =  -1.5035285034640E-04
(PID.TID 0000.0001) %MON vort_p_sd                    =   7.4736623922743E-05
(PID.TID 0000.0001) %MON surfExpan_theta_mean         =  -5.1732313646094E-11
(PID.TID 0000.0001) %MON surfExpan_salt_mean          =  -1.9759724879286E-09
(PID.TID 0000.0001) // =======================================================
(PID.TID 0000.0001) // End MONITOR dynamic field statistics
(PID.TID 0000.0001) // =======================================================
 cg2d: Sum(rhs),rhsMax =   2.16874288709937E-13  1.94849583965024E-01
(PID.TID 0000.0001)                    cg2d_init_res =    7.35045117148004E+00
(PID.TID 0000.0001)                       cg2d_iters =   206
(PID.TID 0000.0001)                         cg2d_res =    9.46680595217315E-14
 SURF_ADJUSTMENT: Iter=      8649 Nb_pts,Vol=       343  8.64143155E+10
(PID.TID 0000.0001) // =======================================================
(PID.TID 0000.0001) // Begin MONITOR dynamic field statistics
(PID.TID 0000.0001) // =======================================================
(PID.TID 0000.0001) %MON time_tsnumber                =                  8649
(PID.TID 0000.0001) %MON time_secondsf                =   1.5568200000000E+07
(PID.TID 0000.0001) %MON dynstat_eta_max              =   3.0933923534518E-02
(PID.TID 0000.0001) %MON dynstat_eta_min              =  -2.5870972444472E-02
(PID.TID 0000.0001) %MON dynstat_eta_mean             =  -2.8013546701327E-16
(PID.TID 0000.0001) %MON dynstat_eta_sd               =   1.8385229202365E-03
(PID.TID 0000.0001) %MON dynstat_eta_del2             =   5.0896941649346E-05
(PID.TID 0000.0001) %MON dynstat_uvel_max             =   4.5776402497593E-02
(PID.TID 0000.0001) %MON dynstat_uvel_min             =  -4.4506440393077E-02
(PID.TID 0000.0001) %MON dynstat_uvel_mean            =   1.0295378089751E-05
(PID.TID 0000.0001) %MON dynstat_uvel_sd              =   1.9290124882319E-03
(PID.TID 0000.0001) %MON dynstat_uvel_del2            =   9.7498015851195E-06
(PID.TID 0000.0001) %MON dynstat_vvel_max             =   5.2182029884520E-02
(PID.TID 0000.0001) %MON dynstat_vvel_min             =  -5.7681442200842E-02
(PID.TID 0000.0001) %MON dynstat_vvel_mean            =  -2.7455812075558E-05
(PID.TID 0000.0001) %MON dynstat_vvel_sd              =   2.5267570046521E-03
(PID.TID 0000.0001) %MON dynstat_vvel_del2            =   1.2948280405726E-05
(PID.TID 0000.0001) %MON dynstat_wvel_max             =   7.2486597501321E-05
(PID.TID 0000.0001) %MON dynstat_wvel_min             =  -1.2126343461493E-04
(PID.TID 0000.0001) %MON dynstat_wvel_mean            =  -5.9743357928633E-09
(PID.TID 0000.0001) %MON dynstat_wvel_sd              =   4.6561845209810E-06
(PID.TID 0000.0001) %MON dynstat_wvel_del2            =   2.1510253782595E-08
(PID.TID 0000.0001) %MON dynstat_theta_max            =  -1.8906444821759E+00
(PID.TID 0000.0001) %MON dynstat_theta_min            =  -2.0049433300302E+00
(PID.TID 0000.0001) %MON dynstat_theta_mean           =  -1.9143735274596E+00
(PID.TID 0000.0001) %MON dynstat_theta_sd             =   3.1254180755525E-02
(PID.TID 0000.0001) %MON dynstat_theta_del2           =   6.0754404827377E-06
(PID.TID 0000.0001) %MON dynstat_salt_max             =   3.4403842936613E+01
(PID.TID 0000.0001) %MON dynstat_salt_min             =   3.4119643440324E+01
(PID.TID 0000.0001) %MON dynstat_salt_mean            =   3.4391183190769E+01
(PID.TID 0000.0001) %MON dynstat_salt_sd              =   2.4074607815109E-02
(PID.TID 0000.0001) %MON dynstat_salt_del2            =   3.6402029911537E-06
(PID.TID 0000.0001) %MON advcfl_uvel_max              =   1.2420804467029E-02
(PID.TID 0000.0001) %MON advcfl_vvel_max              =   9.3388159337596E-03
(PID.TID 0000.0001) %MON advcfl_wvel_max              =   7.2758060768957E-03
(PID.TID 0000.0001) %MON advcfl_W_hf_max              =   1.3303082459175E-02
(PID.TID 0000.0001) %MON pe_b_mean                    =  -1.0758420597846E-06
(PID.TID 0000.0001) %MON ke_max                       =   1.4513562811134E-03
(PID.TID 0000.0001) %MON ke_mean                      =   4.9777311552550E-06
(PID.TID 0000.0001) %MON ke_vol                       =   2.9250346972721E+14
(PID.TID 0000.0001) %MON vort_r_min                   =  -9.0635694307531E-06
(PID.TID 0000.0001) %MON vort_r_max                   =   1.3016848520052E-05
(PID.TID 0000.0001) %MON vort_a_mean                  =  -1.4007436313400E-04
(PID.TID 0000.0001) %MON vort_a_sd                    =   1.8228547509270E-06
(PID.TID 0000.0001) %MON vort_p_mean                  =  -1.5035284971107E-04
(PID.TID 0000.0001) %MON vort_p_sd                    =   7.4752403271903E-05
(PID.TID 0000.0001) %MON surfExpan_theta_mean         =  -3.1316137816489E-11
(PID.TID 0000.0001) %MON surfExpan_salt_mean          =  -1.0344974407981E-09
(PID.TID 0000.0001) // =======================================================
(PID.TID 0000.0001) // End MONITOR dynamic field statistics
(PID.TID 0000.0001) // =======================================================
 cg2d: Sum(rhs),rhsMax =   1.91141238036971E-13  2.18814297258129E-01
(PID.TID 0000.0001)                    cg2d_init_res =    7.06858129024037E+00
(PID.TID 0000.0001)                       cg2d_iters =   206
(PID.TID 0000.0001)                         cg2d_res =    8.00166052474498E-14
 SURF_ADJUSTMENT: Iter=      8650 Nb_pts,Vol=       343  8.64131524E+10
(PID.TID 0000.0001) // =======================================================
(PID.TID 0000.0001) // Begin MONITOR dynamic field statistics
(PID.TID 0000.0001) // =======================================================
(PID.TID 0000.0001) %MON time_tsnumber                =                  8650
(PID.TID 0000.0001) %MON time_secondsf                =   1.5570000000000E+07
(PID.TID 0000.0001) %MON dynstat_eta_max              =   3.3900081496625E-02
(PID.TID 0000.0001) %MON dynstat_eta_min              =  -2.9908309185187E-02
(PID.TID 0000.0001) %MON dynstat_eta_mean             =  -2.7956369984589E-16
(PID.TID 0000.0001) %MON dynstat_eta_sd               =   1.9562301854853E-03
(PID.TID 0000.0001) %MON dynstat_eta_del2             =   5.6292733506518E-05
(PID.TID 0000.0001) %MON dynstat_uvel_max             =   5.5979285300720E-02
(PID.TID 0000.0001) %MON dynstat_uvel_min             =  -4.8979924405698E-02
(PID.TID 0000.0001) %MON dynstat_uvel_mean            =   8.2189201617781E-06
(PID.TID 0000.0001) %MON dynstat_uvel_sd              =   2.0625717171881E-03
(PID.TID 0000.0001) %MON dynstat_uvel_del2            =   1.0609620351929E-05
(PID.TID 0000.0001) %MON dynstat_vvel_max             =   5.6657151343455E-02
(PID.TID 0000.0001) %MON dynstat_vvel_min             =  -6.6308961212012E-02
(PID.TID 0000.0001) %MON dynstat_vvel_mean            =  -1.5855717617362E-05
(PID.TID 0000.0001) %MON dynstat_vvel_sd              =   2.6604219265212E-03
(PID.TID 0000.0001) %MON dynstat_vvel_del2            =   1.4595405158433E-05
(PID.TID 0000.0001) %MON dynstat_wvel_max             =   7.6864091860754E-05
(PID.TID 0000.0001) %MON dynstat_wvel_min             =  -1.2141359944850E-04
(PID.TID 0000.0001) %MON dynstat_wvel_mean            =  -4.8741297184730E-10
(PID.TID 0000.0001) %MON dynstat_wvel_sd              =   4.8553406725453E-06
(PID.TID 0000.0001) %MON dynstat_wvel_del2            =   2.2931117455124E-08
(PID.TID 0000.0001) %MON dynstat_theta_max            =  -1.8909464397011E+00
(PID.TID 0000.0001) %MON dynstat_theta_min            =  -2.0054578433103E+00
(PID.TID 0000.0001) %MON dynstat_theta_mean           =  -1.9143790119617E+00
(PID.TID 0000.0001) %MON dynstat_theta_sd             =   3.1268373285301E-02
(PID.TID 0000.0001) %MON dynstat_theta_del2           =   6.0516680403056E-06
(PID.TID 0000.0001) %MON dynstat_salt_max             =   3.4403731900024E+01
(PID.TID 0000.0001) %MON dynstat_salt_min             =   3.4119636871469E+01
(PID.TID 0000.0001) %MON dynstat_salt_mean            =   3.4391181200731E+01
(PID.TID 0000.0001) %MON dynstat_salt_sd              =   2.4082267285377E-02
(PID.TID 0000.0001) %MON dynstat_salt_del2            =   3.6410129711481E-06
(PID.TID 0000.0001) %MON advcfl_uvel_max              =   1.4543853522415E-02
(PID.TID 0000.0001) %MON advcfl_vvel_max              =   1.0735639746344E-02
(PID.TID 0000.0001) %MON advcfl_wvel_max              =   7.2848159669098E-03
(PID.TID 0000.0001) %MON advcfl_W_hf_max              =   1.6743826683351E-02
(PID.TID 0000.0001) %MON pe_b_mean                    =  -1.1104237609322E-06
(PID.TID 0000.0001) %MON ke_max                       =   1.8715843807680E-03
(PID.TID 0000.0001) %MON ke_mean                      =   5.5811781411819E-06
(PID.TID 0000.0001) %MON ke_vol                       =   2.9250346704653E+14
(PID.TID 0000.0001) %MON vort_r_min                   =  -1.0419224119494E-05
(PID.TID 0000.0001) %MON vort_r_max                   =   1.4996417585057E-05
(PID.TID 0000.0001) %MON vort_a_mean                  =  -1.4007436111198E-04
(PID.TID 0000.0001) %MON vort_a_sd                    =   1.8362590517657E-06
(PID.TID 0000.0001) %MON vort_p_mean                  =  -1.5035284912085E-04
(PID.TID 0000.0001) %MON vort_p_sd                    =   7.4766765799002E-05
(PID.TID 0000.0001) %MON surfExpan_theta_mean         =  -2.4444891149655E-13
(PID.TID 0000.0001) %MON surfExpan_salt_mean          =   6.4130363314355E-11
(PID.TID 0000.0001) // =======================================================
(PID.TID 0000.0001) // End MONITOR dynamic field statistics
(PID.TID 0000.0001) // =======================================================
(PID.TID 0000.0001) %CHECKPOINT      8650 ckptA
 --> objf_shelfice(bi,bj) =  0.000000000000000D+00
 --> objf_shifwflx(bi,bj) =  0.000000000000000D+00
 --> objf_test(bi,bj)   =  0.370310276735194D+06
 --> objf_tracer(bi,bj) =  0.000000000000000D+00
 --> objf_atl(bi,bj)    =  0.000000000000000D+00
  local fc =  0.370310276735194D+06
 global fc =  0.370310276735194D+06
(PID.TID 0000.0001) SOLVE_FOR_PRESSURE: putPmEinXvector =    F
 cg2d: Sum(rhs),rhsMax =   7.94736970460494E-13  5.27879962774467E-02
 SURF_ADJUSTMENT: Iter=      8641 Nb_pts,Vol=       343  8.64319980E+10
 cg2d: Sum(rhs),rhsMax =   6.11005712171375E-13  6.89199308780190E-02
 SURF_ADJUSTMENT: Iter=      8642 Nb_pts,Vol=       343  8.64329692E+10
 cg2d: Sum(rhs),rhsMax =   5.06591784580485E-13  8.30013910087816E-02
 SURF_ADJUSTMENT: Iter=      8643 Nb_pts,Vol=       343  8.64326326E+10
 cg2d: Sum(rhs),rhsMax =   4.28860072454462E-13  9.80469288742860E-02
 SURF_ADJUSTMENT: Iter=      8644 Nb_pts,Vol=       343  8.64311182E+10
 cg2d: Sum(rhs),rhsMax =   3.66527663255012E-13  1.14437154543359E-01
 SURF_ADJUSTMENT: Iter=      8645 Nb_pts,Vol=       343  8.64283652E+10
 cg2d: Sum(rhs),rhsMax =   3.15309925521742E-13  1.32277265949707E-01
 SURF_ADJUSTMENT: Iter=      8646 Nb_pts,Vol=       343  8.64246885E+10
 cg2d: Sum(rhs),rhsMax =   2.77044066940985E-13  1.51606738119622E-01
 SURF_ADJUSTMENT: Iter=      8647 Nb_pts,Vol=       343  8.64206708E+10
 cg2d: Sum(rhs),rhsMax =   2.42853588801328E-13  1.72455774247588E-01
 SURF_ADJUSTMENT: Iter=      8648 Nb_pts,Vol=       343  8.64169962E+10
 cg2d: Sum(rhs),rhsMax =   2.16874288709937E-13  1.94849583965024E-01
 SURF_ADJUSTMENT: Iter=      8649 Nb_pts,Vol=       343  8.64143155E+10
 cg2d: Sum(rhs),rhsMax =   1.91141238036971E-13  2.18814297258129E-01
 SURF_ADJUSTMENT: Iter=      8650 Nb_pts,Vol=       343  8.64131524E+10
(PID.TID 0000.0001) Did not write pickup because writePickupAtEnd = FALSE
 cg2d: Sum(rhs),rhsMax =   2.16874288709937E-13  1.94849583965024E-01
 SURF_ADJUSTMENT: Iter=      8649 Nb_pts,Vol=       343  8.64143155E+10
 cg2d: Sum(rhs),rhsMax =   1.91141238036971E-13  2.18814297258129E-01
 SURF_ADJUSTMENT: Iter=      8650 Nb_pts,Vol=       343  8.64131524E+10
(PID.TID 0000.0001) Did not write pickup because writePickupAtEnd = FALSE
 cg2d: Sum(rhs),rhsMax =   1.91141238036971E-13  2.18814297258129E-01
(PID.TID 0000.0001) Did not write pickup because writePickupAtEnd = FALSE
(PID.TID 0000.0001) // =======================================================
(PID.TID 0000.0001) // Begin MONITOR dynamic field statistics
(PID.TID 0000.0001) // =======================================================
(PID.TID 0000.0001) %MON ad_time_tsnumber             =                  8650
(PID.TID 0000.0001) %MON ad_time_secondsf             =   1.5570000000000E+07
(PID.TID 0000.0001) %MON ad_dynstat_adeta_max         =   0.0000000000000E+00
(PID.TID 0000.0001) %MON ad_dynstat_adeta_min         =   0.0000000000000E+00
(PID.TID 0000.0001) %MON ad_dynstat_adeta_mean        =   0.0000000000000E+00
(PID.TID 0000.0001) %MON ad_dynstat_adeta_sd          =   0.0000000000000E+00
(PID.TID 0000.0001) %MON ad_dynstat_adeta_del2        =   0.0000000000000E+00
(PID.TID 0000.0001) %MON ad_dynstat_aduvel_max        =   0.0000000000000E+00
(PID.TID 0000.0001) %MON ad_dynstat_aduvel_min        =   0.0000000000000E+00
(PID.TID 0000.0001) %MON ad_dynstat_aduvel_mean       =   0.0000000000000E+00
(PID.TID 0000.0001) %MON ad_dynstat_aduvel_sd         =   0.0000000000000E+00
(PID.TID 0000.0001) %MON ad_dynstat_aduvel_del2       =   0.0000000000000E+00
(PID.TID 0000.0001) %MON ad_dynstat_advvel_max        =   0.0000000000000E+00
(PID.TID 0000.0001) %MON ad_dynstat_advvel_min        =   0.0000000000000E+00
(PID.TID 0000.0001) %MON ad_dynstat_advvel_mean       =   0.0000000000000E+00
(PID.TID 0000.0001) %MON ad_dynstat_advvel_sd         =   0.0000000000000E+00
(PID.TID 0000.0001) %MON ad_dynstat_advvel_del2       =   0.0000000000000E+00
(PID.TID 0000.0001) %MON ad_dynstat_adwvel_max        =   0.0000000000000E+00
(PID.TID 0000.0001) %MON ad_dynstat_adwvel_min        =   0.0000000000000E+00
(PID.TID 0000.0001) %MON ad_dynstat_adwvel_mean       =   0.0000000000000E+00
(PID.TID 0000.0001) %MON ad_dynstat_adwvel_sd         =   0.0000000000000E+00
(PID.TID 0000.0001) %MON ad_dynstat_adwvel_del2       =   0.0000000000000E+00
(PID.TID 0000.0001) %MON ad_dynstat_adtheta_max       =  -3.7818928794022E+00
(PID.TID 0000.0001) %MON ad_dynstat_adtheta_min       =  -4.0109156866207E+00
(PID.TID 0000.0001) %MON ad_dynstat_adtheta_mean      =  -3.8287580239234E+00
(PID.TID 0000.0001) %MON ad_dynstat_adtheta_sd        =   6.2536746570603E-02
(PID.TID 0000.0001) %MON ad_dynstat_adtheta_del2      =   1.2103336080611E-05
(PID.TID 0000.0001) %MON ad_dynstat_adsalt_max        =   0.0000000000000E+00
(PID.TID 0000.0001) %MON ad_dynstat_adsalt_min        =   0.0000000000000E+00
(PID.TID 0000.0001) %MON ad_dynstat_adsalt_mean       =   0.0000000000000E+00
(PID.TID 0000.0001) %MON ad_dynstat_adsalt_sd         =   0.0000000000000E+00
(PID.TID 0000.0001) %MON ad_dynstat_adsalt_del2       =   0.0000000000000E+00
(PID.TID 0000.0001) %MON ad_dynstat_adsst_max         =   0.0000000000000E+00
(PID.TID 0000.0001) %MON ad_dynstat_adsst_min         =   0.0000000000000E+00
(PID.TID 0000.0001) %MON ad_dynstat_adsst_mean        =   0.0000000000000E+00
(PID.TID 0000.0001) %MON ad_dynstat_adsst_sd          =   0.0000000000000E+00
(PID.TID 0000.0001) %MON ad_dynstat_adsst_del2        =   0.0000000000000E+00
(PID.TID 0000.0001) %MON ad_dynstat_adsss_max         =   0.0000000000000E+00
(PID.TID 0000.0001) %MON ad_dynstat_adsss_min         =   0.0000000000000E+00
(PID.TID 0000.0001) %MON ad_dynstat_adsss_mean        =   0.0000000000000E+00
(PID.TID 0000.0001) %MON ad_dynstat_adsss_sd          =   0.0000000000000E+00
(PID.TID 0000.0001) %MON ad_dynstat_adsss_del2        =   0.0000000000000E+00
(PID.TID 0000.0001) %MON ad_forcing_adqnet_max        =   0.0000000000000E+00
(PID.TID 0000.0001) %MON ad_forcing_adqnet_min        =   0.0000000000000E+00
(PID.TID 0000.0001) %MON ad_forcing_adqnet_mean       =   0.0000000000000E+00
(PID.TID 0000.0001) %MON ad_forcing_adqnet_sd         =   0.0000000000000E+00
(PID.TID 0000.0001) %MON ad_forcing_adqnet_del2       =   0.0000000000000E+00
(PID.TID 0000.0001) %MON ad_forcing_adempmr_max       =   0.0000000000000E+00
(PID.TID 0000.0001) %MON ad_forcing_adempmr_min       =   0.0000000000000E+00
(PID.TID 0000.0001) %MON ad_forcing_adempmr_mean      =   0.0000000000000E+00
(PID.TID 0000.0001) %MON ad_forcing_adempmr_sd        =   0.0000000000000E+00
(PID.TID 0000.0001) %MON ad_forcing_adempmr_del2      =   0.0000000000000E+00
(PID.TID 0000.0001) %MON ad_forcing_adfu_max          =   0.0000000000000E+00
(PID.TID 0000.0001) %MON ad_forcing_adfu_min          =   0.0000000000000E+00
(PID.TID 0000.0001) %MON ad_forcing_adfu_mean         =   0.0000000000000E+00
(PID.TID 0000.0001) %MON ad_forcing_adfu_sd           =   0.0000000000000E+00
(PID.TID 0000.0001) %MON ad_forcing_adfu_del2         =   0.0000000000000E+00
(PID.TID 0000.0001) %MON ad_forcing_adfv_max          =   0.0000000000000E+00
(PID.TID 0000.0001) %MON ad_forcing_adfv_min          =   0.0000000000000E+00
(PID.TID 0000.0001) %MON ad_forcing_adfv_mean         =   0.0000000000000E+00
(PID.TID 0000.0001) %MON ad_forcing_adfv_sd           =   0.0000000000000E+00
(PID.TID 0000.0001) %MON ad_forcing_adfv_del2         =   0.0000000000000E+00
(PID.TID 0000.0001) %MON ad_advcfl_aduvel_max         =   0.0000000000000E+00
(PID.TID 0000.0001) %MON ad_advcfl_advvel_max         =   0.0000000000000E+00
(PID.TID 0000.0001) %MON ad_advcfl_adwvel_max         =   0.0000000000000E+00
(PID.TID 0000.0001) %MON ad_advcfl_adW_hf_max         =   0.0000000000000E+00
(PID.TID 0000.0001) // =======================================================
(PID.TID 0000.0001) // End MONITOR dynamic field statistics
(PID.TID 0000.0001) // =======================================================
 cg2d: Sum(rhs),rhsMax =   2.90323320939478E-14  1.42030927712371E-05
 cg2d: Sum(rhs),rhsMax =   2.16874288709937E-13  1.94849583965024E-01
(PID.TID 0000.0001) // =======================================================
(PID.TID 0000.0001) // Begin MONITOR dynamic field statistics
(PID.TID 0000.0001) // =======================================================
(PID.TID 0000.0001) %MON ad_time_tsnumber             =                  8649
(PID.TID 0000.0001) %MON ad_time_secondsf             =   1.5568200000000E+07
(PID.TID 0000.0001) %MON ad_dynstat_adeta_max         =   9.7832278551151E-03
(PID.TID 0000.0001) %MON ad_dynstat_adeta_min         =  -1.2943306234167E-02
(PID.TID 0000.0001) %MON ad_dynstat_adeta_mean        =  -1.2534733132838E-07
(PID.TID 0000.0001) %MON ad_dynstat_adeta_sd          =   1.6216318217386E-03
(PID.TID 0000.0001) %MON ad_dynstat_adeta_del2        =   2.3574358103389E-05
(PID.TID 0000.0001) %MON ad_dynstat_aduvel_max        =   4.0169910539615E-04
(PID.TID 0000.0001) %MON ad_dynstat_aduvel_min        =  -3.0804276475877E-04
(PID.TID 0000.0001) %MON ad_dynstat_aduvel_mean       =  -1.0041882189553E-06
(PID.TID 0000.0001) %MON ad_dynstat_aduvel_sd         =   8.9472052911439E-06
(PID.TID 0000.0001) %MON ad_dynstat_aduvel_del2       =   2.7974932719294E-08
(PID.TID 0000.0001) %MON ad_dynstat_advvel_max        =   8.6632226256405E-04
(PID.TID 0000.0001) %MON ad_dynstat_advvel_min        =  -7.7810480400011E-04
(PID.TID 0000.0001) %MON ad_dynstat_advvel_mean       =   4.0977506524371E-04
(PID.TID 0000.0001) %MON ad_dynstat_advvel_sd         =   2.2871812383055E-04
(PID.TID 0000.0001) %MON ad_dynstat_advvel_del2       =   1.1305168455845E-07
(PID.TID 0000.0001) %MON ad_dynstat_adwvel_max        =   1.9761655470411E-03
(PID.TID 0000.0001) %MON ad_dynstat_adwvel_min        =  -6.0104913790345E-04
(PID.TID 0000.0001) %MON ad_dynstat_adwvel_mean       =  -5.1608250111843E-07
(PID.TID 0000.0001) %MON ad_dynstat_adwvel_sd         =   1.0674663439324E-05
(PID.TID 0000.0001) %MON ad_dynstat_adwvel_del2       =   8.9216062209023E-08
(PID.TID 0000.0001) %MON ad_dynstat_adtheta_max       =  -1.3343042596251E+00
(PID.TID 0000.0001) %MON ad_dynstat_adtheta_min       =  -6.6498085630194E+00
(PID.TID 0000.0001) %MON ad_dynstat_adtheta_mean      =  -3.8285577322124E+00
(PID.TID 0000.0001) %MON ad_dynstat_adtheta_sd        =   6.7937754219767E-02
(PID.TID 0000.0001) %MON ad_dynstat_adtheta_del2      =   2.5338824147351E-04
(PID.TID 0000.0001) %MON ad_dynstat_adsalt_max        =   7.2518050638893E-04
(PID.TID 0000.0001) %MON ad_dynstat_adsalt_min        =  -1.9467451131757E-04
(PID.TID 0000.0001) %MON ad_dynstat_adsalt_mean       =   2.1162181198173E-05
(PID.TID 0000.0001) %MON ad_dynstat_adsalt_sd         =   1.0029334515925E-04
(PID.TID 0000.0001) %MON ad_dynstat_adsalt_del2       =   1.6544245150055E-07
(PID.TID 0000.0001) %MON ad_dynstat_adsst_max         =   0.0000000000000E+00
(PID.TID 0000.0001) %MON ad_dynstat_adsst_min         =   0.0000000000000E+00
(PID.TID 0000.0001) %MON ad_dynstat_adsst_mean        =   0.0000000000000E+00
(PID.TID 0000.0001) %MON ad_dynstat_adsst_sd          =   0.0000000000000E+00
(PID.TID 0000.0001) %MON ad_dynstat_adsst_del2        =   0.0000000000000E+00
(PID.TID 0000.0001) %MON ad_dynstat_adsss_max         =   0.0000000000000E+00
(PID.TID 0000.0001) %MON ad_dynstat_adsss_min         =   0.0000000000000E+00
(PID.TID 0000.0001) %MON ad_dynstat_adsss_mean        =   0.0000000000000E+00
(PID.TID 0000.0001) %MON ad_dynstat_adsss_sd          =   0.0000000000000E+00
(PID.TID 0000.0001) %MON ad_dynstat_adsss_del2        =   0.0000000000000E+00
(PID.TID 0000.0001) %MON ad_forcing_adqnet_max        =   0.0000000000000E+00
(PID.TID 0000.0001) %MON ad_forcing_adqnet_min        =   0.0000000000000E+00
(PID.TID 0000.0001) %MON ad_forcing_adqnet_mean       =   0.0000000000000E+00
(PID.TID 0000.0001) %MON ad_forcing_adqnet_sd         =   0.0000000000000E+00
(PID.TID 0000.0001) %MON ad_forcing_adqnet_del2       =   0.0000000000000E+00
(PID.TID 0000.0001) %MON ad_forcing_adempmr_max       =   0.0000000000000E+00
(PID.TID 0000.0001) %MON ad_forcing_adempmr_min       =   0.0000000000000E+00
(PID.TID 0000.0001) %MON ad_forcing_adempmr_mean      =   0.0000000000000E+00
(PID.TID 0000.0001) %MON ad_forcing_adempmr_sd        =   0.0000000000000E+00
(PID.TID 0000.0001) %MON ad_forcing_adempmr_del2      =   0.0000000000000E+00
(PID.TID 0000.0001) %MON ad_forcing_adfu_max          =   0.0000000000000E+00
(PID.TID 0000.0001) %MON ad_forcing_adfu_min          =   0.0000000000000E+00
(PID.TID 0000.0001) %MON ad_forcing_adfu_mean         =   0.0000000000000E+00
(PID.TID 0000.0001) %MON ad_forcing_adfu_sd           =   0.0000000000000E+00
(PID.TID 0000.0001) %MON ad_forcing_adfu_del2         =   0.0000000000000E+00
(PID.TID 0000.0001) %MON ad_forcing_adfv_max          =   0.0000000000000E+00
(PID.TID 0000.0001) %MON ad_forcing_adfv_min          =   0.0000000000000E+00
(PID.TID 0000.0001) %MON ad_forcing_adfv_mean         =   0.0000000000000E+00
(PID.TID 0000.0001) %MON ad_forcing_adfv_sd           =   0.0000000000000E+00
(PID.TID 0000.0001) %MON ad_forcing_adfv_del2         =   0.0000000000000E+00
(PID.TID 0000.0001) %MON ad_advcfl_aduvel_max         =   1.1986154896831E-04
(PID.TID 0000.0001) %MON ad_advcfl_advvel_max         =   1.4026043456461E-04
(PID.TID 0000.0001) %MON ad_advcfl_adwvel_max         =   1.1856993282246E-01
(PID.TID 0000.0001) %MON ad_advcfl_adW_hf_max         =   5.9284966411232E-01
(PID.TID 0000.0001) // =======================================================
(PID.TID 0000.0001) // End MONITOR dynamic field statistics
(PID.TID 0000.0001) // =======================================================
 cg2d: Sum(rhs),rhsMax =   6.10622663543836E-16  4.65643896961447E-04
 cg2d: Sum(rhs),rhsMax =   2.77044066940985E-13  1.51606738119622E-01
 SURF_ADJUSTMENT: Iter=      8647 Nb_pts,Vol=       343  8.64206708E+10
 cg2d: Sum(rhs),rhsMax =   2.42853588801328E-13  1.72455774247588E-01
 SURF_ADJUSTMENT: Iter=      8648 Nb_pts,Vol=       343  8.64169962E+10
 cg2d: Sum(rhs),rhsMax =   2.42853588801328E-13  1.72455774247588E-01
(PID.TID 0000.0001) // =======================================================
(PID.TID 0000.0001) // Begin MONITOR dynamic field statistics
(PID.TID 0000.0001) // =======================================================
(PID.TID 0000.0001) %MON ad_time_tsnumber             =                  8648
(PID.TID 0000.0001) %MON ad_time_secondsf             =   1.5566400000000E+07
(PID.TID 0000.0001) %MON ad_dynstat_adeta_max         =   1.8515952936722E-02
(PID.TID 0000.0001) %MON ad_dynstat_adeta_min         =  -2.6465349692992E-02
(PID.TID 0000.0001) %MON ad_dynstat_adeta_mean        =  -9.3171627349037E-06
(PID.TID 0000.0001) %MON ad_dynstat_adeta_sd          =   3.0307935625622E-03
(PID.TID 0000.0001) %MON ad_dynstat_adeta_del2        =   4.3968343932536E-05
(PID.TID 0000.0001) %MON ad_dynstat_aduvel_max        =   5.3947652643730E-04
(PID.TID 0000.0001) %MON ad_dynstat_aduvel_min        =  -5.0848150823072E-04
(PID.TID 0000.0001) %MON ad_dynstat_aduvel_mean       =  -9.5930235992423E-05
(PID.TID 0000.0001) %MON ad_dynstat_aduvel_sd         =   4.7356563000480E-05
(PID.TID 0000.0001) %MON ad_dynstat_aduvel_del2       =   1.0047321637388E-07
(PID.TID 0000.0001) %MON ad_dynstat_advvel_max        =   1.1222395064079E-03
(PID.TID 0000.0001) %MON ad_dynstat_advvel_min        =  -1.2241426316955E-03
(PID.TID 0000.0001) %MON ad_dynstat_advvel_mean       =   4.7302524047846E-04
(PID.TID 0000.0001) %MON ad_dynstat_advvel_sd         =   3.2134302726539E-04
(PID.TID 0000.0001) %MON ad_dynstat_advvel_del2       =   1.6242552283006E-07
(PID.TID 0000.0001) %MON ad_dynstat_adwvel_max        =   1.4400517601996E-03
(PID.TID 0000.0001) %MON ad_dynstat_adwvel_min        =  -6.9454582944006E-04
(PID.TID 0000.0001) %MON ad_dynstat_adwvel_mean       =  -1.2186226602684E-06
(PID.TID 0000.0001) %MON ad_dynstat_adwvel_sd         =   1.0758224600053E-05
(PID.TID 0000.0001) %MON ad_dynstat_adwvel_del2       =   8.0852358640988E-08
(PID.TID 0000.0001) %MON ad_dynstat_adtheta_max       =  -1.3309683433549E+00
(PID.TID 0000.0001) %MON ad_dynstat_adtheta_min       =  -6.6424440786811E+00
(PID.TID 0000.0001) %MON ad_dynstat_adtheta_mean      =  -3.8283201922017E+00
(PID.TID 0000.0001) %MON ad_dynstat_adtheta_sd        =   6.7335739575658E-02
(PID.TID 0000.0001) %MON ad_dynstat_adtheta_del2      =   2.5287143574777E-04
(PID.TID 0000.0001) %MON ad_dynstat_adsalt_max        =   1.7970994051251E-03
(PID.TID 0000.0001) %MON ad_dynstat_adsalt_min        =  -1.0869510533760E-03
(PID.TID 0000.0001) %MON ad_dynstat_adsalt_mean       =   3.2108408115830E-05
(PID.TID 0000.0001) %MON ad_dynstat_adsalt_sd         =   1.6577577619755E-04
(PID.TID 0000.0001) %MON ad_dynstat_adsalt_del2       =   3.3596339064355E-07
(PID.TID 0000.0001) %MON ad_dynstat_adsst_max         =   0.0000000000000E+00
(PID.TID 0000.0001) %MON ad_dynstat_adsst_min         =   0.0000000000000E+00
(PID.TID 0000.0001) %MON ad_dynstat_adsst_mean        =   0.0000000000000E+00
(PID.TID 0000.0001) %MON ad_dynstat_adsst_sd          =   0.0000000000000E+00
(PID.TID 0000.0001) %MON ad_dynstat_adsst_del2        =   0.0000000000000E+00
(PID.TID 0000.0001) %MON ad_dynstat_adsss_max         =   0.0000000000000E+00
(PID.TID 0000.0001) %MON ad_dynstat_adsss_min         =   0.0000000000000E+00
(PID.TID 0000.0001) %MON ad_dynstat_adsss_mean        =   0.0000000000000E+00
(PID.TID 0000.0001) %MON ad_dynstat_adsss_sd          =   0.0000000000000E+00
(PID.TID 0000.0001) %MON ad_dynstat_adsss_del2        =   0.0000000000000E+00
(PID.TID 0000.0001) %MON ad_forcing_adqnet_max        =   0.0000000000000E+00
(PID.TID 0000.0001) %MON ad_forcing_adqnet_min        =   0.0000000000000E+00
(PID.TID 0000.0001) %MON ad_forcing_adqnet_mean       =   0.0000000000000E+00
(PID.TID 0000.0001) %MON ad_forcing_adqnet_sd         =   0.0000000000000E+00
(PID.TID 0000.0001) %MON ad_forcing_adqnet_del2       =   0.0000000000000E+00
(PID.TID 0000.0001) %MON ad_forcing_adempmr_max       =   0.0000000000000E+00
(PID.TID 0000.0001) %MON ad_forcing_adempmr_min       =   0.0000000000000E+00
(PID.TID 0000.0001) %MON ad_forcing_adempmr_mean      =   0.0000000000000E+00
(PID.TID 0000.0001) %MON ad_forcing_adempmr_sd        =   0.0000000000000E+00
(PID.TID 0000.0001) %MON ad_forcing_adempmr_del2      =   0.0000000000000E+00
(PID.TID 0000.0001) %MON ad_forcing_adfu_max          =   0.0000000000000E+00
(PID.TID 0000.0001) %MON ad_forcing_adfu_min          =   0.0000000000000E+00
(PID.TID 0000.0001) %MON ad_forcing_adfu_mean         =   0.0000000000000E+00
(PID.TID 0000.0001) %MON ad_forcing_adfu_sd           =   0.0000000000000E+00
(PID.TID 0000.0001) %MON ad_forcing_adfu_del2         =   0.0000000000000E+00
(PID.TID 0000.0001) %MON ad_forcing_adfv_max          =   0.0000000000000E+00
(PID.TID 0000.0001) %MON ad_forcing_adfv_min          =   0.0000000000000E+00
(PID.TID 0000.0001) %MON ad_forcing_adfv_mean         =   0.0000000000000E+00
(PID.TID 0000.0001) %MON ad_forcing_adfv_sd           =   0.0000000000000E+00
(PID.TID 0000.0001) %MON ad_forcing_adfv_del2         =   0.0000000000000E+00
(PID.TID 0000.0001) %MON ad_advcfl_aduvel_max         =   1.6205177712904E-04
(PID.TID 0000.0001) %MON ad_advcfl_advvel_max         =   1.9819273370918E-04
(PID.TID 0000.0001) %MON ad_advcfl_adwvel_max         =   8.6403105611974E-02
(PID.TID 0000.0001) %MON ad_advcfl_adW_hf_max         =   4.3201552805987E-01
(PID.TID 0000.0001) // =======================================================
(PID.TID 0000.0001) // End MONITOR dynamic field statistics
(PID.TID 0000.0001) // =======================================================
 cg2d: Sum(rhs),rhsMax =   3.83373888190874E-16  1.00301139643096E-03
 cg2d: Sum(rhs),rhsMax =   2.77044066940985E-13  1.51606738119622E-01
(PID.TID 0000.0001) // =======================================================
(PID.TID 0000.0001) // Begin MONITOR dynamic field statistics
(PID.TID 0000.0001) // =======================================================
(PID.TID 0000.0001) %MON ad_time_tsnumber             =                  8647
(PID.TID 0000.0001) %MON ad_time_secondsf             =   1.5564600000000E+07
(PID.TID 0000.0001) %MON ad_dynstat_adeta_max         =   2.5387893357284E-02
(PID.TID 0000.0001) %MON ad_dynstat_adeta_min         =  -3.9697392613555E-02
(PID.TID 0000.0001) %MON ad_dynstat_adeta_mean        =  -2.9060008534916E-05
(PID.TID 0000.0001) %MON ad_dynstat_adeta_sd          =   4.2009242945721E-03
(PID.TID 0000.0001) %MON ad_dynstat_adeta_del2        =   6.0929117274272E-05
(PID.TID 0000.0001) %MON ad_dynstat_aduvel_max        =   7.6718512720196E-04
(PID.TID 0000.0001) %MON ad_dynstat_aduvel_min        =  -6.1984529212252E-04
(PID.TID 0000.0001) %MON ad_dynstat_aduvel_mean       =  -2.3634549589220E-04
(PID.TID 0000.0001) %MON ad_dynstat_aduvel_sd         =   9.0103432957646E-05
(PID.TID 0000.0001) %MON ad_dynstat_aduvel_del2       =   1.7184245797397E-07
(PID.TID 0000.0001) %MON ad_dynstat_advvel_max        =   1.2152591134325E-03
(PID.TID 0000.0001) %MON ad_dynstat_advvel_min        =  -1.4575506759935E-03
(PID.TID 0000.0001) %MON ad_dynstat_advvel_mean       =   4.1326609728014E-04
(PID.TID 0000.0001) %MON ad_dynstat_advvel_sd         =   3.5835694239054E-04
(PID.TID 0000.0001) %MON ad_dynstat_advvel_del2       =   2.0504155045934E-07
(PID.TID 0000.0001) %MON ad_dynstat_adwvel_max        =   1.3862622586165E-03
(PID.TID 0000.0001) %MON ad_dynstat_adwvel_min        =  -7.6332553452027E-04
(PID.TID 0000.0001) %MON ad_dynstat_adwvel_mean       =  -2.5278777359913E-06
(PID.TID 0000.0001) %MON ad_dynstat_adwvel_sd         =   1.8131478814626E-05
(PID.TID 0000.0001) %MON ad_dynstat_adwvel_del2       =   1.1585486551771E-07
(PID.TID 0000.0001) %MON ad_dynstat_adtheta_max       =  -1.3291376486564E+00
(PID.TID 0000.0001) %MON ad_dynstat_adtheta_min       =  -6.6335198969126E+00
(PID.TID 0000.0001) %MON ad_dynstat_adtheta_mean      =  -3.8280825073016E+00
(PID.TID 0000.0001) %MON ad_dynstat_adtheta_sd        =   6.6725593452804E-02
(PID.TID 0000.0001) %MON ad_dynstat_adtheta_del2      =   2.5184029852389E-04
(PID.TID 0000.0001) %MON ad_dynstat_adsalt_max        =   3.6454818471603E-03
(PID.TID 0000.0001) %MON ad_dynstat_adsalt_min        =  -2.6491151064844E-03
(PID.TID 0000.0001) %MON ad_dynstat_adsalt_mean       =   4.2777998337075E-05
(PID.TID 0000.0001) %MON ad_dynstat_adsalt_sd         =   2.3497312825586E-04
(PID.TID 0000.0001) %MON ad_dynstat_adsalt_del2       =   6.4926485457403E-07
(PID.TID 0000.0001) %MON ad_dynstat_adsst_max         =   0.0000000000000E+00
(PID.TID 0000.0001) %MON ad_dynstat_adsst_min         =   0.0000000000000E+00
(PID.TID 0000.0001) %MON ad_dynstat_adsst_mean        =   0.0000000000000E+00
(PID.TID 0000.0001) %MON ad_dynstat_adsst_sd          =   0.0000000000000E+00
(PID.TID 0000.0001) %MON ad_dynstat_adsst_del2        =   0.0000000000000E+00
(PID.TID 0000.0001) %MON ad_dynstat_adsss_max         =   0.0000000000000E+00
(PID.TID 0000.0001) %MON ad_dynstat_adsss_min         =   0.0000000000000E+00
(PID.TID 0000.0001) %MON ad_dynstat_adsss_mean        =   0.0000000000000E+00
(PID.TID 0000.0001) %MON ad_dynstat_adsss_sd          =   0.0000000000000E+00
(PID.TID 0000.0001) %MON ad_dynstat_adsss_del2        =   0.0000000000000E+00
(PID.TID 0000.0001) %MON ad_forcing_adqnet_max        =   0.0000000000000E+00
(PID.TID 0000.0001) %MON ad_forcing_adqnet_min        =   0.0000000000000E+00
(PID.TID 0000.0001) %MON ad_forcing_adqnet_mean       =   0.0000000000000E+00
(PID.TID 0000.0001) %MON ad_forcing_adqnet_sd         =   0.0000000000000E+00
(PID.TID 0000.0001) %MON ad_forcing_adqnet_del2       =   0.0000000000000E+00
(PID.TID 0000.0001) %MON ad_forcing_adempmr_max       =   0.0000000000000E+00
(PID.TID 0000.0001) %MON ad_forcing_adempmr_min       =   0.0000000000000E+00
(PID.TID 0000.0001) %MON ad_forcing_adempmr_mean      =   0.0000000000000E+00
(PID.TID 0000.0001) %MON ad_forcing_adempmr_sd        =   0.0000000000000E+00
(PID.TID 0000.0001) %MON ad_forcing_adempmr_del2      =   0.0000000000000E+00
(PID.TID 0000.0001) %MON ad_forcing_adfu_max          =   0.0000000000000E+00
(PID.TID 0000.0001) %MON ad_forcing_adfu_min          =   0.0000000000000E+00
(PID.TID 0000.0001) %MON ad_forcing_adfu_mean         =   0.0000000000000E+00
(PID.TID 0000.0001) %MON ad_forcing_adfu_sd           =   0.0000000000000E+00
(PID.TID 0000.0001) %MON ad_forcing_adfu_del2         =   0.0000000000000E+00
(PID.TID 0000.0001) %MON ad_forcing_adfv_max          =   0.0000000000000E+00
(PID.TID 0000.0001) %MON ad_forcing_adfv_min          =   0.0000000000000E+00
(PID.TID 0000.0001) %MON ad_forcing_adfv_mean         =   0.0000000000000E+00
(PID.TID 0000.0001) %MON ad_forcing_adfv_sd           =   0.0000000000000E+00
(PID.TID 0000.0001) %MON ad_forcing_adfv_del2         =   0.0000000000000E+00
(PID.TID 0000.0001) %MON ad_advcfl_aduvel_max         =   2.1601830634920E-04
(PID.TID 0000.0001) %MON ad_advcfl_advvel_max         =   2.3598226670260E-04
(PID.TID 0000.0001) %MON ad_advcfl_adwvel_max         =   8.3175735516991E-02
(PID.TID 0000.0001) %MON ad_advcfl_adW_hf_max         =   4.1587867758495E-01
(PID.TID 0000.0001) // =======================================================
(PID.TID 0000.0001) // End MONITOR dynamic field statistics
(PID.TID 0000.0001) // =======================================================
 cg2d: Sum(rhs),rhsMax =  -1.29063426612674E-15  1.57163806483234E-03
 cg2d: Sum(rhs),rhsMax =   3.66527663255012E-13  1.14437154543359E-01
 SURF_ADJUSTMENT: Iter=      8645 Nb_pts,Vol=       343  8.64283652E+10
 cg2d: Sum(rhs),rhsMax =   3.15309925521742E-13  1.32277265949707E-01
 SURF_ADJUSTMENT: Iter=      8646 Nb_pts,Vol=       343  8.64246885E+10
 cg2d: Sum(rhs),rhsMax =   3.15309925521742E-13  1.32277265949707E-01
(PID.TID 0000.0001) // =======================================================
(PID.TID 0000.0001) // Begin MONITOR dynamic field statistics
(PID.TID 0000.0001) // =======================================================
(PID.TID 0000.0001) %MON ad_time_tsnumber             =                  8646
(PID.TID 0000.0001) %MON ad_time_secondsf             =   1.5562800000000E+07
(PID.TID 0000.0001) %MON ad_dynstat_adeta_max         =   2.8527610924234E-02
(PID.TID 0000.0001) %MON ad_dynstat_adeta_min         =  -5.0276207865008E-02
(PID.TID 0000.0001) %MON ad_dynstat_adeta_mean        =  -5.7380000854694E-05
(PID.TID 0000.0001) %MON ad_dynstat_adeta_sd          =   4.9076415238162E-03
(PID.TID 0000.0001) %MON ad_dynstat_adeta_del2        =   7.1378714858510E-05
(PID.TID 0000.0001) %MON ad_dynstat_aduvel_max        =   1.1144929906679E-03
(PID.TID 0000.0001) %MON ad_dynstat_aduvel_min        =  -8.3694937590118E-04
(PID.TID 0000.0001) %MON ad_dynstat_aduvel_mean       =  -3.6712251043330E-04
(PID.TID 0000.0001) %MON ad_dynstat_aduvel_sd         =   1.2703773505385E-04
(PID.TID 0000.0001) %MON ad_dynstat_aduvel_del2       =   2.2391855656877E-07
(PID.TID 0000.0001) %MON ad_dynstat_advvel_max        =   1.1415478357535E-03
(PID.TID 0000.0001) %MON ad_dynstat_advvel_min        =  -1.5045356755293E-03
(PID.TID 0000.0001) %MON ad_dynstat_advvel_mean       =   2.5026080381013E-04
(PID.TID 0000.0001) %MON ad_dynstat_advvel_sd         =   3.5431381676921E-04
(PID.TID 0000.0001) %MON ad_dynstat_advvel_del2       =   2.3262149210128E-07
(PID.TID 0000.0001) %MON ad_dynstat_adwvel_max        =   1.1685482066350E-03
(PID.TID 0000.0001) %MON ad_dynstat_adwvel_min        =  -7.2114216568761E-04
(PID.TID 0000.0001) %MON ad_dynstat_adwvel_mean       =  -3.8811476361992E-06
(PID.TID 0000.0001) %MON ad_dynstat_adwvel_sd         =   2.7375778756325E-05
(PID.TID 0000.0001) %MON ad_dynstat_adwvel_del2       =   1.5645376257213E-07
(PID.TID 0000.0001) %MON ad_dynstat_adtheta_max       =  -1.1064095429187E+00
(PID.TID 0000.0001) %MON ad_dynstat_adtheta_min       =  -6.6248462596456E+00
(PID.TID 0000.0001) %MON ad_dynstat_adtheta_mean      =  -3.8278607057308E+00
(PID.TID 0000.0001) %MON ad_dynstat_adtheta_sd        =   6.6402026759913E-02
(PID.TID 0000.0001) %MON ad_dynstat_adtheta_del2      =   2.4838764634863E-04
(PID.TID 0000.0001) %MON ad_dynstat_adsalt_max        =   6.0322217717309E-03
(PID.TID 0000.0001) %MON ad_dynstat_adsalt_min        =  -4.7754922457829E-03
(PID.TID 0000.0001) %MON ad_dynstat_adsalt_mean       =   5.3730798476279E-05
(PID.TID 0000.0001) %MON ad_dynstat_adsalt_sd         =   3.0831331622565E-04
(PID.TID 0000.0001) %MON ad_dynstat_adsalt_del2       =   1.0822204504427E-06
(PID.TID 0000.0001) %MON ad_dynstat_adsst_max         =   0.0000000000000E+00
(PID.TID 0000.0001) %MON ad_dynstat_adsst_min         =   0.0000000000000E+00
(PID.TID 0000.0001) %MON ad_dynstat_adsst_mean        =   0.0000000000000E+00
(PID.TID 0000.0001) %MON ad_dynstat_adsst_sd          =   0.0000000000000E+00
(PID.TID 0000.0001) %MON ad_dynstat_adsst_del2        =   0.0000000000000E+00
(PID.TID 0000.0001) %MON ad_dynstat_adsss_max         =   0.0000000000000E+00
(PID.TID 0000.0001) %MON ad_dynstat_adsss_min         =   0.0000000000000E+00
(PID.TID 0000.0001) %MON ad_dynstat_adsss_mean        =   0.0000000000000E+00
(PID.TID 0000.0001) %MON ad_dynstat_adsss_sd          =   0.0000000000000E+00
(PID.TID 0000.0001) %MON ad_dynstat_adsss_del2        =   0.0000000000000E+00
(PID.TID 0000.0001) %MON ad_forcing_adqnet_max        =   0.0000000000000E+00
(PID.TID 0000.0001) %MON ad_forcing_adqnet_min        =   0.0000000000000E+00
(PID.TID 0000.0001) %MON ad_forcing_adqnet_mean       =   0.0000000000000E+00
(PID.TID 0000.0001) %MON ad_forcing_adqnet_sd         =   0.0000000000000E+00
(PID.TID 0000.0001) %MON ad_forcing_adqnet_del2       =   0.0000000000000E+00
(PID.TID 0000.0001) %MON ad_forcing_adempmr_max       =   0.0000000000000E+00
(PID.TID 0000.0001) %MON ad_forcing_adempmr_min       =   0.0000000000000E+00
(PID.TID 0000.0001) %MON ad_forcing_adempmr_mean      =   0.0000000000000E+00
(PID.TID 0000.0001) %MON ad_forcing_adempmr_sd        =   0.0000000000000E+00
(PID.TID 0000.0001) %MON ad_forcing_adempmr_del2      =   0.0000000000000E+00
(PID.TID 0000.0001) %MON ad_forcing_adfu_max          =   0.0000000000000E+00
(PID.TID 0000.0001) %MON ad_forcing_adfu_min          =   0.0000000000000E+00
(PID.TID 0000.0001) %MON ad_forcing_adfu_mean         =   0.0000000000000E+00
(PID.TID 0000.0001) %MON ad_forcing_adfu_sd           =   0.0000000000000E+00
(PID.TID 0000.0001) %MON ad_forcing_adfu_del2         =   0.0000000000000E+00
(PID.TID 0000.0001) %MON ad_forcing_adfv_max          =   0.0000000000000E+00
(PID.TID 0000.0001) %MON ad_forcing_adfv_min          =   0.0000000000000E+00
(PID.TID 0000.0001) %MON ad_forcing_adfv_mean         =   0.0000000000000E+00
(PID.TID 0000.0001) %MON ad_forcing_adfv_sd           =   0.0000000000000E+00
(PID.TID 0000.0001) %MON ad_forcing_adfv_del2         =   0.0000000000000E+00
(PID.TID 0000.0001) %MON ad_advcfl_aduvel_max         =   3.1381068238404E-04
(PID.TID 0000.0001) %MON ad_advcfl_advvel_max         =   2.4358929325345E-04
(PID.TID 0000.0001) %MON ad_advcfl_adwvel_max         =   7.0112892398102E-02
(PID.TID 0000.0001) %MON ad_advcfl_adW_hf_max         =   3.5056446199051E-01
(PID.TID 0000.0001) // =======================================================
(PID.TID 0000.0001) // End MONITOR dynamic field statistics
(PID.TID 0000.0001) // =======================================================
 cg2d: Sum(rhs),rhsMax =   9.50628464835290E-16  2.08282204314493E-03
 cg2d: Sum(rhs),rhsMax =   3.66527663255012E-13  1.14437154543359E-01
(PID.TID 0000.0001) // =======================================================
(PID.TID 0000.0001) // Begin MONITOR dynamic field statistics
(PID.TID 0000.0001) // =======================================================
(PID.TID 0000.0001) %MON ad_time_tsnumber             =                  8645
(PID.TID 0000.0001) %MON ad_time_secondsf             =   1.5561000000000E+07
(PID.TID 0000.0001) %MON ad_dynstat_adeta_max         =   2.6958965583581E-02
(PID.TID 0000.0001) %MON ad_dynstat_adeta_min         =  -5.6592721110758E-02
(PID.TID 0000.0001) %MON ad_dynstat_adeta_mean        =  -8.9588248128463E-05
(PID.TID 0000.0001) %MON ad_dynstat_adeta_sd          =   5.0551166967461E-03
(PID.TID 0000.0001) %MON ad_dynstat_adeta_del2        =   7.4222614256834E-05
(PID.TID 0000.0001) %MON ad_dynstat_aduvel_max        =   1.4421339901382E-03
(PID.TID 0000.0001) %MON ad_dynstat_aduvel_min        =  -9.8101371292914E-04
(PID.TID 0000.0001) %MON ad_dynstat_aduvel_mean       =  -4.3968805863630E-04
(PID.TID 0000.0001) %MON ad_dynstat_aduvel_sd         =   1.4675201652979E-04
(PID.TID 0000.0001) %MON ad_dynstat_aduvel_del2       =   2.4907061524338E-07
(PID.TID 0000.0001) %MON ad_dynstat_advvel_max        =   9.0800000819429E-04
(PID.TID 0000.0001) %MON ad_dynstat_advvel_min        =  -1.7617850813434E-03
(PID.TID 0000.0001) %MON ad_dynstat_advvel_mean       =   1.6043996896891E-05
(PID.TID 0000.0001) %MON ad_dynstat_advvel_sd         =   3.2907919143894E-04
(PID.TID 0000.0001) %MON ad_dynstat_advvel_del2       =   2.4342435900382E-07
(PID.TID 0000.0001) %MON ad_dynstat_adwvel_max        =   8.7546361132974E-04
(PID.TID 0000.0001) %MON ad_dynstat_adwvel_min        =  -5.7458245231736E-04
(PID.TID 0000.0001) %MON ad_dynstat_adwvel_mean       =  -5.0397355595909E-06
(PID.TID 0000.0001) %MON ad_dynstat_adwvel_sd         =   3.6207526720762E-05
(PID.TID 0000.0001) %MON ad_dynstat_adwvel_del2       =   1.9409204801172E-07
(PID.TID 0000.0001) %MON ad_dynstat_adtheta_max       =  -1.0326216396395E+00
(PID.TID 0000.0001) %MON ad_dynstat_adtheta_min       =  -6.7054065083814E+00
(PID.TID 0000.0001) %MON ad_dynstat_adtheta_mean      =  -3.8276797343812E+00
(PID.TID 0000.0001) %MON ad_dynstat_adtheta_sd        =   6.7060593580601E-02
(PID.TID 0000.0001) %MON ad_dynstat_adtheta_del2      =   2.6257634678074E-04
(PID.TID 0000.0001) %MON ad_dynstat_adsalt_max        =   8.7385891164909E-03
(PID.TID 0000.0001) %MON ad_dynstat_adsalt_min        =  -7.2942447389818E-03
(PID.TID 0000.0001) %MON ad_dynstat_adsalt_mean       =   6.5397906223903E-05
(PID.TID 0000.0001) %MON ad_dynstat_adsalt_sd         =   3.8488670141759E-04
(PID.TID 0000.0001) %MON ad_dynstat_adsalt_del2       =   1.5833400488727E-06
(PID.TID 0000.0001) %MON ad_dynstat_adsst_max         =   0.0000000000000E+00
(PID.TID 0000.0001) %MON ad_dynstat_adsst_min         =   0.0000000000000E+00
(PID.TID 0000.0001) %MON ad_dynstat_adsst_mean        =   0.0000000000000E+00
(PID.TID 0000.0001) %MON ad_dynstat_adsst_sd          =   0.0000000000000E+00
(PID.TID 0000.0001) %MON ad_dynstat_adsst_del2        =   0.0000000000000E+00
(PID.TID 0000.0001) %MON ad_dynstat_adsss_max         =   0.0000000000000E+00
(PID.TID 0000.0001) %MON ad_dynstat_adsss_min         =   0.0000000000000E+00
(PID.TID 0000.0001) %MON ad_dynstat_adsss_mean        =   0.0000000000000E+00
(PID.TID 0000.0001) %MON ad_dynstat_adsss_sd          =   0.0000000000000E+00
(PID.TID 0000.0001) %MON ad_dynstat_adsss_del2        =   0.0000000000000E+00
(PID.TID 0000.0001) %MON ad_forcing_adqnet_max        =   0.0000000000000E+00
(PID.TID 0000.0001) %MON ad_forcing_adqnet_min        =   0.0000000000000E+00
(PID.TID 0000.0001) %MON ad_forcing_adqnet_mean       =   0.0000000000000E+00
(PID.TID 0000.0001) %MON ad_forcing_adqnet_sd         =   0.0000000000000E+00
(PID.TID 0000.0001) %MON ad_forcing_adqnet_del2       =   0.0000000000000E+00
(PID.TID 0000.0001) %MON ad_forcing_adempmr_max       =   0.0000000000000E+00
(PID.TID 0000.0001) %MON ad_forcing_adempmr_min       =   0.0000000000000E+00
(PID.TID 0000.0001) %MON ad_forcing_adempmr_mean      =   0.0000000000000E+00
(PID.TID 0000.0001) %MON ad_forcing_adempmr_sd        =   0.0000000000000E+00
(PID.TID 0000.0001) %MON ad_forcing_adempmr_del2      =   0.0000000000000E+00
(PID.TID 0000.0001) %MON ad_forcing_adfu_max          =   0.0000000000000E+00
(PID.TID 0000.0001) %MON ad_forcing_adfu_min          =   0.0000000000000E+00
(PID.TID 0000.0001) %MON ad_forcing_adfu_mean         =   0.0000000000000E+00
(PID.TID 0000.0001) %MON ad_forcing_adfu_sd           =   0.0000000000000E+00
(PID.TID 0000.0001) %MON ad_forcing_adfu_del2         =   0.0000000000000E+00
(PID.TID 0000.0001) %MON ad_forcing_adfv_max          =   0.0000000000000E+00
(PID.TID 0000.0001) %MON ad_forcing_adfv_min          =   0.0000000000000E+00
(PID.TID 0000.0001) %MON ad_forcing_adfv_mean         =   0.0000000000000E+00
(PID.TID 0000.0001) %MON ad_forcing_adfv_sd           =   0.0000000000000E+00
(PID.TID 0000.0001) %MON ad_forcing_adfv_del2         =   0.0000000000000E+00
(PID.TID 0000.0001) %MON ad_advcfl_aduvel_max         =   4.0606540850767E-04
(PID.TID 0000.0001) %MON ad_advcfl_advvel_max         =   2.8523882139114E-04
(PID.TID 0000.0001) %MON ad_advcfl_adwvel_max         =   5.2527816679784E-02
(PID.TID 0000.0001) %MON ad_advcfl_adW_hf_max         =   2.6263908339892E-01
(PID.TID 0000.0001) // =======================================================
(PID.TID 0000.0001) // End MONITOR dynamic field statistics
(PID.TID 0000.0001) // =======================================================
 cg2d: Sum(rhs),rhsMax =  -3.00107161343988E-16  2.46858069459234E-03
 cg2d: Sum(rhs),rhsMax =   5.06591784580485E-13  8.30013910087816E-02
 SURF_ADJUSTMENT: Iter=      8643 Nb_pts,Vol=       343  8.64326326E+10
 cg2d: Sum(rhs),rhsMax =   4.28860072454462E-13  9.80469288742860E-02
 SURF_ADJUSTMENT: Iter=      8644 Nb_pts,Vol=       343  8.64311182E+10
 cg2d: Sum(rhs),rhsMax =   4.28860072454462E-13  9.80469288742860E-02
(PID.TID 0000.0001) // =======================================================
(PID.TID 0000.0001) // Begin MONITOR dynamic field statistics
(PID.TID 0000.0001) // =======================================================
(PID.TID 0000.0001) %MON ad_time_tsnumber             =                  8644
(PID.TID 0000.0001) %MON ad_time_secondsf             =   1.5559200000000E+07
(PID.TID 0000.0001) %MON ad_dynstat_adeta_max         =   2.0615760760663E-02
(PID.TID 0000.0001) %MON ad_dynstat_adeta_min         =  -5.7937843282715E-02
(PID.TID 0000.0001) %MON ad_dynstat_adeta_mean        =  -1.2003658660301E-04
(PID.TID 0000.0001) %MON ad_dynstat_adeta_sd          =   4.7231467084548E-03
(PID.TID 0000.0001) %MON ad_dynstat_adeta_del2        =   7.1069759336570E-05
(PID.TID 0000.0001) %MON ad_dynstat_aduvel_max        =   1.7297159813628E-03
(PID.TID 0000.0001) %MON ad_dynstat_aduvel_min        =  -1.0149709778187E-03
(PID.TID 0000.0001) %MON ad_dynstat_aduvel_mean       =  -4.2789324009594E-04
(PID.TID 0000.0001) %MON ad_dynstat_aduvel_sd         =   1.4603529273556E-04
(PID.TID 0000.0001) %MON ad_dynstat_aduvel_del2       =   2.4852542137507E-07
(PID.TID 0000.0001) %MON ad_dynstat_advvel_max        =   6.6303085648772E-04
(PID.TID 0000.0001) %MON ad_dynstat_advvel_min        =  -2.0084613230900E-03
(PID.TID 0000.0001) %MON ad_dynstat_advvel_mean       =  -2.4877303831261E-04
(PID.TID 0000.0001) %MON ad_dynstat_advvel_sd         =   3.0020315541015E-04
(PID.TID 0000.0001) %MON ad_dynstat_advvel_del2       =   2.4141085224336E-07
(PID.TID 0000.0001) %MON ad_dynstat_adwvel_max        =   5.6234178044895E-04
(PID.TID 0000.0001) %MON ad_dynstat_adwvel_min        =  -6.7310665449285E-04
(PID.TID 0000.0001) %MON ad_dynstat_adwvel_mean       =  -5.9428873922022E-06
(PID.TID 0000.0001) %MON ad_dynstat_adwvel_sd         =   4.3835018530476E-05
(PID.TID 0000.0001) %MON ad_dynstat_adwvel_del2       =   2.2606110311382E-07
(PID.TID 0000.0001) %MON ad_dynstat_adtheta_max       =  -9.9401412351365E-01
(PID.TID 0000.0001) %MON ad_dynstat_adtheta_min       =  -6.6067592131732E+00
(PID.TID 0000.0001) %MON ad_dynstat_adtheta_mean      =  -3.8274704605456E+00
(PID.TID 0000.0001) %MON ad_dynstat_adtheta_sd        =   6.6644711097332E-02
(PID.TID 0000.0001) %MON ad_dynstat_adtheta_del2      =   2.5428183816262E-04
(PID.TID 0000.0001) %MON ad_dynstat_adsalt_max        =   1.1518316847865E-02
(PID.TID 0000.0001) %MON ad_dynstat_adsalt_min        =  -1.0000570038848E-02
(PID.TID 0000.0001) %MON ad_dynstat_adsalt_mean       =   7.8080755221491E-05
(PID.TID 0000.0001) %MON ad_dynstat_adsalt_sd         =   4.6277786823682E-04
(PID.TID 0000.0001) %MON ad_dynstat_adsalt_del2       =   2.0978959348616E-06
(PID.TID 0000.0001) %MON ad_dynstat_adsst_max         =   0.0000000000000E+00
(PID.TID 0000.0001) %MON ad_dynstat_adsst_min         =   0.0000000000000E+00
(PID.TID 0000.0001) %MON ad_dynstat_adsst_mean        =   0.0000000000000E+00
(PID.TID 0000.0001) %MON ad_dynstat_adsst_sd          =   0.0000000000000E+00
(PID.TID 0000.0001) %MON ad_dynstat_adsst_del2        =   0.0000000000000E+00
(PID.TID 0000.0001) %MON ad_dynstat_adsss_max         =   0.0000000000000E+00
(PID.TID 0000.0001) %MON ad_dynstat_adsss_min         =   0.0000000000000E+00
(PID.TID 0000.0001) %MON ad_dynstat_adsss_mean        =   0.0000000000000E+00
(PID.TID 0000.0001) %MON ad_dynstat_adsss_sd          =   0.0000000000000E+00
(PID.TID 0000.0001) %MON ad_dynstat_adsss_del2        =   0.0000000000000E+00
(PID.TID 0000.0001) %MON ad_forcing_adqnet_max        =   0.0000000000000E+00
(PID.TID 0000.0001) %MON ad_forcing_adqnet_min        =   0.0000000000000E+00
(PID.TID 0000.0001) %MON ad_forcing_adqnet_mean       =   0.0000000000000E+00
(PID.TID 0000.0001) %MON ad_forcing_adqnet_sd         =   0.0000000000000E+00
(PID.TID 0000.0001) %MON ad_forcing_adqnet_del2       =   0.0000000000000E+00
(PID.TID 0000.0001) %MON ad_forcing_adempmr_max       =   0.0000000000000E+00
(PID.TID 0000.0001) %MON ad_forcing_adempmr_min       =   0.0000000000000E+00
(PID.TID 0000.0001) %MON ad_forcing_adempmr_mean      =   0.0000000000000E+00
(PID.TID 0000.0001) %MON ad_forcing_adempmr_sd        =   0.0000000000000E+00
(PID.TID 0000.0001) %MON ad_forcing_adempmr_del2      =   0.0000000000000E+00
(PID.TID 0000.0001) %MON ad_forcing_adfu_max          =   0.0000000000000E+00
(PID.TID 0000.0001) %MON ad_forcing_adfu_min          =   0.0000000000000E+00
(PID.TID 0000.0001) %MON ad_forcing_adfu_mean         =   0.0000000000000E+00
(PID.TID 0000.0001) %MON ad_forcing_adfu_sd           =   0.0000000000000E+00
(PID.TID 0000.0001) %MON ad_forcing_adfu_del2         =   0.0000000000000E+00
(PID.TID 0000.0001) %MON ad_forcing_adfv_max          =   0.0000000000000E+00
(PID.TID 0000.0001) %MON ad_forcing_adfv_min          =   0.0000000000000E+00
(PID.TID 0000.0001) %MON ad_forcing_adfv_mean         =   0.0000000000000E+00
(PID.TID 0000.0001) %MON ad_forcing_adfv_sd           =   0.0000000000000E+00
(PID.TID 0000.0001) %MON ad_forcing_adfv_del2         =   0.0000000000000E+00
(PID.TID 0000.0001) %MON ad_advcfl_aduvel_max         =   4.8704061576622E-04
(PID.TID 0000.0001) %MON ad_advcfl_advvel_max         =   3.2517651935789E-04
(PID.TID 0000.0001) %MON ad_advcfl_adwvel_max         =   4.0386399269571E-02
(PID.TID 0000.0001) %MON ad_advcfl_adW_hf_max         =   1.6870253413468E-01
(PID.TID 0000.0001) // =======================================================
(PID.TID 0000.0001) // End MONITOR dynamic field statistics
(PID.TID 0000.0001) // =======================================================
 cg2d: Sum(rhs),rhsMax =   1.11022302462516E-15  2.68965265291657E-03
 cg2d: Sum(rhs),rhsMax =   5.06591784580485E-13  8.30013910087816E-02
(PID.TID 0000.0001) // =======================================================
(PID.TID 0000.0001) // Begin MONITOR dynamic field statistics
(PID.TID 0000.0001) // =======================================================
(PID.TID 0000.0001) %MON ad_time_tsnumber             =                  8643
(PID.TID 0000.0001) %MON ad_time_secondsf             =   1.5557400000000E+07
(PID.TID 0000.0001) %MON ad_dynstat_adeta_max         =   1.0173340719357E-02
(PID.TID 0000.0001) %MON ad_dynstat_adeta_min         =  -5.4391739867958E-02
(PID.TID 0000.0001) %MON ad_dynstat_adeta_mean        =  -1.4351708625236E-04
(PID.TID 0000.0001) %MON ad_dynstat_adeta_sd          =   4.2486235831588E-03
(PID.TID 0000.0001) %MON ad_dynstat_adeta_del2        =   6.7193138981051E-05
(PID.TID 0000.0001) %MON ad_dynstat_aduvel_max        =   1.9502909762116E-03
(PID.TID 0000.0001) %MON ad_dynstat_aduvel_min        =  -9.3503292085535E-04
(PID.TID 0000.0001) %MON ad_dynstat_aduvel_mean       =  -3.2975063108743E-04
(PID.TID 0000.0001) %MON ad_dynstat_aduvel_sd         =   1.3161395656081E-04
(PID.TID 0000.0001) %MON ad_dynstat_aduvel_del2       =   2.3430254819503E-07
(PID.TID 0000.0001) %MON ad_dynstat_advvel_max        =   4.0547517564910E-04
(PID.TID 0000.0001) %MON ad_dynstat_advvel_min        =  -2.1449706809627E-03
(PID.TID 0000.0001) %MON ad_dynstat_advvel_mean       =  -5.0074114843977E-04
(PID.TID 0000.0001) %MON ad_dynstat_advvel_sd         =   2.7871843773476E-04
(PID.TID 0000.0001) %MON ad_dynstat_advvel_del2       =   2.3729516550301E-07
(PID.TID 0000.0001) %MON ad_dynstat_adwvel_max        =   4.4842179624098E-04
(PID.TID 0000.0001) %MON ad_dynstat_adwvel_min        =  -8.0910030835672E-04
(PID.TID 0000.0001) %MON ad_dynstat_adwvel_mean       =  -6.6345695750189E-06
(PID.TID 0000.0001) %MON ad_dynstat_adwvel_sd         =   5.0088004247138E-05
(PID.TID 0000.0001) %MON ad_dynstat_adwvel_del2       =   2.5183448239275E-07
(PID.TID 0000.0001) %MON ad_dynstat_adtheta_max       =  -9.7283018689031E-01
(PID.TID 0000.0001) %MON ad_dynstat_adtheta_min       =  -6.5978405602381E+00
(PID.TID 0000.0001) %MON ad_dynstat_adtheta_mean      =  -3.8273061863481E+00
(PID.TID 0000.0001) %MON ad_dynstat_adtheta_sd        =   6.7927187350539E-02
(PID.TID 0000.0001) %MON ad_dynstat_adtheta_del2      =   2.4424935762447E-04
(PID.TID 0000.0001) %MON ad_dynstat_adsalt_max        =   1.4133485687444E-02
(PID.TID 0000.0001) %MON ad_dynstat_adsalt_min        =  -1.2685870328248E-02
(PID.TID 0000.0001) %MON ad_dynstat_adsalt_mean       =   9.1936788735219E-05
(PID.TID 0000.0001) %MON ad_dynstat_adsalt_sd         =   5.4001265769018E-04
(PID.TID 0000.0001) %MON ad_dynstat_adsalt_del2       =   2.5813474184175E-06
(PID.TID 0000.0001) %MON ad_dynstat_adsst_max         =   0.0000000000000E+00
(PID.TID 0000.0001) %MON ad_dynstat_adsst_min         =   0.0000000000000E+00
(PID.TID 0000.0001) %MON ad_dynstat_adsst_mean        =   0.0000000000000E+00
(PID.TID 0000.0001) %MON ad_dynstat_adsst_sd          =   0.0000000000000E+00
(PID.TID 0000.0001) %MON ad_dynstat_adsst_del2        =   0.0000000000000E+00
(PID.TID 0000.0001) %MON ad_dynstat_adsss_max         =   0.0000000000000E+00
(PID.TID 0000.0001) %MON ad_dynstat_adsss_min         =   0.0000000000000E+00
(PID.TID 0000.0001) %MON ad_dynstat_adsss_mean        =   0.0000000000000E+00
(PID.TID 0000.0001) %MON ad_dynstat_adsss_sd          =   0.0000000000000E+00
(PID.TID 0000.0001) %MON ad_dynstat_adsss_del2        =   0.0000000000000E+00
(PID.TID 0000.0001) %MON ad_forcing_adqnet_max        =   0.0000000000000E+00
(PID.TID 0000.0001) %MON ad_forcing_adqnet_min        =   0.0000000000000E+00
(PID.TID 0000.0001) %MON ad_forcing_adqnet_mean       =   0.0000000000000E+00
(PID.TID 0000.0001) %MON ad_forcing_adqnet_sd         =   0.0000000000000E+00
(PID.TID 0000.0001) %MON ad_forcing_adqnet_del2       =   0.0000000000000E+00
(PID.TID 0000.0001) %MON ad_forcing_adempmr_max       =   0.0000000000000E+00
(PID.TID 0000.0001) %MON ad_forcing_adempmr_min       =   0.0000000000000E+00
(PID.TID 0000.0001) %MON ad_forcing_adempmr_mean      =   0.0000000000000E+00
(PID.TID 0000.0001) %MON ad_forcing_adempmr_sd        =   0.0000000000000E+00
(PID.TID 0000.0001) %MON ad_forcing_adempmr_del2      =   0.0000000000000E+00
(PID.TID 0000.0001) %MON ad_forcing_adfu_max          =   0.0000000000000E+00
(PID.TID 0000.0001) %MON ad_forcing_adfu_min          =   0.0000000000000E+00
(PID.TID 0000.0001) %MON ad_forcing_adfu_mean         =   0.0000000000000E+00
(PID.TID 0000.0001) %MON ad_forcing_adfu_sd           =   0.0000000000000E+00
(PID.TID 0000.0001) %MON ad_forcing_adfu_del2         =   0.0000000000000E+00
(PID.TID 0000.0001) %MON ad_forcing_adfv_max          =   0.0000000000000E+00
(PID.TID 0000.0001) %MON ad_forcing_adfv_min          =   0.0000000000000E+00
(PID.TID 0000.0001) %MON ad_forcing_adfv_mean         =   0.0000000000000E+00
(PID.TID 0000.0001) %MON ad_forcing_adfv_sd           =   0.0000000000000E+00
(PID.TID 0000.0001) %MON ad_forcing_adfv_del2         =   0.0000000000000E+00
(PID.TID 0000.0001) %MON ad_advcfl_aduvel_max         =   5.4914848923870E-04
(PID.TID 0000.0001) %MON ad_advcfl_advvel_max         =   3.4727783509771E-04
(PID.TID 0000.0001) %MON ad_advcfl_adwvel_max         =   4.8546018501403E-02
(PID.TID 0000.0001) %MON ad_advcfl_adW_hf_max         =   1.7584365819836E-01
(PID.TID 0000.0001) // =======================================================
(PID.TID 0000.0001) // End MONITOR dynamic field statistics
(PID.TID 0000.0001) // =======================================================
 cg2d: Sum(rhs),rhsMax =  -1.76247905159244E-15  2.73416036634012E-03
(PID.TID 0000.0001) SOLVE_FOR_PRESSURE: putPmEinXvector =    F
 cg2d: Sum(rhs),rhsMax =   7.94736970460494E-13  5.27879962774467E-02
 SURF_ADJUSTMENT: Iter=      8641 Nb_pts,Vol=       343  8.64319980E+10
 cg2d: Sum(rhs),rhsMax =   6.11005712171375E-13  6.89199308780190E-02
 SURF_ADJUSTMENT: Iter=      8642 Nb_pts,Vol=       343  8.64329692E+10
 cg2d: Sum(rhs),rhsMax =   6.11005712171375E-13  6.89199308780190E-02
(PID.TID 0000.0001) // =======================================================
(PID.TID 0000.0001) // Begin MONITOR dynamic field statistics
(PID.TID 0000.0001) // =======================================================
(PID.TID 0000.0001) %MON ad_time_tsnumber             =                  8642
(PID.TID 0000.0001) %MON ad_time_secondsf             =   1.5555600000000E+07
(PID.TID 0000.0001) %MON ad_dynstat_adeta_max         =   1.0612854053056E-02
(PID.TID 0000.0001) %MON ad_dynstat_adeta_min         =  -4.7618380259430E-02
(PID.TID 0000.0001) %MON ad_dynstat_adeta_mean        =  -1.5603762428566E-04
(PID.TID 0000.0001) %MON ad_dynstat_adeta_sd          =   4.2598818834787E-03
(PID.TID 0000.0001) %MON ad_dynstat_adeta_del2        =   7.0762327850712E-05
(PID.TID 0000.0001) %MON ad_dynstat_aduvel_max        =   2.0807741655256E-03
(PID.TID 0000.0001) %MON ad_dynstat_aduvel_min        =  -7.4955688714121E-04
(PID.TID 0000.0001) %MON ad_dynstat_aduvel_mean       =  -1.6078665954930E-04
(PID.TID 0000.0001) %MON ad_dynstat_aduvel_sd         =   1.1767969703393E-04
(PID.TID 0000.0001) %MON ad_dynstat_aduvel_del2       =   2.3051060091023E-07
(PID.TID 0000.0001) %MON ad_dynstat_advvel_max        =   1.4517801922596E-04
(PID.TID 0000.0001) %MON ad_dynstat_advvel_min        =  -2.0889592489321E-03
(PID.TID 0000.0001) %MON ad_dynstat_advvel_mean       =  -7.0027935916177E-04
(PID.TID 0000.0001) %MON ad_dynstat_advvel_sd         =   2.6886110750850E-04
(PID.TID 0000.0001) %MON ad_dynstat_advvel_del2       =   2.4609613204201E-07
(PID.TID 0000.0001) %MON ad_dynstat_adwvel_max        =   4.9675299444846E-04
(PID.TID 0000.0001) %MON ad_dynstat_adwvel_min        =  -9.0828615910887E-04
(PID.TID 0000.0001) %MON ad_dynstat_adwvel_mean       =  -7.1608304840206E-06
(PID.TID 0000.0001) %MON ad_dynstat_adwvel_sd         =   5.4884359989842E-05
(PID.TID 0000.0001) %MON ad_dynstat_adwvel_del2       =   2.7091378363948E-07
(PID.TID 0000.0001) %MON ad_dynstat_adtheta_max       =  -9.6114077502522E-01
(PID.TID 0000.0001) %MON ad_dynstat_adtheta_min       =  -6.7320746174902E+00
(PID.TID 0000.0001) %MON ad_dynstat_adtheta_mean      =  -3.8272039319893E+00
(PID.TID 0000.0001) %MON ad_dynstat_adtheta_sd        =   7.0200620176495E-02
(PID.TID 0000.0001) %MON ad_dynstat_adtheta_del2      =   2.7620795082536E-04
(PID.TID 0000.0001) %MON ad_dynstat_adsalt_max        =   1.6382876007408E-02
(PID.TID 0000.0001) %MON ad_dynstat_adsalt_min        =  -1.5164676339895E-02
(PID.TID 0000.0001) %MON ad_dynstat_adsalt_mean       =   1.0697045296898E-04
(PID.TID 0000.0001) %MON ad_dynstat_adsalt_sd         =   6.1509489277844E-04
(PID.TID 0000.0001) %MON ad_dynstat_adsalt_del2       =   3.0106550950056E-06
(PID.TID 0000.0001) %MON ad_dynstat_adsst_max         =   0.0000000000000E+00
(PID.TID 0000.0001) %MON ad_dynstat_adsst_min         =   0.0000000000000E+00
(PID.TID 0000.0001) %MON ad_dynstat_adsst_mean        =   0.0000000000000E+00
(PID.TID 0000.0001) %MON ad_dynstat_adsst_sd          =   0.0000000000000E+00
(PID.TID 0000.0001) %MON ad_dynstat_adsst_del2        =   0.0000000000000E+00
(PID.TID 0000.0001) %MON ad_dynstat_adsss_max         =   0.0000000000000E+00
(PID.TID 0000.0001) %MON ad_dynstat_adsss_min         =   0.0000000000000E+00
(PID.TID 0000.0001) %MON ad_dynstat_adsss_mean        =   0.0000000000000E+00
(PID.TID 0000.0001) %MON ad_dynstat_adsss_sd          =   0.0000000000000E+00
(PID.TID 0000.0001) %MON ad_dynstat_adsss_del2        =   0.0000000000000E+00
(PID.TID 0000.0001) %MON ad_forcing_adqnet_max        =   0.0000000000000E+00
(PID.TID 0000.0001) %MON ad_forcing_adqnet_min        =   0.0000000000000E+00
(PID.TID 0000.0001) %MON ad_forcing_adqnet_mean       =   0.0000000000000E+00
(PID.TID 0000.0001) %MON ad_forcing_adqnet_sd         =   0.0000000000000E+00
(PID.TID 0000.0001) %MON ad_forcing_adqnet_del2       =   0.0000000000000E+00
(PID.TID 0000.0001) %MON ad_forcing_adempmr_max       =   0.0000000000000E+00
(PID.TID 0000.0001) %MON ad_forcing_adempmr_min       =   0.0000000000000E+00
(PID.TID 0000.0001) %MON ad_forcing_adempmr_mean      =   0.0000000000000E+00
(PID.TID 0000.0001) %MON ad_forcing_adempmr_sd        =   0.0000000000000E+00
(PID.TID 0000.0001) %MON ad_forcing_adempmr_del2      =   0.0000000000000E+00
(PID.TID 0000.0001) %MON ad_forcing_adfu_max          =   0.0000000000000E+00
(PID.TID 0000.0001) %MON ad_forcing_adfu_min          =   0.0000000000000E+00
(PID.TID 0000.0001) %MON ad_forcing_adfu_mean         =   0.0000000000000E+00
(PID.TID 0000.0001) %MON ad_forcing_adfu_sd           =   0.0000000000000E+00
(PID.TID 0000.0001) %MON ad_forcing_adfu_del2         =   0.0000000000000E+00
(PID.TID 0000.0001) %MON ad_forcing_adfv_max          =   0.0000000000000E+00
(PID.TID 0000.0001) %MON ad_forcing_adfv_min          =   0.0000000000000E+00
(PID.TID 0000.0001) %MON ad_forcing_adfv_mean         =   0.0000000000000E+00
(PID.TID 0000.0001) %MON ad_forcing_adfv_sd           =   0.0000000000000E+00
(PID.TID 0000.0001) %MON ad_forcing_adfv_del2         =   0.0000000000000E+00
(PID.TID 0000.0001) %MON ad_advcfl_aduvel_max         =   5.8588897932804E-04
(PID.TID 0000.0001) %MON ad_advcfl_advvel_max         =   3.3820939932422E-04
(PID.TID 0000.0001) %MON ad_advcfl_adwvel_max         =   5.4497169546532E-02
(PID.TID 0000.0001) %MON ad_advcfl_adW_hf_max         =   2.4116484632698E-01
(PID.TID 0000.0001) // =======================================================
(PID.TID 0000.0001) // End MONITOR dynamic field statistics
(PID.TID 0000.0001) // =======================================================
 cg2d: Sum(rhs),rhsMax =   8.46545056276682E-16  2.61337625312016E-03
(PID.TID 0000.0001) SOLVE_FOR_PRESSURE: putPmEinXvector =    F
 cg2d: Sum(rhs),rhsMax =   7.94736970460494E-13  5.27879962774467E-02
(PID.TID 0000.0001) // =======================================================
(PID.TID 0000.0001) // Begin MONITOR dynamic field statistics
(PID.TID 0000.0001) // =======================================================
(PID.TID 0000.0001) %MON ad_time_tsnumber             =                  8641
(PID.TID 0000.0001) %MON ad_time_secondsf             =   1.5553800000000E+07
(PID.TID 0000.0001) %MON ad_dynstat_adeta_max         =   2.5086011850016E-02
(PID.TID 0000.0001) %MON ad_dynstat_adeta_min         =  -7.1278337278524E-02
(PID.TID 0000.0001) %MON ad_dynstat_adeta_mean        =  -1.5514919344976E-04
(PID.TID 0000.0001) %MON ad_dynstat_adeta_sd          =   5.1768309030865E-03
(PID.TID 0000.0001) %MON ad_dynstat_adeta_del2        =   8.5832566260281E-05
(PID.TID 0000.0001) %MON ad_dynstat_aduvel_max        =   2.1090444704258E-03
(PID.TID 0000.0001) %MON ad_dynstat_aduvel_min        =  -7.8137872124660E-04
(PID.TID 0000.0001) %MON ad_dynstat_aduvel_mean       =   5.3869167212032E-05
(PID.TID 0000.0001) %MON ad_dynstat_aduvel_sd         =   1.2129529094009E-04
(PID.TID 0000.0001) %MON ad_dynstat_aduvel_del2       =   2.5966275017257E-07
(PID.TID 0000.0001) %MON ad_dynstat_advvel_max        =   5.6886135507813E-04
(PID.TID 0000.0001) %MON ad_dynstat_advvel_min        =  -1.8374312670140E-03
(PID.TID 0000.0001) %MON ad_dynstat_advvel_mean       =  -8.1761589648934E-04
(PID.TID 0000.0001) %MON ad_dynstat_advvel_sd         =   2.7038164617862E-04
(PID.TID 0000.0001) %MON ad_dynstat_advvel_del2       =   2.7722260576151E-07
(PID.TID 0000.0001) %MON ad_dynstat_adwvel_max        =   5.1853210287928E-04
(PID.TID 0000.0001) %MON ad_dynstat_adwvel_min        =  -1.0588335266399E-03
(PID.TID 0000.0001) %MON ad_dynstat_adwvel_mean       =  -7.5220307635551E-06
(PID.TID 0000.0001) %MON ad_dynstat_adwvel_sd         =   5.8059025962009E-05
(PID.TID 0000.0001) %MON ad_dynstat_adwvel_del2       =   2.8172035362537E-07
(PID.TID 0000.0001) %MON ad_dynstat_adtheta_max       =  -9.5708661241654E-01
(PID.TID 0000.0001) %MON ad_dynstat_adtheta_min       =  -6.5724231037172E+00
(PID.TID 0000.0001) %MON ad_dynstat_adtheta_mean      =  -3.8271058273019E+00
(PID.TID 0000.0001) %MON ad_dynstat_adtheta_sd        =   7.2315113771818E-02
(PID.TID 0000.0001) %MON ad_dynstat_adtheta_del2      =   3.0702394902194E-04
(PID.TID 0000.0001) %MON ad_dynstat_adsalt_max        =   1.8125142179100E-02
(PID.TID 0000.0001) %MON ad_dynstat_adsalt_min        =  -1.7298579901404E-02
(PID.TID 0000.0001) %MON ad_dynstat_adsalt_mean       =   1.2303883838495E-04
(PID.TID 0000.0001) %MON ad_dynstat_adsalt_sd         =   6.8819564167981E-04
(PID.TID 0000.0001) %MON ad_dynstat_adsalt_del2       =   3.3921961366625E-06
(PID.TID 0000.0001) %MON ad_dynstat_adsst_max         =   0.0000000000000E+00
(PID.TID 0000.0001) %MON ad_dynstat_adsst_min         =   0.0000000000000E+00
(PID.TID 0000.0001) %MON ad_dynstat_adsst_mean        =   0.0000000000000E+00
(PID.TID 0000.0001) %MON ad_dynstat_adsst_sd          =   0.0000000000000E+00
(PID.TID 0000.0001) %MON ad_dynstat_adsst_del2        =   0.0000000000000E+00
(PID.TID 0000.0001) %MON ad_dynstat_adsss_max         =   0.0000000000000E+00
(PID.TID 0000.0001) %MON ad_dynstat_adsss_min         =   0.0000000000000E+00
(PID.TID 0000.0001) %MON ad_dynstat_adsss_mean        =   0.0000000000000E+00
(PID.TID 0000.0001) %MON ad_dynstat_adsss_sd          =   0.0000000000000E+00
(PID.TID 0000.0001) %MON ad_dynstat_adsss_del2        =   0.0000000000000E+00
(PID.TID 0000.0001) %MON ad_forcing_adqnet_max        =   0.0000000000000E+00
(PID.TID 0000.0001) %MON ad_forcing_adqnet_min        =   0.0000000000000E+00
(PID.TID 0000.0001) %MON ad_forcing_adqnet_mean       =   0.0000000000000E+00
(PID.TID 0000.0001) %MON ad_forcing_adqnet_sd         =   0.0000000000000E+00
(PID.TID 0000.0001) %MON ad_forcing_adqnet_del2       =   0.0000000000000E+00
(PID.TID 0000.0001) %MON ad_forcing_adempmr_max       =   0.0000000000000E+00
(PID.TID 0000.0001) %MON ad_forcing_adempmr_min       =   0.0000000000000E+00
(PID.TID 0000.0001) %MON ad_forcing_adempmr_mean      =   0.0000000000000E+00
(PID.TID 0000.0001) %MON ad_forcing_adempmr_sd        =   0.0000000000000E+00
(PID.TID 0000.0001) %MON ad_forcing_adempmr_del2      =   0.0000000000000E+00
(PID.TID 0000.0001) %MON ad_forcing_adfu_max          =   0.0000000000000E+00
(PID.TID 0000.0001) %MON ad_forcing_adfu_min          =   0.0000000000000E+00
(PID.TID 0000.0001) %MON ad_forcing_adfu_mean         =   0.0000000000000E+00
(PID.TID 0000.0001) %MON ad_forcing_adfu_sd           =   0.0000000000000E+00
(PID.TID 0000.0001) %MON ad_forcing_adfu_del2         =   0.0000000000000E+00
(PID.TID 0000.0001) %MON ad_forcing_adfv_max          =   0.0000000000000E+00
(PID.TID 0000.0001) %MON ad_forcing_adfv_min          =   0.0000000000000E+00
(PID.TID 0000.0001) %MON ad_forcing_adfv_mean         =   0.0000000000000E+00
(PID.TID 0000.0001) %MON ad_forcing_adfv_sd           =   0.0000000000000E+00
(PID.TID 0000.0001) %MON ad_forcing_adfv_del2         =   0.0000000000000E+00
(PID.TID 0000.0001) %MON ad_advcfl_aduvel_max         =   5.9384912241213E-04
(PID.TID 0000.0001) %MON ad_advcfl_advvel_max         =   2.9748618860519E-04
(PID.TID 0000.0001) %MON ad_advcfl_adwvel_max         =   6.3530011598394E-02
(PID.TID 0000.0001) %MON ad_advcfl_adW_hf_max         =   3.0471803419920E-01
(PID.TID 0000.0001) // =======================================================
(PID.TID 0000.0001) // End MONITOR dynamic field statistics
(PID.TID 0000.0001) // =======================================================
 cg2d: Sum(rhs),rhsMax =  -1.31145094783847E-15  3.13272579971985E-03
(PID.TID 0000.0001)  nRecords = 243 ; filePrec =  64 ; fileIter =      8640
(PID.TID 0000.0001)     nDims =   2 , dims:
(PID.TID 0000.0001)    1:  50   1  50
(PID.TID 0000.0001)    2: 100   1 100
(PID.TID 0000.0001)     nFlds =  11 , nFl3D =   8 , fields:
(PID.TID 0000.0001)  >Uvel    < >Vvel    < >Theta   < >Salt    < >GuNm1   < >GvNm1   < >GtNm1   < >GsNm1   < >EtaN    < >dEtaHdt < >EtaH    <
(PID.TID 0000.0001)   nTimRec =   0 , timeList:
(PID.TID 0000.0001) READ_MFLDS_3D_RL: read field: "Uvel    ", #   1 in fldList, rec=   1
(PID.TID 0000.0001) READ_MFLDS_3D_RL: read field: "Vvel    ", #   2 in fldList, rec=   2
(PID.TID 0000.0001) READ_MFLDS_3D_RL: read field: "Theta   ", #   3 in fldList, rec=   3
(PID.TID 0000.0001) READ_MFLDS_3D_RL: read field: "Salt    ", #   4 in fldList, rec=   4
(PID.TID 0000.0001) READ_MFLDS_3D_RL: read field: "GuNm1   ", #   5 in fldList, rec=   5
(PID.TID 0000.0001) READ_MFLDS_3D_RL: read field: "GvNm1   ", #   6 in fldList, rec=   6
(PID.TID 0000.0001) READ_MFLDS_3D_RL: read field: "GtNm1   ", #   7 in fldList, rec=   7
(PID.TID 0000.0001) READ_MFLDS_3D_RL: read field: "GsNm1   ", #   8 in fldList, rec=   8
(PID.TID 0000.0001) READ_MFLDS_3D_RL: read field: "EtaN    ", #   9 in fldList, rec= 241
(PID.TID 0000.0001) READ_MFLDS_3D_RL: read field: "dEtaHdt ", #  10 in fldList, rec= 242
(PID.TID 0000.0001) READ_MFLDS_3D_RL: read field: "EtaH    ", #  11 in fldList, rec= 243
(PID.TID 0000.0001) READ_MFLDS_CHECK: - normal end ; reset MFLDS file-name: pickup.0000008640
 SURF_ADJUSTMENT: Iter=        -1 Nb_pts,Vol=       343  8.64061790E+10
(PID.TID 0000.0001) // =======================================================
(PID.TID 0000.0001) // Begin MONITOR dynamic field statistics
(PID.TID 0000.0001) // =======================================================
(PID.TID 0000.0001) %MON ad_time_tsnumber             =                  8640
(PID.TID 0000.0001) %MON ad_time_secondsf             =   1.5552000000000E+07
(PID.TID 0000.0001) %MON ad_dynstat_adeta_max         =   4.1368832543704E-02
(PID.TID 0000.0001) %MON ad_dynstat_adeta_min         =  -9.5023452898565E-02
(PID.TID 0000.0001) %MON ad_dynstat_adeta_mean        =  -1.4004634237305E-04
(PID.TID 0000.0001) %MON ad_dynstat_adeta_sd          =   6.6829190255283E-03
(PID.TID 0000.0001) %MON ad_dynstat_adeta_del2        =   1.0812274294714E-04
(PID.TID 0000.0001) %MON ad_dynstat_aduvel_max        =   2.0389158465565E-03
(PID.TID 0000.0001) %MON ad_dynstat_aduvel_min        =  -9.4799352118079E-04
(PID.TID 0000.0001) %MON ad_dynstat_aduvel_mean       =   2.8535574114025E-04
(PID.TID 0000.0001) %MON ad_dynstat_aduvel_sd         =   1.4698109849409E-04
(PID.TID 0000.0001) %MON ad_dynstat_aduvel_del2       =   3.1882040044715E-07
(PID.TID 0000.0001) %MON ad_dynstat_advvel_max        =   1.0679401096732E-03
(PID.TID 0000.0001) %MON ad_dynstat_advvel_min        =  -1.6720960062132E-03
(PID.TID 0000.0001) %MON ad_dynstat_advvel_mean       =  -8.3601040847795E-04
(PID.TID 0000.0001) %MON ad_dynstat_advvel_sd         =   2.8166382532495E-04
(PID.TID 0000.0001) %MON ad_dynstat_advvel_del2       =   3.2755315464082E-07
(PID.TID 0000.0001) %MON ad_dynstat_adwvel_max        =   5.4105083819873E-04
(PID.TID 0000.0001) %MON ad_dynstat_adwvel_min        =  -1.2183953830036E-03
(PID.TID 0000.0001) %MON ad_dynstat_adwvel_mean       =  -7.5607362197208E-06
(PID.TID 0000.0001) %MON ad_dynstat_adwvel_sd         =   6.0031321981799E-05
(PID.TID 0000.0001) %MON ad_dynstat_adwvel_del2       =   2.9979994364205E-07
(PID.TID 0000.0001) %MON ad_dynstat_adtheta_max       =  -9.5621715357277E-01
(PID.TID 0000.0001) %MON ad_dynstat_adtheta_min       =  -6.7122459702605E+00
(PID.TID 0000.0001) %MON ad_dynstat_adtheta_mean      =  -3.8272558786338E+00
(PID.TID 0000.0001) %MON ad_dynstat_adtheta_sd        =   8.2296044590231E-02
(PID.TID 0000.0001) %MON ad_dynstat_adtheta_del2      =   3.9491650325377E-04
(PID.TID 0000.0001) %MON ad_dynstat_adsalt_max        =   1.9295128942014E-02
(PID.TID 0000.0001) %MON ad_dynstat_adsalt_min        =  -1.9014881270239E-02
(PID.TID 0000.0001) %MON ad_dynstat_adsalt_mean       =   1.3993732761088E-04
(PID.TID 0000.0001) %MON ad_dynstat_adsalt_sd         =   7.6096987985815E-04
(PID.TID 0000.0001) %MON ad_dynstat_adsalt_del2       =   3.7607508165736E-06
(PID.TID 0000.0001) %MON ad_dynstat_adsst_max         =   0.0000000000000E+00
(PID.TID 0000.0001) %MON ad_dynstat_adsst_min         =   0.0000000000000E+00
(PID.TID 0000.0001) %MON ad_dynstat_adsst_mean        =   0.0000000000000E+00
(PID.TID 0000.0001) %MON ad_dynstat_adsst_sd          =   0.0000000000000E+00
(PID.TID 0000.0001) %MON ad_dynstat_adsst_del2        =   0.0000000000000E+00
(PID.TID 0000.0001) %MON ad_dynstat_adsss_max         =   0.0000000000000E+00
(PID.TID 0000.0001) %MON ad_dynstat_adsss_min         =   0.0000000000000E+00
(PID.TID 0000.0001) %MON ad_dynstat_adsss_mean        =   0.0000000000000E+00
(PID.TID 0000.0001) %MON ad_dynstat_adsss_sd          =   0.0000000000000E+00
(PID.TID 0000.0001) %MON ad_dynstat_adsss_del2        =   0.0000000000000E+00
(PID.TID 0000.0001) %MON ad_forcing_adqnet_max        =   0.0000000000000E+00
(PID.TID 0000.0001) %MON ad_forcing_adqnet_min        =   0.0000000000000E+00
(PID.TID 0000.0001) %MON ad_forcing_adqnet_mean       =   0.0000000000000E+00
(PID.TID 0000.0001) %MON ad_forcing_adqnet_sd         =   0.0000000000000E+00
(PID.TID 0000.0001) %MON ad_forcing_adqnet_del2       =   0.0000000000000E+00
(PID.TID 0000.0001) %MON ad_forcing_adempmr_max       =   0.0000000000000E+00
(PID.TID 0000.0001) %MON ad_forcing_adempmr_min       =   0.0000000000000E+00
(PID.TID 0000.0001) %MON ad_forcing_adempmr_mean      =   0.0000000000000E+00
(PID.TID 0000.0001) %MON ad_forcing_adempmr_sd        =   0.0000000000000E+00
(PID.TID 0000.0001) %MON ad_forcing_adempmr_del2      =   0.0000000000000E+00
(PID.TID 0000.0001) %MON ad_forcing_adfu_max          =   0.0000000000000E+00
(PID.TID 0000.0001) %MON ad_forcing_adfu_min          =   0.0000000000000E+00
(PID.TID 0000.0001) %MON ad_forcing_adfu_mean         =   0.0000000000000E+00
(PID.TID 0000.0001) %MON ad_forcing_adfu_sd           =   0.0000000000000E+00
(PID.TID 0000.0001) %MON ad_forcing_adfu_del2         =   0.0000000000000E+00
(PID.TID 0000.0001) %MON ad_forcing_adfv_max          =   0.0000000000000E+00
(PID.TID 0000.0001) %MON ad_forcing_adfv_min          =   0.0000000000000E+00
(PID.TID 0000.0001) %MON ad_forcing_adfv_mean         =   0.0000000000000E+00
(PID.TID 0000.0001) %MON ad_forcing_adfv_sd           =   0.0000000000000E+00
(PID.TID 0000.0001) %MON ad_forcing_adfv_del2         =   0.0000000000000E+00
(PID.TID 0000.0001) %MON ad_advcfl_aduvel_max         =   5.7410282387518E-04
(PID.TID 0000.0001) %MON ad_advcfl_advvel_max         =   2.7071786400951E-04
(PID.TID 0000.0001) %MON ad_advcfl_adwvel_max         =   7.3103722980215E-02
(PID.TID 0000.0001) %MON ad_advcfl_adW_hf_max         =   3.5063780347703E-01
(PID.TID 0000.0001) // =======================================================
(PID.TID 0000.0001) // End MONITOR dynamic field statistics
(PID.TID 0000.0001) // =======================================================
 ph-check entering grdchk_main 
 ph-check fcref =    370310.27673519426     
grad-res -------------------------------
 grad-res  proc    #    i    j    k   bi   bj iobc               fc ref           fc + eps           fc - eps
 grad-res  proc    #    i    j    k   bi   bj iobc             adj grad            fd grad         1 - fd/adj
 grad-res exact position met: 
 grad-res     048676   20   24   20    1    1
 ph-test icomp, ncvarcomp, ichknum        48676      100597           1
 ph-grd _loc: bi, bj, icomptest, ichknum            1           1           0           1
 ph-grd _loc: bi, bj, icomptest, ichknum            1           1           0           1
 ph-grd _loc: bi, bj, icomptest, ichknum            1           1           0           1
 ph-grd _loc: bi, bj, icomptest, ichknum            1           1           0           1
 ph-grd _loc: bi, bj, icomptest, ichknum            1           1           0           1
 ph-grd _loc: bi, bj, icomptest, ichknum            1           1           0           1
 ph-grd _loc: bi, bj, icomptest, ichknum            1           1           0           1
 ph-grd _loc: bi, bj, icomptest, ichknum            1           1        2989           1
 ph-grd _loc: bi, bj, icomptest, ichknum            1           1        6076           1
 ph-grd _loc: bi, bj, icomptest, ichknum            1           1        9310           1
 ph-grd _loc: bi, bj, icomptest, ichknum            1           1       12642           1
 ph-grd _loc: bi, bj, icomptest, ichknum            1           1       16072           1
 ph-grd _loc: bi, bj, icomptest, ichknum            1           1       19649           1
 ph-grd _loc: bi, bj, icomptest, ichknum            1           1       23324           1
 ph-grd _loc: bi, bj, icomptest, ichknum            1           1       27146           1
 ph-grd _loc: bi, bj, icomptest, ichknum            1           1       31066           1
 ph-grd _loc: bi, bj, icomptest, ichknum            1           1       35084           1
 ph-grd _loc: bi, bj, icomptest, ichknum            1           1       39249           1
 ph-grd _loc: bi, bj, icomptest, ichknum            1           1       43512           1
 ph-grd _loc: bi, bj, icomptest, ichknum            1           1       47922           1
 ph-grd -->hit<--           20          24          20           1
(PID.TID 0000.0001) INI_CG2D: CG2D normalisation factor =  1.0404366262810520E-03
(PID.TID 0000.0001) 
(PID.TID 0000.0001)  nRecords = 243 ; filePrec =  64 ; fileIter =      8640
(PID.TID 0000.0001)     nDims =   2 , dims:
(PID.TID 0000.0001)    1:  50   1  50
(PID.TID 0000.0001)    2: 100   1 100
(PID.TID 0000.0001)     nFlds =  11 , nFl3D =   8 , fields:
(PID.TID 0000.0001)  >Uvel    < >Vvel    < >Theta   < >Salt    < >GuNm1   < >GvNm1   < >GtNm1   < >GsNm1   < >EtaN    < >dEtaHdt < >EtaH    <
(PID.TID 0000.0001)   nTimRec =   0 , timeList:
(PID.TID 0000.0001) READ_MFLDS_3D_RL: read field: "Uvel    ", #   1 in fldList, rec=   1
(PID.TID 0000.0001) READ_MFLDS_3D_RL: read field: "Vvel    ", #   2 in fldList, rec=   2
(PID.TID 0000.0001) READ_MFLDS_3D_RL: read field: "Theta   ", #   3 in fldList, rec=   3
(PID.TID 0000.0001) READ_MFLDS_3D_RL: read field: "Salt    ", #   4 in fldList, rec=   4
(PID.TID 0000.0001) READ_MFLDS_3D_RL: read field: "GuNm1   ", #   5 in fldList, rec=   5
(PID.TID 0000.0001) READ_MFLDS_3D_RL: read field: "GvNm1   ", #   6 in fldList, rec=   6
(PID.TID 0000.0001) READ_MFLDS_3D_RL: read field: "GtNm1   ", #   7 in fldList, rec=   7
(PID.TID 0000.0001) READ_MFLDS_3D_RL: read field: "GsNm1   ", #   8 in fldList, rec=   8
(PID.TID 0000.0001) READ_MFLDS_3D_RL: read field: "EtaN    ", #   9 in fldList, rec= 241
(PID.TID 0000.0001) READ_MFLDS_3D_RL: read field: "dEtaHdt ", #  10 in fldList, rec= 242
(PID.TID 0000.0001) READ_MFLDS_3D_RL: read field: "EtaH    ", #  11 in fldList, rec= 243
(PID.TID 0000.0001) READ_MFLDS_CHECK: - normal end ; reset MFLDS file-name: pickup.0000008640
 SURF_ADJUSTMENT: Iter=        -1 Nb_pts,Vol=       343  8.64061790E+10
 SURF_ADJUSTMENT: Iter=      8640 Nb_pts,Vol=       343  8.64061794E+10
(PID.TID 0000.0001) // =======================================================
(PID.TID 0000.0001) // Model current state
(PID.TID 0000.0001) // =======================================================
(PID.TID 0000.0001) 
(PID.TID 0000.0001) SOLVE_FOR_PRESSURE: putPmEinXvector =    F
 cg2d: Sum(rhs),rhsMax =   7.94736970460494E-13  5.27879962774467E-02
 SURF_ADJUSTMENT: Iter=      8641 Nb_pts,Vol=       343  8.64319973E+10
 cg2d: Sum(rhs),rhsMax =   6.07927445363254E-13  6.89199298820870E-02
 SURF_ADJUSTMENT: Iter=      8642 Nb_pts,Vol=       343  8.64329686E+10
 cg2d: Sum(rhs),rhsMax =   5.06935205618619E-13  8.30013900899322E-02
 SURF_ADJUSTMENT: Iter=      8643 Nb_pts,Vol=       343  8.64326320E+10
 cg2d: Sum(rhs),rhsMax =   4.27519524230820E-13  9.80469286534921E-02
 SURF_ADJUSTMENT: Iter=      8644 Nb_pts,Vol=       343  8.64311176E+10
 cg2d: Sum(rhs),rhsMax =   3.67877806667881E-13  1.14437154795404E-01
 SURF_ADJUSTMENT: Iter=      8645 Nb_pts,Vol=       343  8.64283645E+10
 cg2d: Sum(rhs),rhsMax =   3.19407491449798E-13  1.32277266475792E-01
 SURF_ADJUSTMENT: Iter=      8646 Nb_pts,Vol=       343  8.64246878E+10
 cg2d: Sum(rhs),rhsMax =   2.78938249451480E-13  1.51606738949938E-01
 SURF_ADJUSTMENT: Iter=      8647 Nb_pts,Vol=       343  8.64206701E+10
 cg2d: Sum(rhs),rhsMax =   2.44546136812795E-13  1.72455775480410E-01
 SURF_ADJUSTMENT: Iter=      8648 Nb_pts,Vol=       343  8.64169956E+10
 cg2d: Sum(rhs),rhsMax =   2.14681815076737E-13  1.94849585656081E-01
 SURF_ADJUSTMENT: Iter=      8649 Nb_pts,Vol=       343  8.64143149E+10
 cg2d: Sum(rhs),rhsMax =   1.90991509716951E-13  2.18814299408916E-01
 SURF_ADJUSTMENT: Iter=      8650 Nb_pts,Vol=       343  8.64131518E+10
(PID.TID 0000.0001) Did not write pickup because writePickupAtEnd = FALSE
 --> objf_shelfice(bi,bj) =  0.000000000000000D+00
 --> objf_shifwflx(bi,bj) =  0.000000000000000D+00
 --> objf_test(bi,bj)   =  0.370310238553308D+06
 --> objf_tracer(bi,bj) =  0.000000000000000D+00
 --> objf_atl(bi,bj)    =  0.000000000000000D+00
  local fc =  0.370310238553308D+06
 global fc =  0.370310238553308D+06
 ph-check fcpertplus =    370310.23855330836     
 ph-check fcpertminus =    370310.27673519426     
(PID.TID 0000.0001) INI_CG2D: CG2D normalisation factor =  1.0404366262810520E-03
(PID.TID 0000.0001) 
(PID.TID 0000.0001)  nRecords = 243 ; filePrec =  64 ; fileIter =      8640
(PID.TID 0000.0001)     nDims =   2 , dims:
(PID.TID 0000.0001)    1:  50   1  50
(PID.TID 0000.0001)    2: 100   1 100
(PID.TID 0000.0001)     nFlds =  11 , nFl3D =   8 , fields:
(PID.TID 0000.0001)  >Uvel    < >Vvel    < >Theta   < >Salt    < >GuNm1   < >GvNm1   < >GtNm1   < >GsNm1   < >EtaN    < >dEtaHdt < >EtaH    <
(PID.TID 0000.0001)   nTimRec =   0 , timeList:
(PID.TID 0000.0001) READ_MFLDS_3D_RL: read field: "Uvel    ", #   1 in fldList, rec=   1
(PID.TID 0000.0001) READ_MFLDS_3D_RL: read field: "Vvel    ", #   2 in fldList, rec=   2
(PID.TID 0000.0001) READ_MFLDS_3D_RL: read field: "Theta   ", #   3 in fldList, rec=   3
(PID.TID 0000.0001) READ_MFLDS_3D_RL: read field: "Salt    ", #   4 in fldList, rec=   4
(PID.TID 0000.0001) READ_MFLDS_3D_RL: read field: "GuNm1   ", #   5 in fldList, rec=   5
(PID.TID 0000.0001) READ_MFLDS_3D_RL: read field: "GvNm1   ", #   6 in fldList, rec=   6
(PID.TID 0000.0001) READ_MFLDS_3D_RL: read field: "GtNm1   ", #   7 in fldList, rec=   7
(PID.TID 0000.0001) READ_MFLDS_3D_RL: read field: "GsNm1   ", #   8 in fldList, rec=   8
(PID.TID 0000.0001) READ_MFLDS_3D_RL: read field: "EtaN    ", #   9 in fldList, rec= 241
(PID.TID 0000.0001) READ_MFLDS_3D_RL: read field: "dEtaHdt ", #  10 in fldList, rec= 242
(PID.TID 0000.0001) READ_MFLDS_3D_RL: read field: "EtaH    ", #  11 in fldList, rec= 243
(PID.TID 0000.0001) READ_MFLDS_CHECK: - normal end ; reset MFLDS file-name: pickup.0000008640
 SURF_ADJUSTMENT: Iter=        -1 Nb_pts,Vol=       343  8.64061790E+10
 SURF_ADJUSTMENT: Iter=      8640 Nb_pts,Vol=       343  8.64061794E+10
(PID.TID 0000.0001) // =======================================================
(PID.TID 0000.0001) // Model current state
(PID.TID 0000.0001) // =======================================================
(PID.TID 0000.0001) 
(PID.TID 0000.0001) SOLVE_FOR_PRESSURE: putPmEinXvector =    F
 cg2d: Sum(rhs),rhsMax =   7.94736970460494E-13  5.27879962774467E-02
 SURF_ADJUSTMENT: Iter=      8641 Nb_pts,Vol=       343  8.64319987E+10
 cg2d: Sum(rhs),rhsMax =   6.10034754915806E-13  6.89199318709385E-02
 SURF_ADJUSTMENT: Iter=      8642 Nb_pts,Vol=       343  8.64329699E+10
 cg2d: Sum(rhs),rhsMax =   5.04423380235514E-13  8.30013919249400E-02
 SURF_ADJUSTMENT: Iter=      8643 Nb_pts,Vol=       343  8.64326333E+10
 cg2d: Sum(rhs),rhsMax =   4.29051285060107E-13  9.80469290944162E-02
 SURF_ADJUSTMENT: Iter=      8644 Nb_pts,Vol=       343  8.64311189E+10
 cg2d: Sum(rhs),rhsMax =   3.67769074742508E-13  1.14437154291675E-01
 SURF_ADJUSTMENT: Iter=      8645 Nb_pts,Vol=       343  8.64283659E+10
 cg2d: Sum(rhs),rhsMax =   3.18026421169959E-13  1.32277265425282E-01
 SURF_ADJUSTMENT: Iter=      8646 Nb_pts,Vol=       343  8.64246892E+10
 cg2d: Sum(rhs),rhsMax =   2.76085523800290E-13  1.51606737291434E-01
 SURF_ADJUSTMENT: Iter=      8647 Nb_pts,Vol=       343  8.64206714E+10
 cg2d: Sum(rhs),rhsMax =   2.45014485046255E-13  1.72455773018722E-01
 SURF_ADJUSTMENT: Iter=      8648 Nb_pts,Vol=       343  8.64169969E+10
 cg2d: Sum(rhs),rhsMax =   2.12495331660539E-13  1.94849582278502E-01
 SURF_ADJUSTMENT: Iter=      8649 Nb_pts,Vol=       343  8.64143162E+10
 cg2d: Sum(rhs),rhsMax =   1.94600141122797E-13  2.18814295113465E-01
 SURF_ADJUSTMENT: Iter=      8650 Nb_pts,Vol=       343  8.64131530E+10
(PID.TID 0000.0001) Did not write pickup because writePickupAtEnd = FALSE
 --> objf_shelfice(bi,bj) =  0.000000000000000D+00
 --> objf_shifwflx(bi,bj) =  0.000000000000000D+00
 --> objf_test(bi,bj)   =  0.370310315079242D+06
 --> objf_tracer(bi,bj) =  0.000000000000000D+00
 --> objf_atl(bi,bj)    =  0.000000000000000D+00
  local fc =  0.370310315079242D+06
 global fc =  0.370310315079242D+06
grad-res -------------------------------
 grad-res     0    1   20   24   20    1    1    1   3.70310276735E+05  3.70310238553E+05  3.70310315079E+05
 grad-res     0    1    148676    0    1    1    1  -3.82629669052E+00 -3.82629665837E+00  8.40112435174E-09
(PID.TID 0000.0001)  ADM  ref_cost_function      =  3.70310276735194E+05
(PID.TID 0000.0001)  ADM  adjoint_gradient       = -3.82629669051677E+00
(PID.TID 0000.0001)  ADM  finite-diff_grad       = -3.82629665837158E+00
 ph-grd  ierr ---------------------------
 ph-grd  ierr =            0 , icomp =        48676 , ichknum =            1
 ph-test icomp, ncvarcomp, ichknum        48677      100597           2
 ph-grd _loc: bi, bj, icomptest, ichknum            1           1       48676           2
 ph-grd -->hit<--           21          24          20           1
(PID.TID 0000.0001) INI_CG2D: CG2D normalisation factor =  1.0404366262810520E-03
(PID.TID 0000.0001) 
(PID.TID 0000.0001)  nRecords = 243 ; filePrec =  64 ; fileIter =      8640
(PID.TID 0000.0001)     nDims =   2 , dims:
(PID.TID 0000.0001)    1:  50   1  50
(PID.TID 0000.0001)    2: 100   1 100
(PID.TID 0000.0001)     nFlds =  11 , nFl3D =   8 , fields:
(PID.TID 0000.0001)  >Uvel    < >Vvel    < >Theta   < >Salt    < >GuNm1   < >GvNm1   < >GtNm1   < >GsNm1   < >EtaN    < >dEtaHdt < >EtaH    <
(PID.TID 0000.0001)   nTimRec =   0 , timeList:
(PID.TID 0000.0001) READ_MFLDS_3D_RL: read field: "Uvel    ", #   1 in fldList, rec=   1
(PID.TID 0000.0001) READ_MFLDS_3D_RL: read field: "Vvel    ", #   2 in fldList, rec=   2
(PID.TID 0000.0001) READ_MFLDS_3D_RL: read field: "Theta   ", #   3 in fldList, rec=   3
(PID.TID 0000.0001) READ_MFLDS_3D_RL: read field: "Salt    ", #   4 in fldList, rec=   4
(PID.TID 0000.0001) READ_MFLDS_3D_RL: read field: "GuNm1   ", #   5 in fldList, rec=   5
(PID.TID 0000.0001) READ_MFLDS_3D_RL: read field: "GvNm1   ", #   6 in fldList, rec=   6
(PID.TID 0000.0001) READ_MFLDS_3D_RL: read field: "GtNm1   ", #   7 in fldList, rec=   7
(PID.TID 0000.0001) READ_MFLDS_3D_RL: read field: "GsNm1   ", #   8 in fldList, rec=   8
(PID.TID 0000.0001) READ_MFLDS_3D_RL: read field: "EtaN    ", #   9 in fldList, rec= 241
(PID.TID 0000.0001) READ_MFLDS_3D_RL: read field: "dEtaHdt ", #  10 in fldList, rec= 242
(PID.TID 0000.0001) READ_MFLDS_3D_RL: read field: "EtaH    ", #  11 in fldList, rec= 243
(PID.TID 0000.0001) READ_MFLDS_CHECK: - normal end ; reset MFLDS file-name: pickup.0000008640
 SURF_ADJUSTMENT: Iter=        -1 Nb_pts,Vol=       343  8.64061790E+10
 SURF_ADJUSTMENT: Iter=      8640 Nb_pts,Vol=       343  8.64061794E+10
(PID.TID 0000.0001) // =======================================================
(PID.TID 0000.0001) // Model current state
(PID.TID 0000.0001) // =======================================================
(PID.TID 0000.0001) 
(PID.TID 0000.0001) SOLVE_FOR_PRESSURE: putPmEinXvector =    F
 cg2d: Sum(rhs),rhsMax =   7.94736970460494E-13  5.27879962774467E-02
 SURF_ADJUSTMENT: Iter=      8641 Nb_pts,Vol=       343  8.64319973E+10
 cg2d: Sum(rhs),rhsMax =   6.06661259856117E-13  6.89199299500083E-02
 SURF_ADJUSTMENT: Iter=      8642 Nb_pts,Vol=       343  8.64329686E+10
 cg2d: Sum(rhs),rhsMax =   5.03687017225016E-13  8.30013901006572E-02
 SURF_ADJUSTMENT: Iter=      8643 Nb_pts,Vol=       343  8.64326320E+10
 cg2d: Sum(rhs),rhsMax =   4.28489871622667E-13  9.80469285857291E-02
 SURF_ADJUSTMENT: Iter=      8644 Nb_pts,Vol=       343  8.64311176E+10
 cg2d: Sum(rhs),rhsMax =   3.66219411024847E-13  1.14437154679119E-01
 SURF_ADJUSTMENT: Iter=      8645 Nb_pts,Vol=       343  8.64283645E+10
 cg2d: Sum(rhs),rhsMax =   3.16916835114110E-13  1.32277266312312E-01
 SURF_ADJUSTMENT: Iter=      8646 Nb_pts,Vol=       343  8.64246878E+10
 cg2d: Sum(rhs),rhsMax =   2.74975734456534E-13  1.51606738723353E-01
 SURF_ADJUSTMENT: Iter=      8647 Nb_pts,Vol=       343  8.64206701E+10
 cg2d: Sum(rhs),rhsMax =   2.44186967738105E-13  1.72455775176135E-01
 SURF_ADJUSTMENT: Iter=      8648 Nb_pts,Vol=       343  8.64169956E+10
 cg2d: Sum(rhs),rhsMax =   2.13115522408255E-13  1.94849585262788E-01
 SURF_ADJUSTMENT: Iter=      8649 Nb_pts,Vol=       343  8.64143149E+10
 cg2d: Sum(rhs),rhsMax =   1.91116355597112E-13  2.18814298916312E-01
 SURF_ADJUSTMENT: Iter=      8650 Nb_pts,Vol=       343  8.64131518E+10
(PID.TID 0000.0001) Did not write pickup because writePickupAtEnd = FALSE
 --> objf_shelfice(bi,bj) =  0.000000000000000D+00
 --> objf_shifwflx(bi,bj) =  0.000000000000000D+00
 --> objf_test(bi,bj)   =  0.370310238558716D+06
 --> objf_tracer(bi,bj) =  0.000000000000000D+00
 --> objf_atl(bi,bj)    =  0.000000000000000D+00
  local fc =  0.370310238558716D+06
 global fc =  0.370310238558716D+06
 ph-check fcpertplus =    370310.23855871649     
 ph-check fcpertminus =    370310.27673519426     
(PID.TID 0000.0001) INI_CG2D: CG2D normalisation factor =  1.0404366262810520E-03
(PID.TID 0000.0001) 
(PID.TID 0000.0001)  nRecords = 243 ; filePrec =  64 ; fileIter =      8640
(PID.TID 0000.0001)     nDims =   2 , dims:
(PID.TID 0000.0001)    1:  50   1  50
(PID.TID 0000.0001)    2: 100   1 100
(PID.TID 0000.0001)     nFlds =  11 , nFl3D =   8 , fields:
(PID.TID 0000.0001)  >Uvel    < >Vvel    < >Theta   < >Salt    < >GuNm1   < >GvNm1   < >GtNm1   < >GsNm1   < >EtaN    < >dEtaHdt < >EtaH    <
(PID.TID 0000.0001)   nTimRec =   0 , timeList:
(PID.TID 0000.0001) READ_MFLDS_3D_RL: read field: "Uvel    ", #   1 in fldList, rec=   1
(PID.TID 0000.0001) READ_MFLDS_3D_RL: read field: "Vvel    ", #   2 in fldList, rec=   2
(PID.TID 0000.0001) READ_MFLDS_3D_RL: read field: "Theta   ", #   3 in fldList, rec=   3
(PID.TID 0000.0001) READ_MFLDS_3D_RL: read field: "Salt    ", #   4 in fldList, rec=   4
(PID.TID 0000.0001) READ_MFLDS_3D_RL: read field: "GuNm1   ", #   5 in fldList, rec=   5
(PID.TID 0000.0001) READ_MFLDS_3D_RL: read field: "GvNm1   ", #   6 in fldList, rec=   6
(PID.TID 0000.0001) READ_MFLDS_3D_RL: read field: "GtNm1   ", #   7 in fldList, rec=   7
(PID.TID 0000.0001) READ_MFLDS_3D_RL: read field: "GsNm1   ", #   8 in fldList, rec=   8
(PID.TID 0000.0001) READ_MFLDS_3D_RL: read field: "EtaN    ", #   9 in fldList, rec= 241
(PID.TID 0000.0001) READ_MFLDS_3D_RL: read field: "dEtaHdt ", #  10 in fldList, rec= 242
(PID.TID 0000.0001) READ_MFLDS_3D_RL: read field: "EtaH    ", #  11 in fldList, rec= 243
(PID.TID 0000.0001) READ_MFLDS_CHECK: - normal end ; reset MFLDS file-name: pickup.0000008640
 SURF_ADJUSTMENT: Iter=        -1 Nb_pts,Vol=       343  8.64061790E+10
 SURF_ADJUSTMENT: Iter=      8640 Nb_pts,Vol=       343  8.64061794E+10
(PID.TID 0000.0001) // =======================================================
(PID.TID 0000.0001) // Model current state
(PID.TID 0000.0001) // =======================================================
(PID.TID 0000.0001) 
(PID.TID 0000.0001) SOLVE_FOR_PRESSURE: putPmEinXvector =    F
 cg2d: Sum(rhs),rhsMax =   7.94736970460494E-13  5.27879962774467E-02
 SURF_ADJUSTMENT: Iter=      8641 Nb_pts,Vol=       343  8.64319987E+10
 cg2d: Sum(rhs),rhsMax =   6.09588388881394E-13  6.89199318032400E-02
 SURF_ADJUSTMENT: Iter=      8642 Nb_pts,Vol=       343  8.64329699E+10
 cg2d: Sum(rhs),rhsMax =   5.04888665597836E-13  8.30013919142198E-02
 SURF_ADJUSTMENT: Iter=      8643 Nb_pts,Vol=       343  8.64326333E+10
 cg2d: Sum(rhs),rhsMax =   4.27882677748494E-13  9.80469291621051E-02
 SURF_ADJUSTMENT: Iter=      8644 Nb_pts,Vol=       343  8.64311189E+10
 cg2d: Sum(rhs),rhsMax =   3.65702639611859E-13  1.14437154407490E-01
 SURF_ADJUSTMENT: Iter=      8645 Nb_pts,Vol=       343  8.64283659E+10
 cg2d: Sum(rhs),rhsMax =   3.16281506193561E-13  1.32277265588343E-01
 SURF_ADJUSTMENT: Iter=      8646 Nb_pts,Vol=       343  8.64246892E+10
 cg2d: Sum(rhs),rhsMax =   2.76700103801764E-13  1.51606737517201E-01
 SURF_ADJUSTMENT: Iter=      8647 Nb_pts,Vol=       343  8.64206714E+10
 cg2d: Sum(rhs),rhsMax =   2.43489392060328E-13  1.72455773322125E-01
 SURF_ADJUSTMENT: Iter=      8648 Nb_pts,Vol=       343  8.64169969E+10
 cg2d: Sum(rhs),rhsMax =   2.15622604406857E-13  1.94849582670674E-01
 SURF_ADJUSTMENT: Iter=      8649 Nb_pts,Vol=       343  8.64143162E+10
 cg2d: Sum(rhs),rhsMax =   1.94042319105053E-13  2.18814295604867E-01
 SURF_ADJUSTMENT: Iter=      8650 Nb_pts,Vol=       343  8.64131530E+10
(PID.TID 0000.0001) Did not write pickup because writePickupAtEnd = FALSE
 --> objf_shelfice(bi,bj) =  0.000000000000000D+00
 --> objf_shifwflx(bi,bj) =  0.000000000000000D+00
 --> objf_test(bi,bj)   =  0.370310315073833D+06
 --> objf_tracer(bi,bj) =  0.000000000000000D+00
 --> objf_atl(bi,bj)    =  0.000000000000000D+00
  local fc =  0.370310315073833D+06
 global fc =  0.370310315073833D+06
grad-res -------------------------------
 grad-res     0    2   21   24   20    1    1    1   3.70310276735E+05  3.70310238559E+05  3.70310315074E+05
 grad-res     0    2    248677    0    1    1    1  -3.82575589308E+00 -3.82575584226E+00  1.32827829846E-08
(PID.TID 0000.0001)  ADM  ref_cost_function      =  3.70310276735194E+05
(PID.TID 0000.0001)  ADM  adjoint_gradient       = -3.82575589307956E+00
(PID.TID 0000.0001)  ADM  finite-diff_grad       = -3.82575584226288E+00
 ph-grd  ierr ---------------------------
 ph-grd  ierr =            0 , icomp =        48677 , ichknum =            2
 ph-test icomp, ncvarcomp, ichknum        48678      100597           3
 ph-grd _loc: bi, bj, icomptest, ichknum            1           1       48677           3
 ph-grd -->hit<--           22          24          20           1
(PID.TID 0000.0001) INI_CG2D: CG2D normalisation factor =  1.0404366262810520E-03
(PID.TID 0000.0001) 
(PID.TID 0000.0001)  nRecords = 243 ; filePrec =  64 ; fileIter =      8640
(PID.TID 0000.0001)     nDims =   2 , dims:
(PID.TID 0000.0001)    1:  50   1  50
(PID.TID 0000.0001)    2: 100   1 100
(PID.TID 0000.0001)     nFlds =  11 , nFl3D =   8 , fields:
(PID.TID 0000.0001)  >Uvel    < >Vvel    < >Theta   < >Salt    < >GuNm1   < >GvNm1   < >GtNm1   < >GsNm1   < >EtaN    < >dEtaHdt < >EtaH    <
(PID.TID 0000.0001)   nTimRec =   0 , timeList:
(PID.TID 0000.0001) READ_MFLDS_3D_RL: read field: "Uvel    ", #   1 in fldList, rec=   1
(PID.TID 0000.0001) READ_MFLDS_3D_RL: read field: "Vvel    ", #   2 in fldList, rec=   2
(PID.TID 0000.0001) READ_MFLDS_3D_RL: read field: "Theta   ", #   3 in fldList, rec=   3
(PID.TID 0000.0001) READ_MFLDS_3D_RL: read field: "Salt    ", #   4 in fldList, rec=   4
(PID.TID 0000.0001) READ_MFLDS_3D_RL: read field: "GuNm1   ", #   5 in fldList, rec=   5
(PID.TID 0000.0001) READ_MFLDS_3D_RL: read field: "GvNm1   ", #   6 in fldList, rec=   6
(PID.TID 0000.0001) READ_MFLDS_3D_RL: read field: "GtNm1   ", #   7 in fldList, rec=   7
(PID.TID 0000.0001) READ_MFLDS_3D_RL: read field: "GsNm1   ", #   8 in fldList, rec=   8
(PID.TID 0000.0001) READ_MFLDS_3D_RL: read field: "EtaN    ", #   9 in fldList, rec= 241
(PID.TID 0000.0001) READ_MFLDS_3D_RL: read field: "dEtaHdt ", #  10 in fldList, rec= 242
(PID.TID 0000.0001) READ_MFLDS_3D_RL: read field: "EtaH    ", #  11 in fldList, rec= 243
(PID.TID 0000.0001) READ_MFLDS_CHECK: - normal end ; reset MFLDS file-name: pickup.0000008640
 SURF_ADJUSTMENT: Iter=        -1 Nb_pts,Vol=       343  8.64061790E+10
 SURF_ADJUSTMENT: Iter=      8640 Nb_pts,Vol=       343  8.64061794E+10
(PID.TID 0000.0001) // =======================================================
(PID.TID 0000.0001) // Model current state
(PID.TID 0000.0001) // =======================================================
(PID.TID 0000.0001) 
(PID.TID 0000.0001) SOLVE_FOR_PRESSURE: putPmEinXvector =    F
 cg2d: Sum(rhs),rhsMax =   7.94736970460494E-13  5.27879962774467E-02
 SURF_ADJUSTMENT: Iter=      8641 Nb_pts,Vol=       343  8.64319973E+10
 cg2d: Sum(rhs),rhsMax =   6.08063268790413E-13  6.89199300142264E-02
 SURF_ADJUSTMENT: Iter=      8642 Nb_pts,Vol=       343  8.64329686E+10
 cg2d: Sum(rhs),rhsMax =   5.05516472865813E-13  8.30013901146328E-02
 SURF_ADJUSTMENT: Iter=      8643 Nb_pts,Vol=       343  8.64326320E+10
 cg2d: Sum(rhs),rhsMax =   4.28273979865071E-13  9.80469285265142E-02
 SURF_ADJUSTMENT: Iter=      8644 Nb_pts,Vol=       343  8.64311176E+10
 cg2d: Sum(rhs),rhsMax =   3.67624672565660E-13  1.14437154574697E-01
 SURF_ADJUSTMENT: Iter=      8645 Nb_pts,Vol=       343  8.64283645E+10
 cg2d: Sum(rhs),rhsMax =   3.16687052016179E-13  1.32277266165386E-01
 SURF_ADJUSTMENT: Iter=      8646 Nb_pts,Vol=       343  8.64246878E+10
 cg2d: Sum(rhs),rhsMax =   2.78348768730299E-13  1.51606738519734E-01
 SURF_ADJUSTMENT: Iter=      8647 Nb_pts,Vol=       343  8.64206701E+10
 cg2d: Sum(rhs),rhsMax =   2.43690430248161E-13  1.72455774902068E-01
 SURF_ADJUSTMENT: Iter=      8648 Nb_pts,Vol=       343  8.64169956E+10
 cg2d: Sum(rhs),rhsMax =   2.17520202154195E-13  1.94849584908505E-01
 SURF_ADJUSTMENT: Iter=      8649 Nb_pts,Vol=       343  8.64143149E+10
 cg2d: Sum(rhs),rhsMax =   1.91260527380999E-13  2.18814298472371E-01
 SURF_ADJUSTMENT: Iter=      8650 Nb_pts,Vol=       343  8.64131518E+10
(PID.TID 0000.0001) Did not write pickup because writePickupAtEnd = FALSE
 --> objf_shelfice(bi,bj) =  0.000000000000000D+00
 --> objf_shifwflx(bi,bj) =  0.000000000000000D+00
 --> objf_test(bi,bj)   =  0.370310238562298D+06
 --> objf_tracer(bi,bj) =  0.000000000000000D+00
 --> objf_atl(bi,bj)    =  0.000000000000000D+00
  local fc =  0.370310238562298D+06
 global fc =  0.370310238562298D+06
 ph-check fcpertplus =    370310.23856229760     
 ph-check fcpertminus =    370310.27673519426     
(PID.TID 0000.0001) INI_CG2D: CG2D normalisation factor =  1.0404366262810520E-03
(PID.TID 0000.0001) 
(PID.TID 0000.0001)  nRecords = 243 ; filePrec =  64 ; fileIter =      8640
(PID.TID 0000.0001)     nDims =   2 , dims:
(PID.TID 0000.0001)    1:  50   1  50
(PID.TID 0000.0001)    2: 100   1 100
(PID.TID 0000.0001)     nFlds =  11 , nFl3D =   8 , fields:
(PID.TID 0000.0001)  >Uvel    < >Vvel    < >Theta   < >Salt    < >GuNm1   < >GvNm1   < >GtNm1   < >GsNm1   < >EtaN    < >dEtaHdt < >EtaH    <
(PID.TID 0000.0001)   nTimRec =   0 , timeList:
(PID.TID 0000.0001) READ_MFLDS_3D_RL: read field: "Uvel    ", #   1 in fldList, rec=   1
(PID.TID 0000.0001) READ_MFLDS_3D_RL: read field: "Vvel    ", #   2 in fldList, rec=   2
(PID.TID 0000.0001) READ_MFLDS_3D_RL: read field: "Theta   ", #   3 in fldList, rec=   3
(PID.TID 0000.0001) READ_MFLDS_3D_RL: read field: "Salt    ", #   4 in fldList, rec=   4
(PID.TID 0000.0001) READ_MFLDS_3D_RL: read field: "GuNm1   ", #   5 in fldList, rec=   5
(PID.TID 0000.0001) READ_MFLDS_3D_RL: read field: "GvNm1   ", #   6 in fldList, rec=   6
(PID.TID 0000.0001) READ_MFLDS_3D_RL: read field: "GtNm1   ", #   7 in fldList, rec=   7
(PID.TID 0000.0001) READ_MFLDS_3D_RL: read field: "GsNm1   ", #   8 in fldList, rec=   8
(PID.TID 0000.0001) READ_MFLDS_3D_RL: read field: "EtaN    ", #   9 in fldList, rec= 241
(PID.TID 0000.0001) READ_MFLDS_3D_RL: read field: "dEtaHdt ", #  10 in fldList, rec= 242
(PID.TID 0000.0001) READ_MFLDS_3D_RL: read field: "EtaH    ", #  11 in fldList, rec= 243
(PID.TID 0000.0001) READ_MFLDS_CHECK: - normal end ; reset MFLDS file-name: pickup.0000008640
 SURF_ADJUSTMENT: Iter=        -1 Nb_pts,Vol=       343  8.64061790E+10
 SURF_ADJUSTMENT: Iter=      8640 Nb_pts,Vol=       343  8.64061794E+10
(PID.TID 0000.0001) // =======================================================
(PID.TID 0000.0001) // Model current state
(PID.TID 0000.0001) // =======================================================
(PID.TID 0000.0001) 
(PID.TID 0000.0001) SOLVE_FOR_PRESSURE: putPmEinXvector =    F
 cg2d: Sum(rhs),rhsMax =   7.94736970460494E-13  5.27879962774467E-02
 SURF_ADJUSTMENT: Iter=      8641 Nb_pts,Vol=       343  8.64319987E+10
 cg2d: Sum(rhs),rhsMax =   6.06450084377971E-13  6.89199317388800E-02
 SURF_ADJUSTMENT: Iter=      8642 Nb_pts,Vol=       343  8.64329699E+10
 cg2d: Sum(rhs),rhsMax =   5.03445456980986E-13  8.30013919001674E-02
 SURF_ADJUSTMENT: Iter=      8643 Nb_pts,Vol=       343  8.64326333E+10
 cg2d: Sum(rhs),rhsMax =   4.27738926092949E-13  9.80469292213974E-02
 SURF_ADJUSTMENT: Iter=      8644 Nb_pts,Vol=       343  8.64311189E+10
 cg2d: Sum(rhs),rhsMax =   3.66690171608140E-13  1.14437154511624E-01
 SURF_ADJUSTMENT: Iter=      8645 Nb_pts,Vol=       343  8.64283659E+10
 cg2d: Sum(rhs),rhsMax =   3.16088735047293E-13  1.32277265734747E-01
 SURF_ADJUSTMENT: Iter=      8646 Nb_pts,Vol=       343  8.64246892E+10
 cg2d: Sum(rhs),rhsMax =   2.77182438243248E-13  1.51606737720269E-01
 SURF_ADJUSTMENT: Iter=      8647 Nb_pts,Vol=       343  8.64206714E+10
 cg2d: Sum(rhs),rhsMax =   2.44308696537021E-13  1.72455773595487E-01
 SURF_ADJUSTMENT: Iter=      8648 Nb_pts,Vol=       343  8.64169969E+10
 cg2d: Sum(rhs),rhsMax =   2.14964060007289E-13  1.94849583024279E-01
 SURF_ADJUSTMENT: Iter=      8649 Nb_pts,Vol=       343  8.64143162E+10
 cg2d: Sum(rhs),rhsMax =   1.92148570275427E-13  2.18814296047516E-01
 SURF_ADJUSTMENT: Iter=      8650 Nb_pts,Vol=       343  8.64131530E+10
(PID.TID 0000.0001) Did not write pickup because writePickupAtEnd = FALSE
 --> objf_shelfice(bi,bj) =  0.000000000000000D+00
 --> objf_shifwflx(bi,bj) =  0.000000000000000D+00
 --> objf_test(bi,bj)   =  0.370310315070253D+06
 --> objf_tracer(bi,bj) =  0.000000000000000D+00
 --> objf_atl(bi,bj)    =  0.000000000000000D+00
  local fc =  0.370310315070253D+06
 global fc =  0.370310315070253D+06
grad-res -------------------------------
 grad-res     0    3   22   24   20    1    1    1   3.70310276735E+05  3.70310238562E+05  3.70310315070E+05
 grad-res     0    3    348678    0    1    1    1  -3.82539786200E+00 -3.82539778657E+00  1.97179264028E-08
(PID.TID 0000.0001)  ADM  ref_cost_function      =  3.70310276735194E+05
(PID.TID 0000.0001)  ADM  adjoint_gradient       = -3.82539786199683E+00
(PID.TID 0000.0001)  ADM  finite-diff_grad       = -3.82539778656792E+00
 ph-grd  ierr ---------------------------
 ph-grd  ierr =            0 , icomp =        48678 , ichknum =            3
 ph-test icomp, ncvarcomp, ichknum        48679      100597           4
 ph-grd _loc: bi, bj, icomptest, ichknum            1           1       48678           4
 ph-grd -->hit<--           23          24          20           1
(PID.TID 0000.0001) INI_CG2D: CG2D normalisation factor =  1.0404366262810520E-03
(PID.TID 0000.0001) 
(PID.TID 0000.0001)  nRecords = 243 ; filePrec =  64 ; fileIter =      8640
(PID.TID 0000.0001)     nDims =   2 , dims:
(PID.TID 0000.0001)    1:  50   1  50
(PID.TID 0000.0001)    2: 100   1 100
(PID.TID 0000.0001)     nFlds =  11 , nFl3D =   8 , fields:
(PID.TID 0000.0001)  >Uvel    < >Vvel    < >Theta   < >Salt    < >GuNm1   < >GvNm1   < >GtNm1   < >GsNm1   < >EtaN    < >dEtaHdt < >EtaH    <
(PID.TID 0000.0001)   nTimRec =   0 , timeList:
(PID.TID 0000.0001) READ_MFLDS_3D_RL: read field: "Uvel    ", #   1 in fldList, rec=   1
(PID.TID 0000.0001) READ_MFLDS_3D_RL: read field: "Vvel    ", #   2 in fldList, rec=   2
(PID.TID 0000.0001) READ_MFLDS_3D_RL: read field: "Theta   ", #   3 in fldList, rec=   3
(PID.TID 0000.0001) READ_MFLDS_3D_RL: read field: "Salt    ", #   4 in fldList, rec=   4
(PID.TID 0000.0001) READ_MFLDS_3D_RL: read field: "GuNm1   ", #   5 in fldList, rec=   5
(PID.TID 0000.0001) READ_MFLDS_3D_RL: read field: "GvNm1   ", #   6 in fldList, rec=   6
(PID.TID 0000.0001) READ_MFLDS_3D_RL: read field: "GtNm1   ", #   7 in fldList, rec=   7
(PID.TID 0000.0001) READ_MFLDS_3D_RL: read field: "GsNm1   ", #   8 in fldList, rec=   8
(PID.TID 0000.0001) READ_MFLDS_3D_RL: read field: "EtaN    ", #   9 in fldList, rec= 241
(PID.TID 0000.0001) READ_MFLDS_3D_RL: read field: "dEtaHdt ", #  10 in fldList, rec= 242
(PID.TID 0000.0001) READ_MFLDS_3D_RL: read field: "EtaH    ", #  11 in fldList, rec= 243
(PID.TID 0000.0001) READ_MFLDS_CHECK: - normal end ; reset MFLDS file-name: pickup.0000008640
 SURF_ADJUSTMENT: Iter=        -1 Nb_pts,Vol=       343  8.64061790E+10
 SURF_ADJUSTMENT: Iter=      8640 Nb_pts,Vol=       343  8.64061794E+10
(PID.TID 0000.0001) // =======================================================
(PID.TID 0000.0001) // Model current state
(PID.TID 0000.0001) // =======================================================
(PID.TID 0000.0001) 
(PID.TID 0000.0001) SOLVE_FOR_PRESSURE: putPmEinXvector =    F
 cg2d: Sum(rhs),rhsMax =   7.94736970460494E-13  5.27879962774467E-02
 SURF_ADJUSTMENT: Iter=      8641 Nb_pts,Vol=       343  8.64319973E+10
 cg2d: Sum(rhs),rhsMax =   6.10566583186464E-13  6.89199300748666E-02
 SURF_ADJUSTMENT: Iter=      8642 Nb_pts,Vol=       343  8.64329686E+10
 cg2d: Sum(rhs),rhsMax =   5.06364752645566E-13  8.30013901310932E-02
 SURF_ADJUSTMENT: Iter=      8643 Nb_pts,Vol=       343  8.64326320E+10
 cg2d: Sum(rhs),rhsMax =   4.27356961667583E-13  9.80469284747199E-02
 SURF_ADJUSTMENT: Iter=      8644 Nb_pts,Vol=       343  8.64311176E+10
 cg2d: Sum(rhs),rhsMax =   3.65878470099182E-13  1.14437154480943E-01
 SURF_ADJUSTMENT: Iter=      8645 Nb_pts,Vol=       343  8.64283645E+10
 cg2d: Sum(rhs),rhsMax =   3.18628478636340E-13  1.32277266033450E-01
 SURF_ADJUSTMENT: Iter=      8646 Nb_pts,Vol=       343  8.64246878E+10
 cg2d: Sum(rhs),rhsMax =   2.75428687019144E-13  1.51606738336754E-01
 SURF_ADJUSTMENT: Iter=      8647 Nb_pts,Vol=       343  8.64206701E+10
 cg2d: Sum(rhs),rhsMax =   2.44055318489311E-13  1.72455774655837E-01
 SURF_ADJUSTMENT: Iter=      8648 Nb_pts,Vol=       343  8.64169956E+10
 cg2d: Sum(rhs),rhsMax =   2.15375541836801E-13  1.94849584589198E-01
 SURF_ADJUSTMENT: Iter=      8649 Nb_pts,Vol=       343  8.64143149E+10
 cg2d: Sum(rhs),rhsMax =   1.92345136129299E-13  2.18814298072846E-01
 SURF_ADJUSTMENT: Iter=      8650 Nb_pts,Vol=       343  8.64131518E+10
(PID.TID 0000.0001) Did not write pickup because writePickupAtEnd = FALSE
 --> objf_shelfice(bi,bj) =  0.000000000000000D+00
 --> objf_shifwflx(bi,bj) =  0.000000000000000D+00
 --> objf_test(bi,bj)   =  0.370310238564626D+06
 --> objf_tracer(bi,bj) =  0.000000000000000D+00
 --> objf_atl(bi,bj)    =  0.000000000000000D+00
  local fc =  0.370310238564626D+06
 global fc =  0.370310238564626D+06
 ph-check fcpertplus =    370310.23856462591     
 ph-check fcpertminus =    370310.27673519426     
(PID.TID 0000.0001) INI_CG2D: CG2D normalisation factor =  1.0404366262810520E-03
(PID.TID 0000.0001) 
(PID.TID 0000.0001)  nRecords = 243 ; filePrec =  64 ; fileIter =      8640
(PID.TID 0000.0001)     nDims =   2 , dims:
(PID.TID 0000.0001)    1:  50   1  50
(PID.TID 0000.0001)    2: 100   1 100
(PID.TID 0000.0001)     nFlds =  11 , nFl3D =   8 , fields:
(PID.TID 0000.0001)  >Uvel    < >Vvel    < >Theta   < >Salt    < >GuNm1   < >GvNm1   < >GtNm1   < >GsNm1   < >EtaN    < >dEtaHdt < >EtaH    <
(PID.TID 0000.0001)   nTimRec =   0 , timeList:
(PID.TID 0000.0001) READ_MFLDS_3D_RL: read field: "Uvel    ", #   1 in fldList, rec=   1
(PID.TID 0000.0001) READ_MFLDS_3D_RL: read field: "Vvel    ", #   2 in fldList, rec=   2
(PID.TID 0000.0001) READ_MFLDS_3D_RL: read field: "Theta   ", #   3 in fldList, rec=   3
(PID.TID 0000.0001) READ_MFLDS_3D_RL: read field: "Salt    ", #   4 in fldList, rec=   4
(PID.TID 0000.0001) READ_MFLDS_3D_RL: read field: "GuNm1   ", #   5 in fldList, rec=   5
(PID.TID 0000.0001) READ_MFLDS_3D_RL: read field: "GvNm1   ", #   6 in fldList, rec=   6
(PID.TID 0000.0001) READ_MFLDS_3D_RL: read field: "GtNm1   ", #   7 in fldList, rec=   7
(PID.TID 0000.0001) READ_MFLDS_3D_RL: read field: "GsNm1   ", #   8 in fldList, rec=   8
(PID.TID 0000.0001) READ_MFLDS_3D_RL: read field: "EtaN    ", #   9 in fldList, rec= 241
(PID.TID 0000.0001) READ_MFLDS_3D_RL: read field: "dEtaHdt ", #  10 in fldList, rec= 242
(PID.TID 0000.0001) READ_MFLDS_3D_RL: read field: "EtaH    ", #  11 in fldList, rec= 243
(PID.TID 0000.0001) READ_MFLDS_CHECK: - normal end ; reset MFLDS file-name: pickup.0000008640
 SURF_ADJUSTMENT: Iter=        -1 Nb_pts,Vol=       343  8.64061790E+10
 SURF_ADJUSTMENT: Iter=      8640 Nb_pts,Vol=       343  8.64061794E+10
(PID.TID 0000.0001) // =======================================================
(PID.TID 0000.0001) // Model current state
(PID.TID 0000.0001) // =======================================================
(PID.TID 0000.0001) 
(PID.TID 0000.0001) SOLVE_FOR_PRESSURE: putPmEinXvector =    F
 cg2d: Sum(rhs),rhsMax =   7.94736970460494E-13  5.27879962774467E-02
 SURF_ADJUSTMENT: Iter=      8641 Nb_pts,Vol=       343  8.64319987E+10
 cg2d: Sum(rhs),rhsMax =   6.09068757885176E-13  6.89199316786791E-02
 SURF_ADJUSTMENT: Iter=      8642 Nb_pts,Vol=       343  8.64329699E+10
 cg2d: Sum(rhs),rhsMax =   5.04982232245321E-13  8.30013918838084E-02
 SURF_ADJUSTMENT: Iter=      8643 Nb_pts,Vol=       343  8.64326333E+10
 cg2d: Sum(rhs),rhsMax =   4.27618674519493E-13  9.80469292732086E-02
 SURF_ADJUSTMENT: Iter=      8644 Nb_pts,Vol=       343  8.64311189E+10
 cg2d: Sum(rhs),rhsMax =   3.64573050025928E-13  1.14437154605364E-01
 SURF_ADJUSTMENT: Iter=      8645 Nb_pts,Vol=       343  8.64283659E+10
 cg2d: Sum(rhs),rhsMax =   3.17367361774359E-13  1.32277265866397E-01
 SURF_ADJUSTMENT: Iter=      8646 Nb_pts,Vol=       343  8.64246892E+10
 cg2d: Sum(rhs),rhsMax =   2.75759829467676E-13  1.51606737902810E-01
 SURF_ADJUSTMENT: Iter=      8647 Nb_pts,Vol=       343  8.64206714E+10
 cg2d: Sum(rhs),rhsMax =   2.42529276826484E-13  1.72455773841234E-01
 SURF_ADJUSTMENT: Iter=      8648 Nb_pts,Vol=       343  8.64169969E+10
 cg2d: Sum(rhs),rhsMax =   2.15131840293481E-13  1.94849583342394E-01
 SURF_ADJUSTMENT: Iter=      8649 Nb_pts,Vol=       343  8.64143162E+10
 cg2d: Sum(rhs),rhsMax =   1.92297675179198E-13  2.18814296445937E-01
 SURF_ADJUSTMENT: Iter=      8650 Nb_pts,Vol=       343  8.64131530E+10
(PID.TID 0000.0001) Did not write pickup because writePickupAtEnd = FALSE
 --> objf_shelfice(bi,bj) =  0.000000000000000D+00
 --> objf_shifwflx(bi,bj) =  0.000000000000000D+00
 --> objf_test(bi,bj)   =  0.370310315067924D+06
 --> objf_tracer(bi,bj) =  0.000000000000000D+00
 --> objf_atl(bi,bj)    =  0.000000000000000D+00
  local fc =  0.370310315067924D+06
 global fc =  0.370310315067924D+06
grad-res -------------------------------
 grad-res     0    4   23   24   20    1    1    1   3.70310276735E+05  3.70310238565E+05  3.70310315068E+05
 grad-res     0    4    448679    0    1    1    1  -3.82516497223E+00 -3.82516492391E+00  1.26319849025E-08
(PID.TID 0000.0001)  ADM  ref_cost_function      =  3.70310276735194E+05
(PID.TID 0000.0001)  ADM  adjoint_gradient       = -3.82516497222948E+00
(PID.TID 0000.0001)  ADM  finite-diff_grad       = -3.82516492391005E+00
 ph-grd  ierr ---------------------------
 ph-grd  ierr =            0 , icomp =        48679 , ichknum =            4
 ph-test icomp, ncvarcomp, ichknum        48680      100597           5
 ph-grd _loc: bi, bj, icomptest, ichknum            1           1       48679           5
 ph-grd -->hit<--           24          24          20           1
(PID.TID 0000.0001) INI_CG2D: CG2D normalisation factor =  1.0404366262810520E-03
(PID.TID 0000.0001) 
(PID.TID 0000.0001)  nRecords = 243 ; filePrec =  64 ; fileIter =      8640
(PID.TID 0000.0001)     nDims =   2 , dims:
(PID.TID 0000.0001)    1:  50   1  50
(PID.TID 0000.0001)    2: 100   1 100
(PID.TID 0000.0001)     nFlds =  11 , nFl3D =   8 , fields:
(PID.TID 0000.0001)  >Uvel    < >Vvel    < >Theta   < >Salt    < >GuNm1   < >GvNm1   < >GtNm1   < >GsNm1   < >EtaN    < >dEtaHdt < >EtaH    <
(PID.TID 0000.0001)   nTimRec =   0 , timeList:
(PID.TID 0000.0001) READ_MFLDS_3D_RL: read field: "Uvel    ", #   1 in fldList, rec=   1
(PID.TID 0000.0001) READ_MFLDS_3D_RL: read field: "Vvel    ", #   2 in fldList, rec=   2
(PID.TID 0000.0001) READ_MFLDS_3D_RL: read field: "Theta   ", #   3 in fldList, rec=   3
(PID.TID 0000.0001) READ_MFLDS_3D_RL: read field: "Salt    ", #   4 in fldList, rec=   4
(PID.TID 0000.0001) READ_MFLDS_3D_RL: read field: "GuNm1   ", #   5 in fldList, rec=   5
(PID.TID 0000.0001) READ_MFLDS_3D_RL: read field: "GvNm1   ", #   6 in fldList, rec=   6
(PID.TID 0000.0001) READ_MFLDS_3D_RL: read field: "GtNm1   ", #   7 in fldList, rec=   7
(PID.TID 0000.0001) READ_MFLDS_3D_RL: read field: "GsNm1   ", #   8 in fldList, rec=   8
(PID.TID 0000.0001) READ_MFLDS_3D_RL: read field: "EtaN    ", #   9 in fldList, rec= 241
(PID.TID 0000.0001) READ_MFLDS_3D_RL: read field: "dEtaHdt ", #  10 in fldList, rec= 242
(PID.TID 0000.0001) READ_MFLDS_3D_RL: read field: "EtaH    ", #  11 in fldList, rec= 243
(PID.TID 0000.0001) READ_MFLDS_CHECK: - normal end ; reset MFLDS file-name: pickup.0000008640
 SURF_ADJUSTMENT: Iter=        -1 Nb_pts,Vol=       343  8.64061790E+10
 SURF_ADJUSTMENT: Iter=      8640 Nb_pts,Vol=       343  8.64061794E+10
(PID.TID 0000.0001) // =======================================================
(PID.TID 0000.0001) // Model current state
(PID.TID 0000.0001) // =======================================================
(PID.TID 0000.0001) 
(PID.TID 0000.0001) SOLVE_FOR_PRESSURE: putPmEinXvector =    F
 cg2d: Sum(rhs),rhsMax =   7.94736970460494E-13  5.27879962774467E-02
 SURF_ADJUSTMENT: Iter=      8641 Nb_pts,Vol=       343  8.64319973E+10
 cg2d: Sum(rhs),rhsMax =   6.08984406956156E-13  6.89199301316735E-02
 SURF_ADJUSTMENT: Iter=      8642 Nb_pts,Vol=       343  8.64329686E+10
 cg2d: Sum(rhs),rhsMax =   5.06025776836339E-13  8.30013901494260E-02
 SURF_ADJUSTMENT: Iter=      8643 Nb_pts,Vol=       343  8.64326320E+10
 cg2d: Sum(rhs),rhsMax =   4.28343206173784E-13  9.80469284293639E-02
 SURF_ADJUSTMENT: Iter=      8644 Nb_pts,Vol=       343  8.64311176E+10
 cg2d: Sum(rhs),rhsMax =   3.67792385089216E-13  1.14437154396632E-01
 SURF_ADJUSTMENT: Iter=      8645 Nb_pts,Vol=       343  8.64283645E+10
 cg2d: Sum(rhs),rhsMax =   3.17460576056139E-13  1.32277265914764E-01
 SURF_ADJUSTMENT: Iter=      8646 Nb_pts,Vol=       343  8.64246878E+10
 cg2d: Sum(rhs),rhsMax =   2.79879282727089E-13  1.51606738172087E-01
 SURF_ADJUSTMENT: Iter=      8647 Nb_pts,Vol=       343  8.64206701E+10
 cg2d: Sum(rhs),rhsMax =   2.45398509455749E-13  1.72455774434147E-01
 SURF_ADJUSTMENT: Iter=      8648 Nb_pts,Vol=       343  8.64169956E+10
 cg2d: Sum(rhs),rhsMax =   2.17162794908035E-13  1.94849584302672E-01
 SURF_ADJUSTMENT: Iter=      8649 Nb_pts,Vol=       343  8.64143149E+10
 cg2d: Sum(rhs),rhsMax =   1.92456565007576E-13  2.18814297713828E-01
 SURF_ADJUSTMENT: Iter=      8650 Nb_pts,Vol=       343  8.64131518E+10
(PID.TID 0000.0001) Did not write pickup because writePickupAtEnd = FALSE
 --> objf_shelfice(bi,bj) =  0.000000000000000D+00
 --> objf_shifwflx(bi,bj) =  0.000000000000000D+00
 --> objf_test(bi,bj)   =  0.370310238566192D+06
 --> objf_tracer(bi,bj) =  0.000000000000000D+00
 --> objf_atl(bi,bj)    =  0.000000000000000D+00
  local fc =  0.370310238566192D+06
 global fc =  0.370310238566192D+06
 ph-check fcpertplus =    370310.23856619163     
 ph-check fcpertminus =    370310.27673519426     
(PID.TID 0000.0001) INI_CG2D: CG2D normalisation factor =  1.0404366262810520E-03
(PID.TID 0000.0001) 
(PID.TID 0000.0001)  nRecords = 243 ; filePrec =  64 ; fileIter =      8640
(PID.TID 0000.0001)     nDims =   2 , dims:
(PID.TID 0000.0001)    1:  50   1  50
(PID.TID 0000.0001)    2: 100   1 100
(PID.TID 0000.0001)     nFlds =  11 , nFl3D =   8 , fields:
(PID.TID 0000.0001)  >Uvel    < >Vvel    < >Theta   < >Salt    < >GuNm1   < >GvNm1   < >GtNm1   < >GsNm1   < >EtaN    < >dEtaHdt < >EtaH    <
(PID.TID 0000.0001)   nTimRec =   0 , timeList:
(PID.TID 0000.0001) READ_MFLDS_3D_RL: read field: "Uvel    ", #   1 in fldList, rec=   1
(PID.TID 0000.0001) READ_MFLDS_3D_RL: read field: "Vvel    ", #   2 in fldList, rec=   2
(PID.TID 0000.0001) READ_MFLDS_3D_RL: read field: "Theta   ", #   3 in fldList, rec=   3
(PID.TID 0000.0001) READ_MFLDS_3D_RL: read field: "Salt    ", #   4 in fldList, rec=   4
(PID.TID 0000.0001) READ_MFLDS_3D_RL: read field: "GuNm1   ", #   5 in fldList, rec=   5
(PID.TID 0000.0001) READ_MFLDS_3D_RL: read field: "GvNm1   ", #   6 in fldList, rec=   6
(PID.TID 0000.0001) READ_MFLDS_3D_RL: read field: "GtNm1   ", #   7 in fldList, rec=   7
(PID.TID 0000.0001) READ_MFLDS_3D_RL: read field: "GsNm1   ", #   8 in fldList, rec=   8
(PID.TID 0000.0001) READ_MFLDS_3D_RL: read field: "EtaN    ", #   9 in fldList, rec= 241
(PID.TID 0000.0001) READ_MFLDS_3D_RL: read field: "dEtaHdt ", #  10 in fldList, rec= 242
(PID.TID 0000.0001) READ_MFLDS_3D_RL: read field: "EtaH    ", #  11 in fldList, rec= 243
(PID.TID 0000.0001) READ_MFLDS_CHECK: - normal end ; reset MFLDS file-name: pickup.0000008640
 SURF_ADJUSTMENT: Iter=        -1 Nb_pts,Vol=       343  8.64061790E+10
 SURF_ADJUSTMENT: Iter=      8640 Nb_pts,Vol=       343  8.64061794E+10
(PID.TID 0000.0001) // =======================================================
(PID.TID 0000.0001) // Model current state
(PID.TID 0000.0001) // =======================================================
(PID.TID 0000.0001) 
(PID.TID 0000.0001) SOLVE_FOR_PRESSURE: putPmEinXvector =    F
 cg2d: Sum(rhs),rhsMax =   7.94736970460494E-13  5.27879962774467E-02
 SURF_ADJUSTMENT: Iter=      8641 Nb_pts,Vol=       343  8.64319987E+10
 cg2d: Sum(rhs),rhsMax =   6.09211737046672E-13  6.89199316220422E-02
 SURF_ADJUSTMENT: Iter=      8642 Nb_pts,Vol=       343  8.64329699E+10
 cg2d: Sum(rhs),rhsMax =   5.07780341212072E-13  8.30013918654935E-02
 SURF_ADJUSTMENT: Iter=      8643 Nb_pts,Vol=       343  8.64326333E+10
 cg2d: Sum(rhs),rhsMax =   4.26237089243622E-13  9.80469293183497E-02
 SURF_ADJUSTMENT: Iter=      8644 Nb_pts,Vol=       343  8.64311189E+10
 cg2d: Sum(rhs),rhsMax =   3.66486748175528E-13  1.14437154689538E-01
 SURF_ADJUSTMENT: Iter=      8645 Nb_pts,Vol=       343  8.64283659E+10
 cg2d: Sum(rhs),rhsMax =   3.16959078341256E-13  1.32277265984895E-01
 SURF_ADJUSTMENT: Iter=      8646 Nb_pts,Vol=       343  8.64246892E+10
 cg2d: Sum(rhs),rhsMax =   2.77229655247860E-13  1.51606738066970E-01
 SURF_ADJUSTMENT: Iter=      8647 Nb_pts,Vol=       343  8.64206714E+10
 cg2d: Sum(rhs),rhsMax =   2.42344230620695E-13  1.72455774062120E-01
 SURF_ADJUSTMENT: Iter=      8648 Nb_pts,Vol=       343  8.64169969E+10
 cg2d: Sum(rhs),rhsMax =   2.15277204699757E-13  1.94849583628099E-01
 SURF_ADJUSTMENT: Iter=      8649 Nb_pts,Vol=       343  8.64143162E+10
 cg2d: Sum(rhs),rhsMax =   1.91631487154315E-13  2.18814296803668E-01
 SURF_ADJUSTMENT: Iter=      8650 Nb_pts,Vol=       343  8.64131530E+10
(PID.TID 0000.0001) Did not write pickup because writePickupAtEnd = FALSE
 --> objf_shelfice(bi,bj) =  0.000000000000000D+00
 --> objf_shifwflx(bi,bj) =  0.000000000000000D+00
 --> objf_test(bi,bj)   =  0.370310315066359D+06
 --> objf_tracer(bi,bj) =  0.000000000000000D+00
 --> objf_atl(bi,bj)    =  0.000000000000000D+00
  local fc =  0.370310315066359D+06
 global fc =  0.370310315066359D+06
grad-res -------------------------------
 grad-res     0    5   24   24   20    1    1    1   3.70310276735E+05  3.70310238566E+05  3.70310315066E+05
 grad-res     0    5    548680    0    1    1    1  -3.82500837453E+00 -3.82500835985E+00  3.83555665007E-09
(PID.TID 0000.0001)  ADM  ref_cost_function      =  3.70310276735194E+05
(PID.TID 0000.0001)  ADM  adjoint_gradient       = -3.82500837452515E+00
(PID.TID 0000.0001)  ADM  finite-diff_grad       = -3.82500835985411E+00
 ph-grd  ierr ---------------------------
 ph-grd  ierr =            0 , icomp =        48680 , ichknum =            5
(PID.TID 0000.0001) 
(PID.TID 0000.0001) // =======================================================
(PID.TID 0000.0001) // Gradient check results  >>> START <<<
(PID.TID 0000.0001) // =======================================================
(PID.TID 0000.0001) 
(PID.TID 0000.0001)  EPS =   1.000000E-02
(PID.TID 0000.0001) 
(PID.TID 0000.0001) grdchk output h.p:  Id Itile Jtile LAYER   bi   bj   X(Id)           X(Id)+/-EPS
(PID.TID 0000.0001) grdchk output h.c:  Id  FC                   FC1                  FC2
(PID.TID 0000.0001) grdchk output h.g:  Id     FC1-FC2/(2*EPS)      ADJ GRAD(FC)         1-FDGRD/ADGRD
(PID.TID 0000.0001) 
(PID.TID 0000.0001) grdchk output (p):   1    20    24    20    1    1   0.000000000E+00 -1.000000000E-02
(PID.TID 0000.0001) grdchk output (c):   1  3.7031027673519E+05  3.7031023855331E+05  3.7031031507924E+05
(PID.TID 0000.0001) grdchk output (g):   1    -3.8262966583716E+00 -3.8262966905168E+00  8.4011243517423E-09
(PID.TID 0000.0001) 
(PID.TID 0000.0001) grdchk output (p):   2    21    24    20    1    1   0.000000000E+00 -1.000000000E-02
(PID.TID 0000.0001) grdchk output (c):   2  3.7031027673519E+05  3.7031023855872E+05  3.7031031507383E+05
(PID.TID 0000.0001) grdchk output (g):   2    -3.8257558422629E+00 -3.8257558930796E+00  1.3282782984625E-08
(PID.TID 0000.0001) 
(PID.TID 0000.0001) grdchk output (p):   3    22    24    20    1    1   0.000000000E+00 -1.000000000E-02
(PID.TID 0000.0001) grdchk output (c):   3  3.7031027673519E+05  3.7031023856230E+05  3.7031031507025E+05
(PID.TID 0000.0001) grdchk output (g):   3    -3.8253977865679E+00 -3.8253978619968E+00  1.9717926402762E-08
(PID.TID 0000.0001) 
(PID.TID 0000.0001) grdchk output (p):   4    23    24    20    1    1   0.000000000E+00 -1.000000000E-02
(PID.TID 0000.0001) grdchk output (c):   4  3.7031027673519E+05  3.7031023856463E+05  3.7031031506792E+05
(PID.TID 0000.0001) grdchk output (g):   4    -3.8251649239101E+00 -3.8251649722295E+00  1.2631984902534E-08
(PID.TID 0000.0001) 
(PID.TID 0000.0001) grdchk output (p):   5    24    24    20    1    1   0.000000000E+00 -1.000000000E-02
(PID.TID 0000.0001) grdchk output (c):   5  3.7031027673519E+05  3.7031023856619E+05  3.7031031506636E+05
(PID.TID 0000.0001) grdchk output (g):   5    -3.8250083598541E+00 -3.8250083745251E+00  3.8355566500670E-09
(PID.TID 0000.0001) 
(PID.TID 0000.0001) grdchk  summary  :  RMS of    5 ratios =  1.2728600655285E-08
(PID.TID 0000.0001) 
(PID.TID 0000.0001) // =======================================================
(PID.TID 0000.0001) // Gradient check results  >>> END <<<
(PID.TID 0000.0001) // =======================================================
(PID.TID 0000.0001) 
(PID.TID 0000.0001)   Seconds in section "ALL                    [THE_MODEL_MAIN]":
(PID.TID 0000.0001)           User time:   341.37000000000000
(PID.TID 0000.0001)         System time:  0.65000000000000002
(PID.TID 0000.0001)     Wall clock time:   346.05218696594238
(PID.TID 0000.0001)          No. starts:           1
(PID.TID 0000.0001)           No. stops:           1
(PID.TID 0000.0001)   Seconds in section "INITIALISE_FIXED       [THE_MODEL_MAIN]":
(PID.TID 0000.0001)           User time:  0.58999999999999997
(PID.TID 0000.0001)         System time:  5.99999999999999978E-002
(PID.TID 0000.0001)     Wall clock time:   2.6235949993133545
(PID.TID 0000.0001)          No. starts:           1
(PID.TID 0000.0001)           No. stops:           1
(PID.TID 0000.0001)   Seconds in section "ADTHE_MAIN_LOOP          [ADJOINT RUN]":
(PID.TID 0000.0001)           User time:   145.86000000000001
(PID.TID 0000.0001)         System time:  0.51000000000000001
(PID.TID 0000.0001)     Wall clock time:   147.99642515182495
(PID.TID 0000.0001)          No. starts:           1
(PID.TID 0000.0001)           No. stops:           1
(PID.TID 0000.0001)   Seconds in section "UPDATE_SURF_DR      [FORWARD_STEP]":
(PID.TID 0000.0001)           User time:  0.17999999999994998
(PID.TID 0000.0001)         System time:   0.0000000000000000
(PID.TID 0000.0001)     Wall clock time:  0.20609450340270996
(PID.TID 0000.0001)          No. starts:         240
(PID.TID 0000.0001)           No. stops:         240
(PID.TID 0000.0001)   Seconds in section "LOAD_FIELDS_DRIVER  [FORWARD_STEP]":
(PID.TID 0000.0001)           User time:   0.0000000000000000
(PID.TID 0000.0001)         System time:   0.0000000000000000
(PID.TID 0000.0001)     Wall clock time:  3.40247154235839844E-003
(PID.TID 0000.0001)          No. starts:         120
(PID.TID 0000.0001)           No. stops:         120
(PID.TID 0000.0001)   Seconds in section "EXTERNAL_FLDS_LOAD [LOAD_FLDS_DRIVER]":
(PID.TID 0000.0001)           User time:   0.0000000000000000
(PID.TID 0000.0001)         System time:   0.0000000000000000
(PID.TID 0000.0001)     Wall clock time:  1.41501426696777344E-003
(PID.TID 0000.0001)          No. starts:         140
(PID.TID 0000.0001)           No. stops:         140
(PID.TID 0000.0001)   Seconds in section "I/O (WRITE)        [ADJOINT LOOP]":
(PID.TID 0000.0001)           User time:   0.0000000000000000
(PID.TID 0000.0001)         System time:   0.0000000000000000
(PID.TID 0000.0001)     Wall clock time:  1.65939331054687500E-003
(PID.TID 0000.0001)          No. starts:         180
(PID.TID 0000.0001)           No. stops:         180
(PID.TID 0000.0001)   Seconds in section "DO_ATMOSPHERIC_PHYS [FORWARD_STEP]":
(PID.TID 0000.0001)           User time:   0.0000000000000000
(PID.TID 0000.0001)         System time:   0.0000000000000000
(PID.TID 0000.0001)     Wall clock time:  1.10745429992675781E-003
(PID.TID 0000.0001)          No. starts:         120
(PID.TID 0000.0001)           No. stops:         120
(PID.TID 0000.0001)   Seconds in section "DO_OCEANIC_PHYS     [FORWARD_STEP]":
(PID.TID 0000.0001)           User time:   5.2899999999999068
(PID.TID 0000.0001)         System time:   0.0000000000000000
(PID.TID 0000.0001)     Wall clock time:   5.3333480358123779
(PID.TID 0000.0001)          No. starts:         120
(PID.TID 0000.0001)           No. stops:         120
(PID.TID 0000.0001)   Seconds in section "SHELFICE_THERMODYNAMICS [DO_OCEANIC_PHYS]":
(PID.TID 0000.0001)           User time:  0.67000000000001592
(PID.TID 0000.0001)         System time:   0.0000000000000000
(PID.TID 0000.0001)     Wall clock time:  0.69548869132995605
(PID.TID 0000.0001)          No. starts:         130
(PID.TID 0000.0001)           No. stops:         130
(PID.TID 0000.0001)   Seconds in section "DYNAMICS            [FORWARD_STEP]":
(PID.TID 0000.0001)           User time:   86.150000000000091
(PID.TID 0000.0001)         System time:   0.0000000000000000
(PID.TID 0000.0001)     Wall clock time:   86.273761272430420
(PID.TID 0000.0001)          No. starts:         120
(PID.TID 0000.0001)           No. stops:         120
(PID.TID 0000.0001)   Seconds in section "SOLVE_FOR_PRESSURE  [FORWARD_STEP]":
(PID.TID 0000.0001)           User time:   52.699999999999761
(PID.TID 0000.0001)         System time:  2.00000000000000178E-002
(PID.TID 0000.0001)     Wall clock time:   52.812558412551880
(PID.TID 0000.0001)          No. starts:         120
(PID.TID 0000.0001)           No. stops:         120
(PID.TID 0000.0001)   Seconds in section "MOM_CORRECTION_STEP [FORWARD_STEP]":
(PID.TID 0000.0001)           User time:   1.7400000000000659
(PID.TID 0000.0001)         System time:   0.0000000000000000
(PID.TID 0000.0001)     Wall clock time:   1.8379108905792236
(PID.TID 0000.0001)          No. starts:         120
(PID.TID 0000.0001)           No. stops:         120
(PID.TID 0000.0001)   Seconds in section "INTEGR_CONTINUITY   [FORWARD_STEP]":
(PID.TID 0000.0001)           User time:   6.0900000000000318
(PID.TID 0000.0001)         System time:   0.0000000000000000
(PID.TID 0000.0001)     Wall clock time:   6.1117990016937256
(PID.TID 0000.0001)          No. starts:         120
(PID.TID 0000.0001)           No. stops:         120
(PID.TID 0000.0001)   Seconds in section "CALC_SURF_DR      [FORWARD_STEP]":
(PID.TID 0000.0001)           User time:  0.28999999999996362
(PID.TID 0000.0001)         System time:   0.0000000000000000
(PID.TID 0000.0001)     Wall clock time:  0.26430821418762207
(PID.TID 0000.0001)          No. starts:         120
(PID.TID 0000.0001)           No. stops:         120
(PID.TID 0000.0001)   Seconds in section "BLOCKING_EXCHANGES  [FORWARD_STEP]":
(PID.TID 0000.0001)           User time:   1.3299999999999272
(PID.TID 0000.0001)         System time:   0.0000000000000000
(PID.TID 0000.0001)     Wall clock time:   1.4099893569946289
(PID.TID 0000.0001)          No. starts:         240
(PID.TID 0000.0001)           No. stops:         240
(PID.TID 0000.0001)   Seconds in section "THERMODYNAMICS      [FORWARD_STEP]":
(PID.TID 0000.0001)           User time:   48.849999999999966
(PID.TID 0000.0001)         System time:  1.00000000000000089E-002
(PID.TID 0000.0001)     Wall clock time:   48.942413091659546
(PID.TID 0000.0001)          No. starts:         120
(PID.TID 0000.0001)           No. stops:         120
(PID.TID 0000.0001)   Seconds in section "TRC_CORRECTION_STEP [FORWARD_STEP]":
(PID.TID 0000.0001)           User time:   11.980000000000189
(PID.TID 0000.0001)         System time:   0.0000000000000000
(PID.TID 0000.0001)     Wall clock time:   11.993921518325806
(PID.TID 0000.0001)          No. starts:         120
(PID.TID 0000.0001)           No. stops:         120
(PID.TID 0000.0001)   Seconds in section "MONITOR             [FORWARD_STEP]":
(PID.TID 0000.0001)           User time:   2.3700000000000614
(PID.TID 0000.0001)         System time:   0.0000000000000000
(PID.TID 0000.0001)     Wall clock time:   2.3934953212738037
(PID.TID 0000.0001)          No. starts:         120
(PID.TID 0000.0001)           No. stops:         120
(PID.TID 0000.0001)   Seconds in section "COST_TILE           [FORWARD_STEP]":
(PID.TID 0000.0001)           User time:   5.4499999999998749
(PID.TID 0000.0001)         System time:   0.0000000000000000
(PID.TID 0000.0001)     Wall clock time:   5.3567686080932617
(PID.TID 0000.0001)          No. starts:         120
(PID.TID 0000.0001)           No. stops:         120
(PID.TID 0000.0001)   Seconds in section "DO_THE_MODEL_IO     [FORWARD_STEP]":
(PID.TID 0000.0001)           User time:  6.99999999999931788E-002
(PID.TID 0000.0001)         System time:  1.00000000000000089E-002
(PID.TID 0000.0001)     Wall clock time:  0.84316968917846680
(PID.TID 0000.0001)          No. starts:         120
(PID.TID 0000.0001)           No. stops:         120
(PID.TID 0000.0001)   Seconds in section "DO_WRITE_PICKUP     [FORWARD_STEP]":
(PID.TID 0000.0001)           User time:  0.12000000000000455
(PID.TID 0000.0001)         System time:  1.00000000000000089E-002
(PID.TID 0000.0001)     Wall clock time:  0.12912440299987793
(PID.TID 0000.0001)          No. starts:         120
(PID.TID 0000.0001)           No. stops:         120
(PID.TID 0000.0001)   Seconds in section "GRDCHK_MAIN         [THE_MODEL_MAIN]":
(PID.TID 0000.0001)           User time:   194.91999999999999
(PID.TID 0000.0001)         System time:  7.99999999999999600E-002
(PID.TID 0000.0001)     Wall clock time:   195.43098688125610
(PID.TID 0000.0001)          No. starts:           1
(PID.TID 0000.0001)           No. stops:           1
(PID.TID 0000.0001)   Seconds in section "INITIALISE_VARIA    [THE_MAIN_LOOP]":
(PID.TID 0000.0001)           User time:   3.3199999999999363
(PID.TID 0000.0001)         System time:  4.99999999999999334E-002
(PID.TID 0000.0001)     Wall clock time:   3.3825080394744873
(PID.TID 0000.0001)          No. starts:          10
(PID.TID 0000.0001)           No. stops:          10
(PID.TID 0000.0001)   Seconds in section "MAIN LOOP           [THE_MAIN_LOOP]":
(PID.TID 0000.0001)           User time:   191.13000000000017
(PID.TID 0000.0001)         System time:  1.00000000000000089E-002
(PID.TID 0000.0001)     Wall clock time:   191.56158232688904
(PID.TID 0000.0001)          No. starts:          10
(PID.TID 0000.0001)           No. stops:          10
(PID.TID 0000.0001)   Seconds in section "FORWARD_STEP        [THE_MAIN_LOOP]":
(PID.TID 0000.0001)           User time:   183.34999999999968
(PID.TID 0000.0001)         System time:  1.00000000000000089E-002
(PID.TID 0000.0001)     Wall clock time:   183.75856375694275
(PID.TID 0000.0001)          No. starts:         100
(PID.TID 0000.0001)           No. stops:         100
(PID.TID 0000.0001)   Seconds in section "COST_FINAL         [ADJOINT SPIN-DOWN]":
(PID.TID 0000.0001)           User time:  8.00000000000409273E-002
(PID.TID 0000.0001)         System time:   0.0000000000000000
(PID.TID 0000.0001)     Wall clock time:  7.15572834014892578E-002
(PID.TID 0000.0001)          No. starts:          10
(PID.TID 0000.0001)           No. stops:          10
(PID.TID 0000.0001) // ======================================================
(PID.TID 0000.0001) // Tile <-> Tile communication statistics
(PID.TID 0000.0001) // ======================================================
(PID.TID 0000.0001) // o Tile number: 000001
(PID.TID 0000.0001) //         No. X exchanges =              0
(PID.TID 0000.0001) //            Max. X spins =              0
(PID.TID 0000.0001) //            Min. X spins =     1000000000
(PID.TID 0000.0001) //          Total. X spins =              0
(PID.TID 0000.0001) //            Avg. X spins =       0.00E+00
(PID.TID 0000.0001) //         No. Y exchanges =              0
(PID.TID 0000.0001) //            Max. Y spins =              0
(PID.TID 0000.0001) //            Min. Y spins =     1000000000
(PID.TID 0000.0001) //          Total. Y spins =              0
(PID.TID 0000.0001) //            Avg. Y spins =       0.00E+00
(PID.TID 0000.0001) // o Thread number: 000001
(PID.TID 0000.0001) //            No. barriers =         192720
(PID.TID 0000.0001) //      Max. barrier spins =              1
(PID.TID 0000.0001) //      Min. barrier spins =              1
(PID.TID 0000.0001) //     Total barrier spins =         192720
(PID.TID 0000.0001) //      Avg. barrier spins =       1.00E+00
PROGRAM MAIN: Execution ended Normally
