(PID.TID 0000.0001) 
(PID.TID 0000.0001) // ======================================================
(PID.TID 0000.0001) //                      MITgcm UV
(PID.TID 0000.0001) //                      =========
(PID.TID 0000.0001) // ======================================================
(PID.TID 0000.0001) // execution environment starting up...
(PID.TID 0000.0001) 
(PID.TID 0000.0001) // MITgcmUV version:  checkpoint65
(PID.TID 0000.0001) // Build user:        jmc
(PID.TID 0000.0001) // Build host:        baudelaire
(PID.TID 0000.0001) // Build date:        Thu Jul 24 17:37:16 EDT 2014
(PID.TID 0000.0001) 
(PID.TID 0000.0001) // =======================================================
(PID.TID 0000.0001) // Execution Environment parameter file "eedata"
(PID.TID 0000.0001) // =======================================================
(PID.TID 0000.0001) ># Example "eedata" file
(PID.TID 0000.0001) ># Lines beginning "#" are comments
(PID.TID 0000.0001) ># nTx - No. threads per process in X
(PID.TID 0000.0001) ># nTy - No. threads per process in Y
(PID.TID 0000.0001) > &EEPARMS
(PID.TID 0000.0001) > /
(PID.TID 0000.0001) ># Note: Some systems use & as the
(PID.TID 0000.0001) ># namelist terminator. Other systems
(PID.TID 0000.0001) ># use a / character (as shown here).
(PID.TID 0000.0001) 
(PID.TID 0000.0001) // =======================================================
(PID.TID 0000.0001) // Computational Grid Specification ( see files "SIZE.h" )
(PID.TID 0000.0001) //                                  ( and "eedata"       )
(PID.TID 0000.0001) // =======================================================
(PID.TID 0000.0001)      nPx =    1 ; /* No. processes in X */
(PID.TID 0000.0001)      nPy =    1 ; /* No. processes in Y */
(PID.TID 0000.0001)      nSx =    2 ; /* No. tiles in X per process */
(PID.TID 0000.0001)      nSy =    4 ; /* No. tiles in Y per process */
(PID.TID 0000.0001)      sNx =   25 ; /* Tile size in X */
(PID.TID 0000.0001)      sNy =   25 ; /* Tile size in Y */
(PID.TID 0000.0001)      OLx =    3 ; /* Tile overlap distance in X */
(PID.TID 0000.0001)      OLy =    3 ; /* Tile overlap distance in Y */
(PID.TID 0000.0001)      nTx =    1 ; /* No. threads in X per process */
(PID.TID 0000.0001)      nTy =    1 ; /* No. threads in Y per process */
(PID.TID 0000.0001)       Nr =   30 ; /* No. levels in the vertical   */
(PID.TID 0000.0001)       Nx =   50 ; /* Total domain size in X ( = nPx*nSx*sNx ) */
(PID.TID 0000.0001)       Ny =  100 ; /* Total domain size in Y ( = nPy*nSy*sNy ) */
(PID.TID 0000.0001)   nTiles =    8 ; /* Total no. tiles per process ( = nSx*nSy ) */
(PID.TID 0000.0001)   nProcs =    1 ; /* Total no. processes ( = nPx*nPy ) */
(PID.TID 0000.0001) nThreads =    1 ; /* Total no. threads per process ( = nTx*nTy ) */
(PID.TID 0000.0001) usingMPI =    F ; /* Flag used to control whether MPI is in use */
(PID.TID 0000.0001)                   /*  note: To execute a program with MPI calls */
(PID.TID 0000.0001)                   /*  it must be launched appropriately e.g     */
(PID.TID 0000.0001)                   /*  "mpirun -np 64 ......"                    */
(PID.TID 0000.0001) useCoupler=    F ;/* Flag used to control communications with   */
(PID.TID 0000.0001)                   /*  other model components, through a coupler */
(PID.TID 0000.0001) debugMode =    F ; /* print debug msg. (sequence of S/R calls)  */
(PID.TID 0000.0001) printMapIncludesZeros=    F ; /* print zeros in Std.Output maps */
(PID.TID 0000.0001) maxLengthPrt1D=   65 /* maxLength of 1D array printed to StdOut */
(PID.TID 0000.0001) 
(PID.TID 0000.0001) // ======================================================
(PID.TID 0000.0001) // Mapping of tiles to threads
(PID.TID 0000.0001) // ======================================================
(PID.TID 0000.0001) // -o- Thread   1, tiles (   1:   2,   1:   4)
(PID.TID 0000.0001) 
(PID.TID 0000.0001) // ======================================================
(PID.TID 0000.0001) // Tile <-> Tile connectvity table
(PID.TID 0000.0001) // ======================================================
(PID.TID 0000.0001) // Tile number: 000001 (process no. = 000000)
(PID.TID 0000.0001) //        WEST: Tile = 000002, Process = 000000, Comm = put
(PID.TID 0000.0001) //                bi = 000002, bj = 000001
(PID.TID 0000.0001) //        EAST: Tile = 000002, Process = 000000, Comm = put
(PID.TID 0000.0001) //                bi = 000002, bj = 000001
(PID.TID 0000.0001) //       SOUTH: Tile = 000007, Process = 000000, Comm = put
(PID.TID 0000.0001) //                bi = 000001, bj = 000004
(PID.TID 0000.0001) //       NORTH: Tile = 000003, Process = 000000, Comm = put
(PID.TID 0000.0001) //                bi = 000001, bj = 000002
(PID.TID 0000.0001) // Tile number: 000002 (process no. = 000000)
(PID.TID 0000.0001) //        WEST: Tile = 000001, Process = 000000, Comm = put
(PID.TID 0000.0001) //                bi = 000001, bj = 000001
(PID.TID 0000.0001) //        EAST: Tile = 000001, Process = 000000, Comm = put
(PID.TID 0000.0001) //                bi = 000001, bj = 000001
(PID.TID 0000.0001) //       SOUTH: Tile = 000008, Process = 000000, Comm = put
(PID.TID 0000.0001) //                bi = 000002, bj = 000004
(PID.TID 0000.0001) //       NORTH: Tile = 000004, Process = 000000, Comm = put
(PID.TID 0000.0001) //                bi = 000002, bj = 000002
(PID.TID 0000.0001) // Tile number: 000003 (process no. = 000000)
(PID.TID 0000.0001) //        WEST: Tile = 000004, Process = 000000, Comm = put
(PID.TID 0000.0001) //                bi = 000002, bj = 000002
(PID.TID 0000.0001) //        EAST: Tile = 000004, Process = 000000, Comm = put
(PID.TID 0000.0001) //                bi = 000002, bj = 000002
(PID.TID 0000.0001) //       SOUTH: Tile = 000001, Process = 000000, Comm = put
(PID.TID 0000.0001) //                bi = 000001, bj = 000001
(PID.TID 0000.0001) //       NORTH: Tile = 000005, Process = 000000, Comm = put
(PID.TID 0000.0001) //                bi = 000001, bj = 000003
(PID.TID 0000.0001) // Tile number: 000004 (process no. = 000000)
(PID.TID 0000.0001) //        WEST: Tile = 000003, Process = 000000, Comm = put
(PID.TID 0000.0001) //                bi = 000001, bj = 000002
(PID.TID 0000.0001) //        EAST: Tile = 000003, Process = 000000, Comm = put
(PID.TID 0000.0001) //                bi = 000001, bj = 000002
(PID.TID 0000.0001) //       SOUTH: Tile = 000002, Process = 000000, Comm = put
(PID.TID 0000.0001) //                bi = 000002, bj = 000001
(PID.TID 0000.0001) //       NORTH: Tile = 000006, Process = 000000, Comm = put
(PID.TID 0000.0001) //                bi = 000002, bj = 000003
(PID.TID 0000.0001) // Tile number: 000005 (process no. = 000000)
(PID.TID 0000.0001) //        WEST: Tile = 000006, Process = 000000, Comm = put
(PID.TID 0000.0001) //                bi = 000002, bj = 000003
(PID.TID 0000.0001) //        EAST: Tile = 000006, Process = 000000, Comm = put
(PID.TID 0000.0001) //                bi = 000002, bj = 000003
(PID.TID 0000.0001) //       SOUTH: Tile = 000003, Process = 000000, Comm = put
(PID.TID 0000.0001) //                bi = 000001, bj = 000002
(PID.TID 0000.0001) //       NORTH: Tile = 000007, Process = 000000, Comm = put
(PID.TID 0000.0001) //                bi = 000001, bj = 000004
(PID.TID 0000.0001) // Tile number: 000006 (process no. = 000000)
(PID.TID 0000.0001) //        WEST: Tile = 000005, Process = 000000, Comm = put
(PID.TID 0000.0001) //                bi = 000001, bj = 000003
(PID.TID 0000.0001) //        EAST: Tile = 000005, Process = 000000, Comm = put
(PID.TID 0000.0001) //                bi = 000001, bj = 000003
(PID.TID 0000.0001) //       SOUTH: Tile = 000004, Process = 000000, Comm = put
(PID.TID 0000.0001) //                bi = 000002, bj = 000002
(PID.TID 0000.0001) //       NORTH: Tile = 000008, Process = 000000, Comm = put
(PID.TID 0000.0001) //                bi = 000002, bj = 000004
(PID.TID 0000.0001) // Tile number: 000007 (process no. = 000000)
(PID.TID 0000.0001) //        WEST: Tile = 000008, Process = 000000, Comm = put
(PID.TID 0000.0001) //                bi = 000002, bj = 000004
(PID.TID 0000.0001) //        EAST: Tile = 000008, Process = 000000, Comm = put
(PID.TID 0000.0001) //                bi = 000002, bj = 000004
(PID.TID 0000.0001) //       SOUTH: Tile = 000005, Process = 000000, Comm = put
(PID.TID 0000.0001) //                bi = 000001, bj = 000003
(PID.TID 0000.0001) //       NORTH: Tile = 000001, Process = 000000, Comm = put
(PID.TID 0000.0001) //                bi = 000001, bj = 000001
(PID.TID 0000.0001) // Tile number: 000008 (process no. = 000000)
(PID.TID 0000.0001) //        WEST: Tile = 000007, Process = 000000, Comm = put
(PID.TID 0000.0001) //                bi = 000001, bj = 000004
(PID.TID 0000.0001) //        EAST: Tile = 000007, Process = 000000, Comm = put
(PID.TID 0000.0001) //                bi = 000001, bj = 000004
(PID.TID 0000.0001) //       SOUTH: Tile = 000006, Process = 000000, Comm = put
(PID.TID 0000.0001) //                bi = 000002, bj = 000003
(PID.TID 0000.0001) //       NORTH: Tile = 000002, Process = 000000, Comm = put
(PID.TID 0000.0001) //                bi = 000002, bj = 000001
(PID.TID 0000.0001) 
(PID.TID 0000.0001)  INI_PARMS: opening model parameter file "data"
(PID.TID 0000.0001)  OPEN_COPY_DATA_FILE: opening file data
(PID.TID 0000.0001) // =======================================================
(PID.TID 0000.0001) // Parameter file "data"
(PID.TID 0000.0001) // =======================================================
(PID.TID 0000.0001) ># ====================
(PID.TID 0000.0001) ># | Model parameters |
(PID.TID 0000.0001) ># ====================
(PID.TID 0000.0001) >#
(PID.TID 0000.0001) ># Continuous equation parameters
(PID.TID 0000.0001) > &PARM01
(PID.TID 0000.0001) > Tref = 30*-1.9,
(PID.TID 0000.0001) > Sref = 30*34.4,
(PID.TID 0000.0001) > viscAz=1.E-3,
(PID.TID 0000.0001) > viscAh=600.0,
(PID.TID 0000.0001) > no_slip_sides=.FALSE.,
(PID.TID 0000.0001) > no_slip_bottom=.FALSE.,
(PID.TID 0000.0001) > diffKhT=100.0,
(PID.TID 0000.0001) > diffKzT=5.E-5,
(PID.TID 0000.0001) > diffKhS=100.0,
(PID.TID 0000.0001) > diffKzS=5.E-5,
(PID.TID 0000.0001) > bottomDragQuadratic=2.5E-3,
(PID.TID 0000.0001) > eosType='JMD95Z',
(PID.TID 0000.0001) > HeatCapacity_cp = 3974.0,
(PID.TID 0000.0001) > rhoConst=1030.,
(PID.TID 0000.0001) > gravity=9.81,
(PID.TID 0000.0001) > convertFW2Salt = 33.4,
(PID.TID 0000.0001) > implicitFreeSurface=.TRUE.,
(PID.TID 0000.0001) > exactConserv=.TRUE.,
(PID.TID 0000.0001) > hFacMin=0.10,
(PID.TID 0000.0001) > nonHydrostatic=.FALSE.,
(PID.TID 0000.0001) > useCDScheme = .TRUE.,
(PID.TID 0000.0001) >#ph(
(PID.TID 0000.0001) > implicitDiffusion=.TRUE.,
(PID.TID 0000.0001) ># ivdc_kappa = 7200.,
(PID.TID 0000.0001) > staggerTimeStep=.TRUE.,
(PID.TID 0000.0001) > vectorInvariantMomentum=.TRUE.,
(PID.TID 0000.0001) > nonlinFreeSurf=2,
(PID.TID 0000.0001) > hFacInf=0.05,
(PID.TID 0000.0001) > hFacSup=2.0,
(PID.TID 0000.0001) >#ph)
(PID.TID 0000.0001) > readBinaryPrec=64,
(PID.TID 0000.0001) > useSingleCpuIO=.TRUE.,
(PID.TID 0000.0001) > /
(PID.TID 0000.0001) >
(PID.TID 0000.0001) ># Elliptic solver parameters
(PID.TID 0000.0001) > &PARM02
(PID.TID 0000.0001) > cg2dMaxIters=1000,
(PID.TID 0000.0001) > cg2dTargetResidual=1.E-13,
(PID.TID 0000.0001) > /
(PID.TID 0000.0001) >
(PID.TID 0000.0001) ># Time stepping parameters
(PID.TID 0000.0001) > &PARM03
(PID.TID 0000.0001) > nIter0=8640,
(PID.TID 0000.0001) > nTimeSteps=10,
(PID.TID 0000.0001) > deltaT=1800.0,
(PID.TID 0000.0001) > abEps=0.1,
(PID.TID 0000.0001) > cAdjFreq = 1.,
(PID.TID 0000.0001) > tauCD = 400000.,
(PID.TID 0000.0001) > pChkptFreq=0.0,
(PID.TID 0000.0001) > chkptFreq=0.0,
(PID.TID 0000.0001) > dumpFreq=0.0,
(PID.TID 0000.0001) > taveFreq=0.0,
(PID.TID 0000.0001) > monitorFreq=1.,
(PID.TID 0000.0001) > monitorSelect=2,
(PID.TID 0000.0001) > adjMonitorFreq=1800.,
(PID.TID 0000.0001) > /
(PID.TID 0000.0001) >
(PID.TID 0000.0001) ># Gridding parameters
(PID.TID 0000.0001) > &PARM04
(PID.TID 0000.0001) > usingSphericalPolarGrid=.TRUE.,
(PID.TID 0000.0001) > ygOrigin = -80.0,
(PID.TID 0000.0001) > delX=50*0.3,
(PID.TID 0000.0001) > delY=100*0.1,
(PID.TID 0000.0001) > delZ=30*30.0,
(PID.TID 0000.0001) > /
(PID.TID 0000.0001) >
(PID.TID 0000.0001) ># Input datasets
(PID.TID 0000.0001) > &PARM05
(PID.TID 0000.0001) > bathyFile='bathy.box',
(PID.TID 0000.0001) > /
(PID.TID 0000.0001) 
(PID.TID 0000.0001)  INI_PARMS ; starts to read PARM01
(PID.TID 0000.0001)  INI_PARMS ; read PARM01 : OK
(PID.TID 0000.0001)  INI_PARMS ; starts to read PARM02
(PID.TID 0000.0001)  INI_PARMS ; read PARM02 : OK
(PID.TID 0000.0001)  INI_PARMS ; starts to read PARM03
(PID.TID 0000.0001)  INI_PARMS ; read PARM03 : OK
(PID.TID 0000.0001)  INI_PARMS ; starts to read PARM04
(PID.TID 0000.0001)  INI_PARMS ; read PARM04 : OK
(PID.TID 0000.0001)  INI_PARMS ; starts to read PARM05
(PID.TID 0000.0001)  INI_PARMS ; read PARM05 : OK
(PID.TID 0000.0001)  INI_PARMS: finished reading file "data"
(PID.TID 0000.0001)  PACKAGES_BOOT: opening data.pkg
(PID.TID 0000.0001)  OPEN_COPY_DATA_FILE: opening file data.pkg
(PID.TID 0000.0001) // =======================================================
(PID.TID 0000.0001) // Parameter file "data.pkg"
(PID.TID 0000.0001) // =======================================================
(PID.TID 0000.0001) ># Packages
(PID.TID 0000.0001) > &PACKAGES
(PID.TID 0000.0001) >#useMNC=.TRUE.,
(PID.TID 0000.0001) > useShelfIce=.TRUE.,
(PID.TID 0000.0001) > useGrdchk=.TRUE.,
(PID.TID 0000.0001) > /
(PID.TID 0000.0001) 
(PID.TID 0000.0001)  PACKAGES_BOOT: finished reading data.pkg
(PID.TID 0000.0001)  PACKAGES_BOOT: On/Off package Summary
 --------  pkgs with a standard "usePKG" On/Off switch in "data.pkg":  --------
 pkg/grdchk               compiled   and   used ( useGrdchk                = T )
 pkg/shelfice             compiled   and   used ( useShelfIce              = T )
 pkg/diagnostics          compiled but not used ( useDiagnostics           = F )
 pkg/mnc                  compiled but not used ( useMNC                   = F )
 -------- pkgs without standard "usePKG" On/Off switch in "data.pkg":  --------
 pkg/generic_advdiff      compiled   and   used ( useGAD                   = T )
 pkg/mom_common           compiled   and   used ( momStepping              = T )
 pkg/mom_vecinv           compiled   and   used ( +vectorInvariantMomentum = T )
 pkg/mom_fluxform         compiled but not used ( & not vectorInvariantMom = F )
 pkg/cd_code              compiled   and   used ( useCDscheme              = T )
 pkg/monitor              compiled   and   used ( monitorFreq > 0.         = T )
 pkg/debug                compiled but not used ( debugMode                = F )
 pkg/rw                   compiled   and   used
 pkg/mdsio                compiled   and   used
 pkg/autodiff             compiled   and   used
 pkg/cost                 compiled   and   used
 pkg/ctrl                 compiled   and   used
(PID.TID 0000.0001)  PACKAGES_BOOT: End of package Summary
(PID.TID 0000.0001) 
(PID.TID 0000.0001)  SHELFICE_READPARMS: opening data.shelfice
(PID.TID 0000.0001)  OPEN_COPY_DATA_FILE: opening file data.shelfice
(PID.TID 0000.0001) // =======================================================
(PID.TID 0000.0001) // Parameter file "data.shelfice"
(PID.TID 0000.0001) // =======================================================
(PID.TID 0000.0001) ># ===================================
(PID.TID 0000.0001) ># | Parameters for SHELFICE package |
(PID.TID 0000.0001) ># ===================================
(PID.TID 0000.0001) > &SHELFICE_PARM01
(PID.TID 0000.0001) > SHELFICEboundaryLayer = .TRUE.,
(PID.TID 0000.0001) > SHELFICEtopoFile='icetopo.exp1',
(PID.TID 0000.0001) > SHELFICEloadAnomalyFile = 'phi0surf.exp1.jmd95z',
(PID.TID 0000.0001) > useISOMIPTD = .FALSE.,
(PID.TID 0000.0001) > no_slip_shelfice = .false.,
(PID.TID 0000.0001) > SHELFICEwriteState = .TRUE.,
(PID.TID 0000.0001) > /
(PID.TID 0000.0001) 
(PID.TID 0000.0001)  SHELFICE_READPARMS: finished reading data.shelfice
(PID.TID 0000.0001) AUTODIFF_READPARMS: opening data.autodiff
(PID.TID 0000.0001)  OPEN_COPY_DATA_FILE: opening file data.autodiff
(PID.TID 0000.0001) // =======================================================
(PID.TID 0000.0001) // Parameter file "data.autodiff"
(PID.TID 0000.0001) // =======================================================
(PID.TID 0000.0001) ># =========================
(PID.TID 0000.0001) ># pkg AUTODIFF parameters :
(PID.TID 0000.0001) ># =========================
(PID.TID 0000.0001) >#  inAdExact :: get an exact adjoint (no approximation) (def=.True.)
(PID.TID 0000.0001) >#
(PID.TID 0000.0001) > &AUTODIFF_PARM01
(PID.TID 0000.0001) ># inAdExact = .FALSE.,
(PID.TID 0000.0001) > /
(PID.TID 0000.0001) 
(PID.TID 0000.0001) AUTODIFF_READPARMS: finished reading data.autodiff
(PID.TID 0000.0001) // ===================================
(PID.TID 0000.0001) // AUTODIFF parameters :
(PID.TID 0000.0001) // ===================================
(PID.TID 0000.0001) inAdExact = /* get an exact adjoint (no approximation) */
(PID.TID 0000.0001)                   T
(PID.TID 0000.0001)     ;
(PID.TID 0000.0001) useKPPinAdMode = /* use KPP in adjoint mode */
(PID.TID 0000.0001)                   F
(PID.TID 0000.0001)     ;
(PID.TID 0000.0001) useGMRediInAdMode = /* use GMRedi in adjoint mode */
(PID.TID 0000.0001)                   F
(PID.TID 0000.0001)     ;
(PID.TID 0000.0001) useSEAICEinAdMode = /* use SEAICE in adjoint mode */
(PID.TID 0000.0001)                   F
(PID.TID 0000.0001)     ;
(PID.TID 0000.0001) useGGL90inAdMode = /* use GGL90 in adjoint mode */
(PID.TID 0000.0001)                   F
(PID.TID 0000.0001)     ;
(PID.TID 0000.0001) useSALT_PLUMEinAdMode = /* use SALT_PLUME in adjoint mode */
(PID.TID 0000.0001)                   F
(PID.TID 0000.0001)     ;
(PID.TID 0000.0001) dumpAdVarExch = /* control adexch before dumpinp */
(PID.TID 0000.0001)                       2
(PID.TID 0000.0001)     ;
(PID.TID 0000.0001) mon_AdVarExch = /* control adexch before monitor */
(PID.TID 0000.0001)                       2
(PID.TID 0000.0001)     ;
(PID.TID 0000.0001) viscFacInAd = /* viscosity factor for adjoint */
(PID.TID 0000.0001)                 1.000000000000000E+00
(PID.TID 0000.0001)     ;
(PID.TID 0000.0001) 
(PID.TID 0000.0001) OPTIM_READPARMS: opening data.optim
(PID.TID 0000.0001)  OPEN_COPY_DATA_FILE: opening file data.optim
(PID.TID 0000.0001) // =======================================================
(PID.TID 0000.0001) // Parameter file "data.optim"
(PID.TID 0000.0001) // =======================================================
(PID.TID 0000.0001) > &OPTIM
(PID.TID 0000.0001) > optimcycle=0,
(PID.TID 0000.0001) > /
(PID.TID 0000.0001) 
(PID.TID 0000.0001) OPTIM_READPARMS: finished reading data.optim
(PID.TID 0000.0001) CTRL_READPARMS: opening data.ctrl
(PID.TID 0000.0001)  OPEN_COPY_DATA_FILE: opening file data.ctrl
(PID.TID 0000.0001) // =======================================================
(PID.TID 0000.0001) // Parameter file "data.ctrl"
(PID.TID 0000.0001) // =======================================================
(PID.TID 0000.0001) >#
(PID.TID 0000.0001) >#
(PID.TID 0000.0001) ># *********************
(PID.TID 0000.0001) ># ECCO controlvariables
(PID.TID 0000.0001) ># *********************
(PID.TID 0000.0001) > &CTRL_NML
(PID.TID 0000.0001) > xx_theta_file      ='xx_theta',
(PID.TID 0000.0001) > xx_salt_file       ='xx_salt',
(PID.TID 0000.0001) >#
(PID.TID 0000.0001) > xx_hfluxstartdate1 = 19790101,
(PID.TID 0000.0001) > xx_hfluxstartdate2 = 000000,
(PID.TID 0000.0001) > xx_hfluxperiod     = 864000.0,
(PID.TID 0000.0001) > xx_hflux_file      = 'xx_hfl',
(PID.TID 0000.0001) >#
(PID.TID 0000.0001) > xx_sfluxstartdate1 = 19790101,
(PID.TID 0000.0001) > xx_sfluxstartdate2 = 000000,
(PID.TID 0000.0001) > xx_sfluxperiod     = 864000.0,
(PID.TID 0000.0001) > xx_sflux_file      = 'xx_sfl',
(PID.TID 0000.0001) >#
(PID.TID 0000.0001) > xx_tauustartdate1 = 19790101,
(PID.TID 0000.0001) > xx_tauustartdate2 = 000000,
(PID.TID 0000.0001) > xx_tauuperiod     = 864000.0,
(PID.TID 0000.0001) > xx_tauu_file      = 'xx_tauu',
(PID.TID 0000.0001) >#
(PID.TID 0000.0001) > xx_tauvstartdate1 = 19790101,
(PID.TID 0000.0001) > xx_tauvstartdate2 = 000000,
(PID.TID 0000.0001) > xx_tauvperiod     = 864000.0,
(PID.TID 0000.0001) > xx_tauv_file      = 'xx_tauv',
(PID.TID 0000.0001) >#
(PID.TID 0000.0001) > xx_atempstartdate1 = 19790101,
(PID.TID 0000.0001) > xx_atempstartdate2 = 000000,
(PID.TID 0000.0001) > xx_atempperiod     = 864000.0,
(PID.TID 0000.0001) > xx_atemp_file      = 'xx_atemp',
(PID.TID 0000.0001) >#
(PID.TID 0000.0001) > xx_aqhstartdate1 = 19790101,
(PID.TID 0000.0001) > xx_aqhstartdate2 = 000000,
(PID.TID 0000.0001) > xx_aqhperiod     = 864000.0,
(PID.TID 0000.0001) > xx_aqh_file      = 'xx_aqh',
(PID.TID 0000.0001) >#
(PID.TID 0000.0001) > xx_precipstartdate1 = 19790101,
(PID.TID 0000.0001) > xx_precipstartdate2 = 000000,
(PID.TID 0000.0001) > xx_precipperiod     = 864000.0,
(PID.TID 0000.0001) > xx_precip_file      = 'xx_precip',
(PID.TID 0000.0001) >#
(PID.TID 0000.0001) > xx_swdownstartdate1 = 19790101,
(PID.TID 0000.0001) > xx_swdownstartdate2 = 000000,
(PID.TID 0000.0001) > xx_swdownperiod     = 864000.0,
(PID.TID 0000.0001) > xx_swdown_file      = 'xx_swdown',
(PID.TID 0000.0001) >#
(PID.TID 0000.0001) > xx_uwindstartdate1 = 19790101,
(PID.TID 0000.0001) > xx_uwindstartdate2 = 000000,
(PID.TID 0000.0001) > xx_uwindperiod     = 864000.0,
(PID.TID 0000.0001) > xx_uwind_file      = 'xx_uwind',
(PID.TID 0000.0001) >#
(PID.TID 0000.0001) > xx_vwindstartdate1 = 19790101,
(PID.TID 0000.0001) > xx_vwindstartdate2 = 000000,
(PID.TID 0000.0001) > xx_vwindperiod     = 864000.0,
(PID.TID 0000.0001) > xx_vwind_file      = 'xx_vwind',
(PID.TID 0000.0001) >#
(PID.TID 0000.0001) > xx_sststartdate1 = 19790101,
(PID.TID 0000.0001) > xx_sststartdate2 = 000000,
(PID.TID 0000.0001) > xx_sstperiod     = 864000.0,
(PID.TID 0000.0001) > xx_sst_file      = 'xx_sst',
(PID.TID 0000.0001) >#
(PID.TID 0000.0001) > xx_sssstartdate1 = 19790101,
(PID.TID 0000.0001) > xx_sssstartdate2 = 000000,
(PID.TID 0000.0001) > xx_sssperiod     = 864000.0,
(PID.TID 0000.0001) > xx_sss_file      = 'xx_sss',
(PID.TID 0000.0001) > /
(PID.TID 0000.0001) >#
(PID.TID 0000.0001) ># *********************
(PID.TID 0000.0001) ># names for ctrl_pack/unpack
(PID.TID 0000.0001) ># *********************
(PID.TID 0000.0001) > &CTRL_PACKNAMES
(PID.TID 0000.0001) > /
(PID.TID 0000.0001) 
(PID.TID 0000.0001) CTRL_READPARMS: finished reading data.ctrl
(PID.TID 0000.0001) useSmoothCorrel2DinAdMode = /* use ctrlSmoothCorrel2D in adjoint mode */
(PID.TID 0000.0001)                   F
(PID.TID 0000.0001)     ;
(PID.TID 0000.0001) COST_READPARMS: opening data.cost
(PID.TID 0000.0001)  OPEN_COPY_DATA_FILE: opening file data.cost
(PID.TID 0000.0001) // =======================================================
(PID.TID 0000.0001) // Parameter file "data.cost"
(PID.TID 0000.0001) // =======================================================
(PID.TID 0000.0001) >#
(PID.TID 0000.0001) >#
(PID.TID 0000.0001) ># ******************
(PID.TID 0000.0001) ># cost function
(PID.TID 0000.0001) ># ******************
(PID.TID 0000.0001) > &COST_NML
(PID.TID 0000.0001) >#revert to default 1 month
(PID.TID 0000.0001) ># lastinterval=7776000.,
(PID.TID 0000.0001) > mult_test=1.,
(PID.TID 0000.0001) > /
(PID.TID 0000.0001) 
(PID.TID 0000.0001) COST_READPARMS: finished reading data.cost
(PID.TID 0000.0001) GRDCHK_READPARMS: opening data.grdchk
(PID.TID 0000.0001)  OPEN_COPY_DATA_FILE: opening file data.grdchk
(PID.TID 0000.0001) // =======================================================
(PID.TID 0000.0001) // Parameter file "data.grdchk"
(PID.TID 0000.0001) // =======================================================
(PID.TID 0000.0001) ># *******************
(PID.TID 0000.0001) ># ECCO gradient check
(PID.TID 0000.0001) ># *******************
(PID.TID 0000.0001) > &GRDCHK_NML
(PID.TID 0000.0001) > grdchk_eps       = 1.d-2,
(PID.TID 0000.0001) >  iglopos         = 20,
(PID.TID 0000.0001) >  jglopos         = 24,
(PID.TID 0000.0001) >  kglopos         = 20,
(PID.TID 0000.0001) ># nbeg             = 1,
(PID.TID 0000.0001) > nstep            = 1,
(PID.TID 0000.0001) > nend             = 4,
(PID.TID 0000.0001) > grdchkvarindex   = 1,
(PID.TID 0000.0001) > /
(PID.TID 0000.0001) 
(PID.TID 0000.0001) GRDCHK_READPARMS: finished reading data.grdchk
(PID.TID 0000.0001) 
(PID.TID 0000.0001) // =======================================================
(PID.TID 0000.0001) // Gradient check configuration  >>> START <<<
(PID.TID 0000.0001) // =======================================================
(PID.TID 0000.0001) 
(PID.TID 0000.0001)   eps:                              0.100E-01
(PID.TID 0000.0001)   First location:                           0
(PID.TID 0000.0001)   Last location:                            4
(PID.TID 0000.0001)   Increment:                                1
(PID.TID 0000.0001)   grdchkWhichProc:                          0
(PID.TID 0000.0001)   iLocTile =       1  ,    jLocTile =       1
(PID.TID 0000.0001) 
(PID.TID 0000.0001) // =======================================================
(PID.TID 0000.0001) // Gradient check configuration  >>> END <<<
(PID.TID 0000.0001) // =======================================================
(PID.TID 0000.0001) 
(PID.TID 0000.0001) SET_PARMS: done
(PID.TID 0000.0001) Enter INI_VERTICAL_GRID: setInterFDr=    T ; setCenterDr=    F
(PID.TID 0000.0001) %MON XC_max                       =   1.4850000000000E+01
(PID.TID 0000.0001) %MON XC_min                       =   1.5000000000000E-01
(PID.TID 0000.0001) %MON XC_mean                      =   7.5000000000000E+00
(PID.TID 0000.0001) %MON XC_sd                        =   4.3292609068985E+00
(PID.TID 0000.0001) %MON XG_max                       =   1.4700000000000E+01
(PID.TID 0000.0001) %MON XG_min                       =   1.1102230246252E-16
(PID.TID 0000.0001) %MON XG_mean                      =   7.3500000000000E+00
(PID.TID 0000.0001) %MON XG_sd                        =   4.3292609068985E+00
(PID.TID 0000.0001) %MON DXC_max                      =   1.1380125394806E+04
(PID.TID 0000.0001) %MON DXC_min                      =   5.8203914905589E+03
(PID.TID 0000.0001) %MON DXC_mean                     =   8.6215028627207E+03
(PID.TID 0000.0001) %MON DXC_sd                       =   1.6219001271572E+03
(PID.TID 0000.0001) %MON DXF_max                      =   1.1380125394806E+04
(PID.TID 0000.0001) %MON DXF_min                      =   5.8203914905589E+03
(PID.TID 0000.0001) %MON DXF_mean                     =   8.6215028627207E+03
(PID.TID 0000.0001) %MON DXF_sd                       =   1.6219001271572E+03
(PID.TID 0000.0001) %MON DXG_max                      =   1.1352761512017E+04
(PID.TID 0000.0001) %MON DXG_min                      =   5.7917296935586E+03
(PID.TID 0000.0001) %MON DXG_mean                     =   8.5934208253080E+03
(PID.TID 0000.0001) %MON DXG_sd                       =   1.6222785520817E+03
(PID.TID 0000.0001) %MON DXV_max                      =   1.1352761512017E+04
(PID.TID 0000.0001) %MON DXV_min                      =   5.7917296935586E+03
(PID.TID 0000.0001) %MON DXV_mean                     =   8.5934208253080E+03
(PID.TID 0000.0001) %MON DXV_sd                       =   1.6222785520817E+03
(PID.TID 0000.0001) %MON YC_max                       =  -7.0050000000001E+01
(PID.TID 0000.0001) %MON YC_min                       =  -7.9950000000000E+01
(PID.TID 0000.0001) %MON YC_mean                      =  -7.5000000000000E+01
(PID.TID 0000.0001) %MON YC_sd                        =   2.8866070047720E+00
(PID.TID 0000.0001) %MON YG_max                       =  -7.0100000000001E+01
(PID.TID 0000.0001) %MON YG_min                       =  -8.0000000000000E+01
(PID.TID 0000.0001) %MON YG_mean                      =  -7.5050000000000E+01
(PID.TID 0000.0001) %MON YG_sd                        =   2.8866070047721E+00
(PID.TID 0000.0001) %MON DYC_max                      =   1.1117747335204E+04
(PID.TID 0000.0001) %MON DYC_min                      =   1.1117747335204E+04
(PID.TID 0000.0001) %MON DYC_mean                     =   1.1117747335204E+04
(PID.TID 0000.0001) %MON DYC_sd                       =   4.1836756281555E-11
(PID.TID 0000.0001) %MON DYF_max                      =   1.1117747335204E+04
(PID.TID 0000.0001) %MON DYF_min                      =   1.1117747335204E+04
(PID.TID 0000.0001) %MON DYF_mean                     =   1.1117747335204E+04
(PID.TID 0000.0001) %MON DYF_sd                       =   4.1836756281555E-11
(PID.TID 0000.0001) %MON DYG_max                      =   1.1117747335204E+04
(PID.TID 0000.0001) %MON DYG_min                      =   1.1117747335204E+04
(PID.TID 0000.0001) %MON DYG_mean                     =   1.1117747335204E+04
(PID.TID 0000.0001) %MON DYG_sd                       =   4.1836756281555E-11
(PID.TID 0000.0001) %MON DYU_max                      =   1.1117747335204E+04
(PID.TID 0000.0001) %MON DYU_min                      =   1.1117747335204E+04
(PID.TID 0000.0001) %MON DYU_mean                     =   1.1117747335204E+04
(PID.TID 0000.0001) %MON DYU_sd                       =   4.1836756281555E-11
(PID.TID 0000.0001) %MON RA_max                       =   1.2652134272379E+08
(PID.TID 0000.0001) %MON RA_min                       =   6.4709633770803E+07
(PID.TID 0000.0001) %MON RA_mean                      =   9.5851678311587E+07
(PID.TID 0000.0001) %MON RA_sd                        =   1.8031873527992E+07
(PID.TID 0000.0001) %MON RAW_max                      =   1.2652134272379E+08
(PID.TID 0000.0001) %MON RAW_min                      =   6.4709633770803E+07
(PID.TID 0000.0001) %MON RAW_mean                     =   9.5851678311587E+07
(PID.TID 0000.0001) %MON RAW_sd                       =   1.8031873527992E+07
(PID.TID 0000.0001) %MON RAS_max                      =   1.2621711802744E+08
(PID.TID 0000.0001) %MON RAS_min                      =   6.4390979194019E+07
(PID.TID 0000.0001) %MON RAS_mean                     =   9.5539469354603E+07
(PID.TID 0000.0001) %MON RAS_sd                       =   1.8036080760153E+07
(PID.TID 0000.0001) %MON RAZ_max                      =   1.2621711802744E+08
(PID.TID 0000.0001) %MON RAZ_min                      =   6.4390979194019E+07
(PID.TID 0000.0001) %MON RAZ_mean                     =   9.5539469354603E+07
(PID.TID 0000.0001) %MON RAZ_sd                       =   1.8036080760153E+07
(PID.TID 0000.0001) %MON AngleCS_max                  =   1.0000000000000E+00
(PID.TID 0000.0001) %MON AngleCS_min                  =   1.0000000000000E+00
(PID.TID 0000.0001) %MON AngleCS_mean                 =   1.0000000000000E+00
(PID.TID 0000.0001) %MON AngleCS_sd                   =   0.0000000000000E+00
(PID.TID 0000.0001) %MON AngleSN_max                  =   0.0000000000000E+00
(PID.TID 0000.0001) %MON AngleSN_min                  =   0.0000000000000E+00
(PID.TID 0000.0001) %MON AngleSN_mean                 =   0.0000000000000E+00
(PID.TID 0000.0001) %MON AngleSN_sd                   =   0.0000000000000E+00
(PID.TID 0000.0001) GAD_INIT_FIXED: GAD_OlMinSize=  1  0  1
(PID.TID 0000.0001) 
(PID.TID 0000.0001) // ===================================
(PID.TID 0000.0001) // GAD parameters :
(PID.TID 0000.0001) // ===================================
(PID.TID 0000.0001) tempAdvScheme =   /* Temp. Horiz.Advection scheme selector */
(PID.TID 0000.0001)                       2
(PID.TID 0000.0001)     ;
(PID.TID 0000.0001) tempVertAdvScheme =   /* Temp. Vert. Advection scheme selector */
(PID.TID 0000.0001)                       2
(PID.TID 0000.0001)     ;
(PID.TID 0000.0001) tempMultiDimAdvec =   /* use Muti-Dim Advec method for Temp */
(PID.TID 0000.0001)                   F
(PID.TID 0000.0001)     ;
(PID.TID 0000.0001) tempSOM_Advection = /* use 2nd Order Moment Advection for Temp */
(PID.TID 0000.0001)                   F
(PID.TID 0000.0001)     ;
(PID.TID 0000.0001) AdamsBashforthGt = /* apply Adams-Bashforth extrapolation on Gt */
(PID.TID 0000.0001)                   T
(PID.TID 0000.0001)     ;
(PID.TID 0000.0001) AdamsBashforth_T = /* apply Adams-Bashforth extrapolation on Temp */
(PID.TID 0000.0001)                   F
(PID.TID 0000.0001)     ;
(PID.TID 0000.0001) saltAdvScheme =   /* Salt. Horiz.advection scheme selector */
(PID.TID 0000.0001)                       2
(PID.TID 0000.0001)     ;
(PID.TID 0000.0001) saltVertAdvScheme =   /* Salt. Vert. Advection scheme selector */
(PID.TID 0000.0001)                       2
(PID.TID 0000.0001)     ;
(PID.TID 0000.0001) saltMultiDimAdvec =   /* use Muti-Dim Advec method for Salt */
(PID.TID 0000.0001)                   F
(PID.TID 0000.0001)     ;
(PID.TID 0000.0001) saltSOM_Advection = /* use 2nd Order Moment Advection for Salt */
(PID.TID 0000.0001)                   F
(PID.TID 0000.0001)     ;
(PID.TID 0000.0001) AdamsBashforthGs = /* apply Adams-Bashforth extrapolation on Gs */
(PID.TID 0000.0001)                   T
(PID.TID 0000.0001)     ;
(PID.TID 0000.0001) AdamsBashforth_S = /* apply Adams-Bashforth extrapolation on Salt */
(PID.TID 0000.0001)                   F
(PID.TID 0000.0001)     ;
(PID.TID 0000.0001) // ===================================
(PID.TID 0000.0001) ctrl-wet 1:    nvarlength =       306201
(PID.TID 0000.0001) ctrl-wet 2: surface wet C =            0
(PID.TID 0000.0001) ctrl-wet 3: surface wet W =            0
(PID.TID 0000.0001) ctrl-wet 4: surface wet S =            0
(PID.TID 0000.0001) ctrl-wet 4a:surface wet V =            0
(PID.TID 0000.0001) ctrl-wet 5: 3D wet points =         7200
(PID.TID 0000.0001) ctrl-wet 6: no recs for i =     1           1
(PID.TID 0000.0001) ctrl-wet 6: no recs for i =     2           1
(PID.TID 0000.0001) ctrl-wet 6: no recs for i =     3           0
(PID.TID 0000.0001) ctrl-wet 6: no recs for i =     4           0
(PID.TID 0000.0001) ctrl-wet 6: no recs for i =     5           0
(PID.TID 0000.0001) ctrl-wet 6: no recs for i =     6           0
(PID.TID 0000.0001) ctrl-wet 6: no recs for i =     7           0
(PID.TID 0000.0001) ctrl-wet 6: no recs for i =     8           0
(PID.TID 0000.0001) ctrl-wet 6: no recs for i =     9           0
(PID.TID 0000.0001) ctrl-wet 6: no recs for i =    10           0
(PID.TID 0000.0001) ctrl-wet 6: no recs for i =    11           0
(PID.TID 0000.0001) ctrl-wet 6: no recs for i =    12           0
(PID.TID 0000.0001) ctrl-wet 6: no recs for i =    13           0
(PID.TID 0000.0001) ctrl-wet 6: no recs for i =    14           0
(PID.TID 0000.0001) ctrl-wet 6: no recs for i =    15           1
(PID.TID 0000.0001) ctrl-wet 6: no recs for i =    16           0
(PID.TID 0000.0001) ctrl-wet 6: no recs for i =    17           0
(PID.TID 0000.0001) ctrl-wet 6: no recs for i =    18           0
(PID.TID 0000.0001) ctrl-wet 6: no recs for i =    19           0
(PID.TID 0000.0001) ctrl-wet 6: no recs for i =    20           0
(PID.TID 0000.0001) ctrl-wet 6: no recs for i =    21           0
(PID.TID 0000.0001) ctrl-wet 6: no recs for i =    22           0
(PID.TID 0000.0001) ctrl-wet 6: no recs for i =    23           0
(PID.TID 0000.0001) ctrl-wet 6: no recs for i =    24           0
(PID.TID 0000.0001) ctrl-wet 6: no recs for i =    25           0
(PID.TID 0000.0001) ctrl-wet 6: no recs for i =    26           0
(PID.TID 0000.0001) ctrl-wet 6: no recs for i =    27           0
(PID.TID 0000.0001) ctrl-wet 6: no recs for i =    28           0
(PID.TID 0000.0001) ctrl-wet 6: no recs for i =    29           0
(PID.TID 0000.0001) ctrl-wet 6: no recs for i =    30           0
(PID.TID 0000.0001) ctrl-wet 6: no recs for i =    31           0
(PID.TID 0000.0001) ctrl-wet 6: no recs for i =    32           0
(PID.TID 0000.0001) ctrl-wet 6: no recs for i =    33           0
(PID.TID 0000.0001) ctrl-wet 6: no recs for i =    34           0
(PID.TID 0000.0001) ctrl-wet 6: no recs for i =    35           0
(PID.TID 0000.0001) ctrl-wet 6: no recs for i =    36           0
(PID.TID 0000.0001) ctrl-wet 6: no recs for i =    37           0
(PID.TID 0000.0001) ctrl-wet 6: no recs for i =    38           0
(PID.TID 0000.0001) ctrl-wet 6: no recs for i =    39           0
(PID.TID 0000.0001) ctrl-wet 6: no recs for i =    40           0
(PID.TID 0000.0001) ctrl-wet 6: no recs for i =    41           0
(PID.TID 0000.0001) ctrl-wet 6: no recs for i =    42           0
(PID.TID 0000.0001) ctrl-wet 6: no recs for i =    43           0
(PID.TID 0000.0001) ctrl-wet 6: no recs for i =    44           0
(PID.TID 0000.0001) ctrl-wet 6: no recs for i =    45           1
(PID.TID 0000.0001) ctrl-wet 6: no recs for i =    46           0
(PID.TID 0000.0001) ctrl-wet 6: no recs for i =    47           0
(PID.TID 0000.0001) ctrl-wet 6: no recs for i =    48           0
(PID.TID 0000.0001) ctrl-wet 6: no recs for i =    49           0
(PID.TID 0000.0001) ctrl-wet 6: no recs for i =    50           0
(PID.TID 0000.0001) ctrl-wet 6: no recs for i =    51           0
(PID.TID 0000.0001) ctrl-wet 6: no recs for i =    52           0
(PID.TID 0000.0001) ctrl-wet 6: no recs for i =    53           0
(PID.TID 0000.0001) ctrl-wet 6: no recs for i =    54           0
(PID.TID 0000.0001) ctrl-wet 6: no recs for i =    55           0
(PID.TID 0000.0001) ctrl-wet 6: no recs for i =    56           0
(PID.TID 0000.0001) ctrl-wet 6: no recs for i =    57           0
(PID.TID 0000.0001) ctrl-wet 6: no recs for i =    58           0
(PID.TID 0000.0001) ctrl-wet 6: no recs for i =    59           0
(PID.TID 0000.0001) ctrl-wet 6: no recs for i =    60           0
(PID.TID 0000.0001) ctrl-wet 7: flux         14400
(PID.TID 0000.0001) ctrl-wet 8: atmos        14400
(PID.TID 0000.0001) ctrl-wet -------------------------------------------------
(PID.TID 0000.0001) ctrl-wet 13: global nvarlength for Nr =   30      306201
(PID.TID 0000.0001) ctrl-wet -------------------------------------------------
(PID.TID 0000.0001) ctrl-wet 14: global nWet C/S/W/V k=    1           0           0           0           0
(PID.TID 0000.0001) ctrl-wet 14: global nWet C/S/W/V k=    2           0           0           0           0
(PID.TID 0000.0001) ctrl-wet 14: global nWet C/S/W/V k=    3           0           0           0           0
(PID.TID 0000.0001) ctrl-wet 14: global nWet C/S/W/V k=    4           0           0           0           0
(PID.TID 0000.0001) ctrl-wet 14: global nWet C/S/W/V k=    5           0           0           0           0
(PID.TID 0000.0001) ctrl-wet 14: global nWet C/S/W/V k=    6           0           0           0           0
(PID.TID 0000.0001) ctrl-wet 14: global nWet C/S/W/V k=    7        2989        2940        2928           0
(PID.TID 0000.0001) ctrl-wet 14: global nWet C/S/W/V k=    8        3087        3038        3024           0
(PID.TID 0000.0001) ctrl-wet 14: global nWet C/S/W/V k=    9        3185        3136        3120           0
(PID.TID 0000.0001) ctrl-wet 14: global nWet C/S/W/V k=   10        3332        3283        3264           0
(PID.TID 0000.0001) ctrl-wet 14: global nWet C/S/W/V k=   11        3430        3381        3360           0
(PID.TID 0000.0001) ctrl-wet 14: global nWet C/S/W/V k=   12        3577        3528        3504           0
(PID.TID 0000.0001) ctrl-wet 14: global nWet C/S/W/V k=   13        3675        3626        3600           0
(PID.TID 0000.0001) ctrl-wet 14: global nWet C/S/W/V k=   14        3773        3724        3696           0
(PID.TID 0000.0001) ctrl-wet 14: global nWet C/S/W/V k=   15        3920        3871        3840           0
(PID.TID 0000.0001) ctrl-wet 14: global nWet C/S/W/V k=   16        4018        3969        3936           0
(PID.TID 0000.0001) ctrl-wet 14: global nWet C/S/W/V k=   17        4165        4116        4080           0
(PID.TID 0000.0001) ctrl-wet 14: global nWet C/S/W/V k=   18        4263        4214        4176           0
(PID.TID 0000.0001) ctrl-wet 14: global nWet C/S/W/V k=   19        4361        4312        4272           0
(PID.TID 0000.0001) ctrl-wet 14: global nWet C/S/W/V k=   20        4508        4459        4416           0
(PID.TID 0000.0001) ctrl-wet 14: global nWet C/S/W/V k=   21        4606        4557        4512           0
(PID.TID 0000.0001) ctrl-wet 14: global nWet C/S/W/V k=   22        4753        4704        4656           0
(PID.TID 0000.0001) ctrl-wet 14: global nWet C/S/W/V k=   23        4851        4802        4752           0
(PID.TID 0000.0001) ctrl-wet 14: global nWet C/S/W/V k=   24        4851        4802        4752           0
(PID.TID 0000.0001) ctrl-wet 14: global nWet C/S/W/V k=   25        4851        4802        4752           0
(PID.TID 0000.0001) ctrl-wet 14: global nWet C/S/W/V k=   26        4851        4802        4752           0
(PID.TID 0000.0001) ctrl-wet 14: global nWet C/S/W/V k=   27        4851        4802        4752           0
(PID.TID 0000.0001) ctrl-wet 14: global nWet C/S/W/V k=   28        4851        4802        4752           0
(PID.TID 0000.0001) ctrl-wet 14: global nWet C/S/W/V k=   29        4851        4802        4752           0
(PID.TID 0000.0001) ctrl-wet 14: global nWet C/S/W/V k=   30        4851        4802        4752           0
(PID.TID 0000.0001) ctrl-wet -------------------------------------------------
(PID.TID 0000.0001) ctrl-wet -------------------------------------------------
(PID.TID 0000.0001) ctrl-wet -------------------------------------------------
(PID.TID 0000.0001) ctrl-wet 17a:surface wet I =          576
(PID.TID 0000.0001) ctrl-wet 17b: global nWet I k=    1        4851
(PID.TID 0000.0001) ctrl-wet 17b: global nWet I k=    2           0
(PID.TID 0000.0001) ctrl-wet 17b: global nWet I k=    3           0
(PID.TID 0000.0001) ctrl-wet 17b: global nWet I k=    4           0
(PID.TID 0000.0001) ctrl-wet 17b: global nWet I k=    5           0
(PID.TID 0000.0001) ctrl-wet 17b: global nWet I k=    6           0
(PID.TID 0000.0001) ctrl-wet 17b: global nWet I k=    7        2989
(PID.TID 0000.0001) ctrl-wet 17b: global nWet I k=    8        3087
(PID.TID 0000.0001) ctrl-wet 17b: global nWet I k=    9        3185
(PID.TID 0000.0001) ctrl-wet 17b: global nWet I k=   10        3332
(PID.TID 0000.0001) ctrl-wet 17b: global nWet I k=   11        3430
(PID.TID 0000.0001) ctrl-wet 17b: global nWet I k=   12        3577
(PID.TID 0000.0001) ctrl-wet 17b: global nWet I k=   13        3675
(PID.TID 0000.0001) ctrl-wet 17b: global nWet I k=   14        3773
(PID.TID 0000.0001) ctrl-wet 17b: global nWet I k=   15        3920
(PID.TID 0000.0001) ctrl-wet 17b: global nWet I k=   16        4018
(PID.TID 0000.0001) ctrl-wet 17b: global nWet I k=   17        4165
(PID.TID 0000.0001) ctrl-wet 17b: global nWet I k=   18        4263
(PID.TID 0000.0001) ctrl-wet 17b: global nWet I k=   19        4361
(PID.TID 0000.0001) ctrl-wet 17b: global nWet I k=   20        4508
(PID.TID 0000.0001) ctrl-wet 17b: global nWet I k=   21        4606
(PID.TID 0000.0001) ctrl-wet 17b: global nWet I k=   22        4753
(PID.TID 0000.0001) ctrl-wet 17b: global nWet I k=   23        4851
(PID.TID 0000.0001) ctrl-wet 17b: global nWet I k=   24        4851
(PID.TID 0000.0001) ctrl-wet 17b: global nWet I k=   25        4851
(PID.TID 0000.0001) ctrl-wet 17b: global nWet I k=   26        4851
(PID.TID 0000.0001) ctrl-wet 17b: global nWet I k=   27        4851
(PID.TID 0000.0001) ctrl-wet 17b: global nWet I k=   28        4851
(PID.TID 0000.0001) ctrl-wet 17b: global nWet I k=   29        4851
(PID.TID 0000.0001) ctrl-wet 17b: global nWet I k=   30        4851
(PID.TID 0000.0001) ctrl-wet 17c: global SUM(K) shifwflx         4851
(PID.TID 0000.0001) ctrl-wet -------------------------------------------------
(PID.TID 0000.0001) ctrl_init: no. of control variables:            4
(PID.TID 0000.0001) ctrl_init: control vector length:          306201
(PID.TID 0000.0001) %MON fCori_max                    =  -1.3709057042516E-04
(PID.TID 0000.0001) %MON fCori_min                    =  -1.4360464034757E-04
(PID.TID 0000.0001) %MON fCori_mean                   =  -1.4069429304698E-04
(PID.TID 0000.0001) %MON fCori_sd                     =   1.9069739624987E-06
(PID.TID 0000.0001) %MON fCoriG_max                   =  -1.3713394327439E-04
(PID.TID 0000.0001) %MON fCoriG_min                   =  -1.4362679550910E-04
(PID.TID 0000.0001) %MON fCoriG_mean                  =  -1.4072713798624E-04
(PID.TID 0000.0001) %MON fCoriG_sd                    =   1.9008093726821E-06
(PID.TID 0000.0001) %MON fCoriCos_max                 =   4.9761447480159E-05
(PID.TID 0000.0001) %MON fCoriCos_min                 =   2.5450607565678E-05
(PID.TID 0000.0001) %MON fCoriCos_mean                =   3.7698922201606E-05
(PID.TID 0000.0001) %MON fCoriCos_sd                  =   7.0920218535055E-06
(PID.TID 0000.0001) INI_CG2D: CG2D normalisation factor =  1.0404366262810520E-03
(PID.TID 0000.0001) 
(PID.TID 0000.0001) // =======================================================
(PID.TID 0000.0001) // Model configuration
(PID.TID 0000.0001) // =======================================================
(PID.TID 0000.0001) //
(PID.TID 0000.0001) // "Physical" paramters ( PARM01 in namelist )
(PID.TID 0000.0001) //
(PID.TID 0000.0001) buoyancyRelation = /* Type of relation to get Buoyancy */
(PID.TID 0000.0001)               'OCEANIC'
(PID.TID 0000.0001)     ;
(PID.TID 0000.0001) fluidIsAir   =  /* fluid major constituent is Air */
(PID.TID 0000.0001)                   F
(PID.TID 0000.0001)     ;
(PID.TID 0000.0001) fluidIsWater =  /* fluid major constituent is Water */
(PID.TID 0000.0001)                   T
(PID.TID 0000.0001)     ;
(PID.TID 0000.0001) usingPCoords =  /* use p (or p*) vertical coordinate */
(PID.TID 0000.0001)                   F
(PID.TID 0000.0001)     ;
(PID.TID 0000.0001) usingZCoords =  /* use z (or z*) vertical coordinate */
(PID.TID 0000.0001)                   T
(PID.TID 0000.0001)     ;
(PID.TID 0000.0001) tRef =   /* Reference temperature profile ( oC or K ) */
(PID.TID 0000.0001)    30 @ -1.900000000000000E+00              /* K =  1: 30 */
(PID.TID 0000.0001)     ;
(PID.TID 0000.0001) sRef =   /* Reference salinity profile ( psu ) */
(PID.TID 0000.0001)    30 @  3.440000000000000E+01              /* K =  1: 30 */
(PID.TID 0000.0001)     ;
(PID.TID 0000.0001) useStrainTensionVisc= /* Use StrainTension Form of Viscous Operator */
(PID.TID 0000.0001)                   F
(PID.TID 0000.0001)     ;
(PID.TID 0000.0001) useVariableVisc = /* Use variable horizontal viscosity */
(PID.TID 0000.0001)                   F
(PID.TID 0000.0001)     ;
(PID.TID 0000.0001) useHarmonicVisc = /* Use harmonic horizontal viscosity */
(PID.TID 0000.0001)                   T
(PID.TID 0000.0001)     ;
(PID.TID 0000.0001) useBiharmonicVisc= /* Use biharmonic horiz.  viscosity */
(PID.TID 0000.0001)                   F
(PID.TID 0000.0001)     ;
(PID.TID 0000.0001) useSmag3D = /* Use isotropic 3-D Smagorinsky viscosity */
(PID.TID 0000.0001)                   F
(PID.TID 0000.0001)     ;
(PID.TID 0000.0001) viscAh  =   /* Lateral harmonic viscosity ( m^2/s ) */
(PID.TID 0000.0001)                 6.000000000000000E+02
(PID.TID 0000.0001)     ;
(PID.TID 0000.0001) viscA4  =   /* Lateral biharmonic viscosity ( m^4/s ) */
(PID.TID 0000.0001)                 0.000000000000000E+00
(PID.TID 0000.0001)     ;
(PID.TID 0000.0001) no_slip_sides =  /* Viscous BCs: No-slip sides */
(PID.TID 0000.0001)                   F
(PID.TID 0000.0001)     ;
(PID.TID 0000.0001) sideDragFactor = /* side-drag scaling factor (non-dim) */
(PID.TID 0000.0001)                 2.000000000000000E+00
(PID.TID 0000.0001)     ;
(PID.TID 0000.0001) viscArNr = /* vertical profile of vertical viscosity ( m^2/s )*/
(PID.TID 0000.0001)    30 @  1.000000000000000E-03              /* K =  1: 30 */
(PID.TID 0000.0001)     ;
(PID.TID 0000.0001) no_slip_bottom =  /* Viscous BCs: No-slip bottom */
(PID.TID 0000.0001)                   F
(PID.TID 0000.0001)     ;
(PID.TID 0000.0001) bottomDragLinear = /* linear bottom-drag coefficient ( m/s ) */
(PID.TID 0000.0001)                 0.000000000000000E+00
(PID.TID 0000.0001)     ;
(PID.TID 0000.0001) bottomDragQuadratic = /* quadratic bottom-drag coefficient (-) */
(PID.TID 0000.0001)                 2.500000000000000E-03
(PID.TID 0000.0001)     ;
(PID.TID 0000.0001) diffKhT =   /* Laplacian diffusion of heat laterally ( m^2/s ) */
(PID.TID 0000.0001)                 1.000000000000000E+02
(PID.TID 0000.0001)     ;
(PID.TID 0000.0001) diffK4T =   /* Biharmonic diffusion of heat laterally ( m^4/s ) */
(PID.TID 0000.0001)                 0.000000000000000E+00
(PID.TID 0000.0001)     ;
(PID.TID 0000.0001) diffKhS =   /* Laplacian diffusion of salt laterally ( m^2/s ) */
(PID.TID 0000.0001)                 1.000000000000000E+02
(PID.TID 0000.0001)     ;
(PID.TID 0000.0001) diffK4S =   /* Biharmonic diffusion of salt laterally ( m^4/s ) */
(PID.TID 0000.0001)                 0.000000000000000E+00
(PID.TID 0000.0001)     ;
(PID.TID 0000.0001) diffKrNrT = /* vertical profile of vertical diffusion of Temp ( m^2/s )*/
(PID.TID 0000.0001)    30 @  5.000000000000000E-05              /* K =  1: 30 */
(PID.TID 0000.0001)     ;
(PID.TID 0000.0001) diffKrNrS = /* vertical profile of vertical diffusion of Salt ( m^2/s )*/
(PID.TID 0000.0001)    30 @  5.000000000000000E-05              /* K =  1: 30 */
(PID.TID 0000.0001)     ;
(PID.TID 0000.0001) diffKrBL79surf = /* Surface diffusion for Bryan and Lewis 79 ( m^2/s ) */
(PID.TID 0000.0001)                 0.000000000000000E+00
(PID.TID 0000.0001)     ;
(PID.TID 0000.0001) diffKrBL79deep = /* Deep diffusion for Bryan and Lewis 1979 ( m^2/s ) */
(PID.TID 0000.0001)                 0.000000000000000E+00
(PID.TID 0000.0001)     ;
(PID.TID 0000.0001) diffKrBL79scl = /* Depth scale for Bryan and Lewis 1979 ( m ) */
(PID.TID 0000.0001)                 2.000000000000000E+02
(PID.TID 0000.0001)     ;
(PID.TID 0000.0001) diffKrBL79Ho = /* Turning depth for Bryan and Lewis 1979 ( m ) */
(PID.TID 0000.0001)                -2.000000000000000E+03
(PID.TID 0000.0001)     ;
(PID.TID 0000.0001) ivdc_kappa = /* Implicit Vertical Diffusivity for Convection ( m^2/s) */
(PID.TID 0000.0001)                 0.000000000000000E+00
(PID.TID 0000.0001)     ;
(PID.TID 0000.0001) hMixCriteria=  /* Criteria for mixed-layer diagnostic */
(PID.TID 0000.0001)                -8.000000000000000E-01
(PID.TID 0000.0001)     ;
(PID.TID 0000.0001) dRhoSmall =  /* Parameter for mixed-layer diagnostic */
(PID.TID 0000.0001)                 1.000000000000000E-06
(PID.TID 0000.0001)     ;
(PID.TID 0000.0001) hMixSmooth=  /* Smoothing parameter for mixed-layer diagnostic */
(PID.TID 0000.0001)                 0.000000000000000E+00
(PID.TID 0000.0001)     ;
(PID.TID 0000.0001) eosType =  /* Type of Equation of State */
(PID.TID 0000.0001)               'JMD95Z'
(PID.TID 0000.0001)     ;
(PID.TID 0000.0001) HeatCapacity_Cp =  /* Specific heat capacity ( J/kg/K ) */
(PID.TID 0000.0001)                 3.974000000000000E+03
(PID.TID 0000.0001)     ;
(PID.TID 0000.0001) celsius2K = /* 0 degree Celsius converted to Kelvin ( K ) */
(PID.TID 0000.0001)                 2.731500000000000E+02
(PID.TID 0000.0001)     ;
(PID.TID 0000.0001) rhoConst  = /* Reference density (Boussinesq)  ( kg/m^3 ) */
(PID.TID 0000.0001)                 1.030000000000000E+03
(PID.TID 0000.0001)     ;
(PID.TID 0000.0001) rhoFacC = /* normalized Reference density @ cell-Center (-) */
(PID.TID 0000.0001)    30 @  1.000000000000000E+00              /* K =  1: 30 */
(PID.TID 0000.0001)     ;
(PID.TID 0000.0001) rhoFacF = /* normalized Reference density @ W-Interface (-) */
(PID.TID 0000.0001)    31 @  1.000000000000000E+00              /* K =  1: 31 */
(PID.TID 0000.0001)     ;
(PID.TID 0000.0001) rhoConstFresh = /* Fresh-water reference density ( kg/m^3 ) */
(PID.TID 0000.0001)                 1.030000000000000E+03
(PID.TID 0000.0001)     ;
(PID.TID 0000.0001) gravity =   /* Gravitational acceleration ( m/s^2 ) */
(PID.TID 0000.0001)                 9.810000000000000E+00
(PID.TID 0000.0001)     ;
(PID.TID 0000.0001) gBaro =   /* Barotropic gravity ( m/s^2 ) */
(PID.TID 0000.0001)                 9.810000000000000E+00
(PID.TID 0000.0001)     ;
(PID.TID 0000.0001) rotationPeriod =   /* Rotation Period ( s ) */
(PID.TID 0000.0001)                 8.616400000000000E+04
(PID.TID 0000.0001)     ;
(PID.TID 0000.0001) omega =   /* Angular velocity ( rad/s ) */
(PID.TID 0000.0001)                 7.292123516990375E-05
(PID.TID 0000.0001)     ;
(PID.TID 0000.0001) f0 =   /* Reference coriolis parameter ( 1/s ) */
(PID.TID 0000.0001)                 1.000000000000000E-04
(PID.TID 0000.0001)     ;
(PID.TID 0000.0001) beta =   /* Beta ( 1/(m.s) ) */
(PID.TID 0000.0001)                 9.999999999999999E-12
(PID.TID 0000.0001)     ;
(PID.TID 0000.0001) fPrime =   /* Second coriolis parameter ( 1/s ) */
(PID.TID 0000.0001)                 0.000000000000000E+00
(PID.TID 0000.0001)     ;
(PID.TID 0000.0001) rigidLid =   /* Rigid lid on/off flag */
(PID.TID 0000.0001)                   F
(PID.TID 0000.0001)     ;
(PID.TID 0000.0001) implicitFreeSurface =   /* Implicit free surface on/off flag */
(PID.TID 0000.0001)                   T
(PID.TID 0000.0001)     ;
(PID.TID 0000.0001) freeSurfFac =   /* Implicit free surface factor */
(PID.TID 0000.0001)                 1.000000000000000E+00
(PID.TID 0000.0001)     ;
(PID.TID 0000.0001) implicSurfPress =  /* Surface Pressure implicit factor (0-1)*/
(PID.TID 0000.0001)                 1.000000000000000E+00
(PID.TID 0000.0001)     ;
(PID.TID 0000.0001) implicDiv2Dflow =  /* Barot. Flow Div. implicit factor (0-1)*/
(PID.TID 0000.0001)                 1.000000000000000E+00
(PID.TID 0000.0001)     ;
(PID.TID 0000.0001) uniformLin_PhiSurf = /* use uniform Bo_surf on/off flag*/
(PID.TID 0000.0001)                   T
(PID.TID 0000.0001)     ;
(PID.TID 0000.0001) uniformFreeSurfLev = /* free-surface level-index is uniform */
(PID.TID 0000.0001)                   F
(PID.TID 0000.0001)     ;
(PID.TID 0000.0001) hFacMin =   /* minimum partial cell factor (hFac) */
(PID.TID 0000.0001)                 1.000000000000000E-01
(PID.TID 0000.0001)     ;
(PID.TID 0000.0001) hFacMinDr = /* minimum partial cell thickness ( m) */
(PID.TID 0000.0001)                 0.000000000000000E+00
(PID.TID 0000.0001)     ;
(PID.TID 0000.0001) exactConserv =  /* Exact Volume Conservation on/off flag*/
(PID.TID 0000.0001)                   T
(PID.TID 0000.0001)     ;
(PID.TID 0000.0001) linFSConserveTr = /* Tracer correction for Lin Free Surface on/off flag*/
(PID.TID 0000.0001)                   F
(PID.TID 0000.0001)     ;
(PID.TID 0000.0001) nonlinFreeSurf = /* Non-linear Free Surf. options (-1,0,1,2,3)*/
(PID.TID 0000.0001)                       2
(PID.TID 0000.0001)      -1,0= Off ; 1,2,3= On, 2=+rescale gU,gV, 3=+update cg2d solv.
(PID.TID 0000.0001)     ;
(PID.TID 0000.0001) hFacInf =   /* lower threshold for hFac (nonlinFreeSurf only)*/
(PID.TID 0000.0001)                 5.000000000000000E-02
(PID.TID 0000.0001)     ;
(PID.TID 0000.0001) hFacSup =   /* upper threshold for hFac (nonlinFreeSurf only)*/
(PID.TID 0000.0001)                 2.000000000000000E+00
(PID.TID 0000.0001)     ;
(PID.TID 0000.0001) select_rStar = /* r* Vertical coord. options (=0 r coord.; >0 uses r*)*/
(PID.TID 0000.0001)                       0
(PID.TID 0000.0001)     ;
(PID.TID 0000.0001) useRealFreshWaterFlux = /* Real Fresh Water Flux on/off flag*/
(PID.TID 0000.0001)                   F
(PID.TID 0000.0001)     ;
(PID.TID 0000.0001) temp_EvPrRn = /* Temp. of Evap/Prec/R (UNSET=use local T)(oC)*/
(PID.TID 0000.0001)                 1.234567000000000E+05
(PID.TID 0000.0001)     ;
(PID.TID 0000.0001) salt_EvPrRn = /* Salin. of Evap/Prec/R (UNSET=use local S)(psu)*/
(PID.TID 0000.0001)                 0.000000000000000E+00
(PID.TID 0000.0001)     ;
(PID.TID 0000.0001) selectAddFluid = /* option for mass source/sink of fluid (=0: off) */
(PID.TID 0000.0001)                       0
(PID.TID 0000.0001)     ;
(PID.TID 0000.0001) temp_addMass = /* Temp. of addMass array (UNSET=use local T)(oC)*/
(PID.TID 0000.0001)                 1.234567000000000E+05
(PID.TID 0000.0001)     ;
(PID.TID 0000.0001) salt_addMass = /* Salin. of addMass array (UNSET=use local S)(psu)*/
(PID.TID 0000.0001)                 0.000000000000000E+00
(PID.TID 0000.0001)     ;
(PID.TID 0000.0001) convertFW2Salt = /* convert F.W. Flux to Salt Flux (-1=use local S)(psu)*/
(PID.TID 0000.0001)                 3.340000000000000E+01
(PID.TID 0000.0001)     ;
(PID.TID 0000.0001) use3Dsolver = /* use 3-D pressure solver on/off flag */
(PID.TID 0000.0001)                   F
(PID.TID 0000.0001)     ;
(PID.TID 0000.0001) nonHydrostatic =  /* Non-Hydrostatic on/off flag */
(PID.TID 0000.0001)                   F
(PID.TID 0000.0001)     ;
(PID.TID 0000.0001) nh_Am2 = /* Non-Hydrostatic terms scaling factor */
(PID.TID 0000.0001)                 1.000000000000000E+00
(PID.TID 0000.0001)     ;
(PID.TID 0000.0001) implicitNHPress = /* Non-Hyd Pressure implicit factor (0-1)*/
(PID.TID 0000.0001)                 1.000000000000000E+00
(PID.TID 0000.0001)     ;
(PID.TID 0000.0001) selectNHfreeSurf = /* Non-Hyd (free-)Surface option */
(PID.TID 0000.0001)                       0
(PID.TID 0000.0001)     ;
(PID.TID 0000.0001) quasiHydrostatic = /* Quasi-Hydrostatic on/off flag */
(PID.TID 0000.0001)                   F
(PID.TID 0000.0001)     ;
(PID.TID 0000.0001) calc_wVelocity = /* vertical velocity calculation on/off flag */
(PID.TID 0000.0001)                   T
(PID.TID 0000.0001)     ;
(PID.TID 0000.0001) momStepping =  /* Momentum equation on/off flag */
(PID.TID 0000.0001)                   T
(PID.TID 0000.0001)     ;
(PID.TID 0000.0001) vectorInvariantMomentum= /* Vector-Invariant Momentum on/off */
(PID.TID 0000.0001)                   T
(PID.TID 0000.0001)     ;
(PID.TID 0000.0001) momAdvection =  /* Momentum advection on/off flag */
(PID.TID 0000.0001)                   T
(PID.TID 0000.0001)     ;
(PID.TID 0000.0001) momViscosity =  /* Momentum viscosity on/off flag */
(PID.TID 0000.0001)                   T
(PID.TID 0000.0001)     ;
(PID.TID 0000.0001) momImplVertAdv= /* Momentum implicit vert. advection on/off*/
(PID.TID 0000.0001)                   F
(PID.TID 0000.0001)     ;
(PID.TID 0000.0001) implicitViscosity = /* Implicit viscosity on/off flag */
(PID.TID 0000.0001)                   F
(PID.TID 0000.0001)     ;
(PID.TID 0000.0001) metricTerms =  /* metric-Terms on/off flag */
(PID.TID 0000.0001)                   T
(PID.TID 0000.0001)     ;
(PID.TID 0000.0001) useNHMTerms = /* Non-Hydrostatic Metric-Terms on/off */
(PID.TID 0000.0001)                   F
(PID.TID 0000.0001)     ;
(PID.TID 0000.0001) selectCoriMap = /* Coriolis Map options (0,1,2,3)*/
(PID.TID 0000.0001)                       2
(PID.TID 0000.0001)     0= f-Plane ; 1= Beta-Plane ; 2= Spherical ; 3= read from file
(PID.TID 0000.0001)     ;
(PID.TID 0000.0001) use3dCoriolis = /* 3-D Coriolis on/off flag */
(PID.TID 0000.0001)                   F
(PID.TID 0000.0001)     ;
(PID.TID 0000.0001) useCoriolis =  /* Coriolis on/off flag */
(PID.TID 0000.0001)                   T
(PID.TID 0000.0001)     ;
(PID.TID 0000.0001) useCDscheme =  /* CD scheme on/off flag */
(PID.TID 0000.0001)                   T
(PID.TID 0000.0001)     ;
(PID.TID 0000.0001) useEnergyConservingCoriolis= /* Flx-Form Coriolis scheme flag */
(PID.TID 0000.0001)                   F
(PID.TID 0000.0001)     ;
(PID.TID 0000.0001) useJamartWetPoints= /* Coriolis WetPoints method flag */
(PID.TID 0000.0001)                   F
(PID.TID 0000.0001)     ;
(PID.TID 0000.0001) useJamartMomAdv= /* V.I Non-linear terms Jamart flag */
(PID.TID 0000.0001)                   F
(PID.TID 0000.0001)     ;
(PID.TID 0000.0001) useAbsVorticity= /* V.I Works with f+zeta in Coriolis */
(PID.TID 0000.0001)                   F
(PID.TID 0000.0001)     ;
(PID.TID 0000.0001) selectVortScheme= /* V.I Scheme selector for Vorticity-Term */
(PID.TID 0000.0001)                       1
(PID.TID 0000.0001)    = 0 : enstrophy (Shallow-Water Eq.) conserving scheme by Sadourny, JAS 75
(PID.TID 0000.0001)    = 1 : same as 0 with modified hFac
(PID.TID 0000.0001)    = 2 : energy conserving scheme (used by Sadourny in JAS 75 paper)
(PID.TID 0000.0001)    = 3 : energy (general) and enstrophy (2D, nonDiv.) conserving scheme
(PID.TID 0000.0001)          from Sadourny (Burridge & Haseler, ECMWF Rep.4, 1977)
(PID.TID 0000.0001)     ;
(PID.TID 0000.0001) upwindVorticity= /* V.I Upwind bias vorticity flag */
(PID.TID 0000.0001)                   F
(PID.TID 0000.0001)     ;
(PID.TID 0000.0001) highOrderVorticity= /* V.I High order vort. advect. flag */
(PID.TID 0000.0001)                   F
(PID.TID 0000.0001)     ;
(PID.TID 0000.0001) upwindShear= /* V.I Upwind vertical Shear advection flag */
(PID.TID 0000.0001)                   F
(PID.TID 0000.0001)     ;
(PID.TID 0000.0001) selectKEscheme= /* V.I Kinetic Energy scheme selector */
(PID.TID 0000.0001)                       0
(PID.TID 0000.0001)     ;
(PID.TID 0000.0001) momForcing =  /* Momentum forcing on/off flag */
(PID.TID 0000.0001)                   T
(PID.TID 0000.0001)     ;
(PID.TID 0000.0001) momPressureForcing =  /* Momentum pressure term on/off flag */
(PID.TID 0000.0001)                   T
(PID.TID 0000.0001)     ;
(PID.TID 0000.0001) implicitIntGravWave= /* Implicit Internal Gravity Wave flag */
(PID.TID 0000.0001)                   F
(PID.TID 0000.0001)     ;
(PID.TID 0000.0001) staggerTimeStep =    /* Stagger time stepping on/off flag */
(PID.TID 0000.0001)                   T
(PID.TID 0000.0001)     ;
(PID.TID 0000.0001) doResetHFactors = /* reset thickness factors @ each time-step */
(PID.TID 0000.0001)                   T
(PID.TID 0000.0001)     ;
(PID.TID 0000.0001) multiDimAdvection =  /* enable/disable Multi-Dim Advection */
(PID.TID 0000.0001)                   T
(PID.TID 0000.0001)     ;
(PID.TID 0000.0001) useMultiDimAdvec =   /* Multi-Dim Advection is/is-not used */
(PID.TID 0000.0001)                   F
(PID.TID 0000.0001)     ;
(PID.TID 0000.0001) implicitDiffusion = /* Implicit Diffusion on/off flag */
(PID.TID 0000.0001)                   T
(PID.TID 0000.0001)     ;
(PID.TID 0000.0001) tempStepping =  /* Temperature equation on/off flag */
(PID.TID 0000.0001)                   T
(PID.TID 0000.0001)     ;
(PID.TID 0000.0001) tempAdvection = /* Temperature advection on/off flag */
(PID.TID 0000.0001)                   T
(PID.TID 0000.0001)     ;
(PID.TID 0000.0001) tempImplVertAdv = /* Temp. implicit vert. advection on/off */
(PID.TID 0000.0001)                   F
(PID.TID 0000.0001)     ;
(PID.TID 0000.0001) tempForcing  =  /* Temperature forcing on/off flag */
(PID.TID 0000.0001)                   T
(PID.TID 0000.0001)     ;
(PID.TID 0000.0001) doThetaClimRelax = /* apply SST relaxation on/off flag */
(PID.TID 0000.0001)                   F
(PID.TID 0000.0001)     ;
(PID.TID 0000.0001) tempIsActiveTr = /* Temp. is a dynamically Active Tracer */
(PID.TID 0000.0001)                   T
(PID.TID 0000.0001)     ;
(PID.TID 0000.0001) saltStepping =  /* Salinity equation on/off flag */
(PID.TID 0000.0001)                   T
(PID.TID 0000.0001)     ;
(PID.TID 0000.0001) saltAdvection = /* Salinity advection on/off flag */
(PID.TID 0000.0001)                   T
(PID.TID 0000.0001)     ;
(PID.TID 0000.0001) saltImplVertAdv = /* Sali. implicit vert. advection on/off */
(PID.TID 0000.0001)                   F
(PID.TID 0000.0001)     ;
(PID.TID 0000.0001) saltForcing  =  /* Salinity forcing on/off flag */
(PID.TID 0000.0001)                   T
(PID.TID 0000.0001)     ;
(PID.TID 0000.0001) doSaltClimRelax = /* apply SSS relaxation on/off flag */
(PID.TID 0000.0001)                   F
(PID.TID 0000.0001)     ;
(PID.TID 0000.0001) saltIsActiveTr = /* Salt  is a dynamically Active Tracer */
(PID.TID 0000.0001)                   T
(PID.TID 0000.0001)     ;
(PID.TID 0000.0001)  readBinaryPrec = /* Precision used for reading binary files */
(PID.TID 0000.0001)                      64
(PID.TID 0000.0001)     ;
(PID.TID 0000.0001) writeBinaryPrec = /* Precision used for writing binary files */
(PID.TID 0000.0001)                      32
(PID.TID 0000.0001)     ;
(PID.TID 0000.0001)  globalFiles = /* write "global" (=not per tile) files */
(PID.TID 0000.0001)                   F
(PID.TID 0000.0001)     ;
(PID.TID 0000.0001)  useSingleCpuIO = /* only master MPI process does I/O */
(PID.TID 0000.0001)                   T
(PID.TID 0000.0001)     ;
(PID.TID 0000.0001)  useSingleCpuInput = /* only master process reads input */
(PID.TID 0000.0001)                   T
(PID.TID 0000.0001)     ;
(PID.TID 0000.0001) /* debLev[*]  : level of debug & auxiliary message printing */
(PID.TID 0000.0001) debLevZero =  0 ; /* level of disabled aux. msg printing */
(PID.TID 0000.0001)    debLevA =  1 ; /* level of minimum  aux. msg printing */
(PID.TID 0000.0001)    debLevB =  2 ; /* level of low aux. print (report read-file opening)*/
(PID.TID 0000.0001)    debLevC =  3 ; /* level of moderate debug prt (most pkgs debug msg) */
(PID.TID 0000.0001)    debLevD =  4 ; /* level of enhanced debug prt (add DEBUG_STATS prt) */
(PID.TID 0000.0001)    debLevE =  5 ; /* level of extensive debug printing */
(PID.TID 0000.0001) debugLevel =  /* select debug printing level */
(PID.TID 0000.0001)                       1
(PID.TID 0000.0001)     ;
(PID.TID 0000.0001) //
(PID.TID 0000.0001) // Elliptic solver(s) paramters ( PARM02 in namelist )
(PID.TID 0000.0001) //
(PID.TID 0000.0001) cg2dMaxIters =   /* Upper limit on 2d con. grad iterations  */
(PID.TID 0000.0001)                    1000
(PID.TID 0000.0001)     ;
(PID.TID 0000.0001) cg2dChkResFreq =   /* 2d con. grad convergence test frequency */
(PID.TID 0000.0001)                       1
(PID.TID 0000.0001)     ;
(PID.TID 0000.0001) cg2dUseMinResSol= /* use cg2d last-iter(=0) / min-resid.(=1) solution */
(PID.TID 0000.0001)                       0
(PID.TID 0000.0001)     ;
(PID.TID 0000.0001) cg2dTargetResidual =   /* 2d con. grad target residual  */
(PID.TID 0000.0001)                 1.000000000000000E-13
(PID.TID 0000.0001)     ;
(PID.TID 0000.0001) cg2dTargetResWunit =   /* CG2d target residual [W units] */
(PID.TID 0000.0001)                -1.000000000000000E+00
(PID.TID 0000.0001)     ;
(PID.TID 0000.0001) cg2dPreCondFreq =   /* Freq. for updating cg2d preconditioner */
(PID.TID 0000.0001)                       1
(PID.TID 0000.0001)     ;
(PID.TID 0000.0001) useSRCGSolver =  /* use single reduction CG solver(s) */
(PID.TID 0000.0001)                   F
(PID.TID 0000.0001)     ;
(PID.TID 0000.0001) printResidualFreq = /* Freq. for printing CG residual */
(PID.TID 0000.0001)                       0
(PID.TID 0000.0001)     ;
(PID.TID 0000.0001) //
(PID.TID 0000.0001) // Time stepping paramters ( PARM03 in namelist )
(PID.TID 0000.0001) //
(PID.TID 0000.0001) deltaTMom =   /* Momentum equation timestep ( s ) */
(PID.TID 0000.0001)                 1.800000000000000E+03
(PID.TID 0000.0001)     ;
(PID.TID 0000.0001) deltaTFreeSurf = /* FreeSurface equation timestep ( s ) */
(PID.TID 0000.0001)                 1.800000000000000E+03
(PID.TID 0000.0001)     ;
(PID.TID 0000.0001) dTtracerLev =  /* Tracer equation timestep ( s ) */
(PID.TID 0000.0001)    30 @  1.800000000000000E+03              /* K =  1: 30 */
(PID.TID 0000.0001)     ;
(PID.TID 0000.0001) deltaTClock  =   /* Model clock timestep ( s ) */
(PID.TID 0000.0001)                 1.800000000000000E+03
(PID.TID 0000.0001)     ;
(PID.TID 0000.0001) cAdjFreq =   /* Convective adjustment interval ( s ) */
(PID.TID 0000.0001)                 1.000000000000000E+00
(PID.TID 0000.0001)     ;
(PID.TID 0000.0001) momForcingOutAB = /* =1: take Momentum Forcing out of Adams-Bash. stepping */
(PID.TID 0000.0001)                       0
(PID.TID 0000.0001)     ;
(PID.TID 0000.0001) tracForcingOutAB = /* =1: take T,S,pTr Forcing out of Adams-Bash. stepping */
(PID.TID 0000.0001)                       0
(PID.TID 0000.0001)     ;
(PID.TID 0000.0001) momDissip_In_AB = /* put Dissipation Tendency in Adams-Bash. stepping */
(PID.TID 0000.0001)                   T
(PID.TID 0000.0001)     ;
(PID.TID 0000.0001) doAB_onGtGs = /* apply AB on Tendencies (rather than on T,S)*/
(PID.TID 0000.0001)                   T
(PID.TID 0000.0001)     ;
(PID.TID 0000.0001) abEps =   /* Adams-Bashforth-2 stabilizing weight */
(PID.TID 0000.0001)                 1.000000000000000E-01
(PID.TID 0000.0001)     ;
(PID.TID 0000.0001) tauCD =   /* CD coupling time-scale ( s ) */
(PID.TID 0000.0001)                 4.000000000000000E+05
(PID.TID 0000.0001)     ;
(PID.TID 0000.0001) rCD =   /* Normalised CD coupling parameter */
(PID.TID 0000.0001)                 9.955000000000001E-01
(PID.TID 0000.0001)     ;
(PID.TID 0000.0001) epsAB_CD = /* AB-2 stabilizing weight for CD-scheme*/
(PID.TID 0000.0001)                 1.000000000000000E-01
(PID.TID 0000.0001)     ;
(PID.TID 0000.0001) pickupStrictlyMatch= /* stop if pickup do not strictly match */
(PID.TID 0000.0001)                   T
(PID.TID 0000.0001)     ;
(PID.TID 0000.0001) nIter0   =   /* Run starting timestep number */
(PID.TID 0000.0001)                    8640
(PID.TID 0000.0001)     ;
(PID.TID 0000.0001) nTimeSteps = /* Number of timesteps */
(PID.TID 0000.0001)                      10
(PID.TID 0000.0001)     ;
(PID.TID 0000.0001) nEndIter =   /* Run ending timestep number */
(PID.TID 0000.0001)                    8650
(PID.TID 0000.0001)     ;
(PID.TID 0000.0001) baseTime =   /* Model base time ( s ) */
(PID.TID 0000.0001)                 0.000000000000000E+00
(PID.TID 0000.0001)     ;
(PID.TID 0000.0001) startTime =  /* Run start time ( s ) */
(PID.TID 0000.0001)                 1.555200000000000E+07
(PID.TID 0000.0001)     ;
(PID.TID 0000.0001) endTime  =   /* Integration ending time ( s ) */
(PID.TID 0000.0001)                 1.557000000000000E+07
(PID.TID 0000.0001)     ;
(PID.TID 0000.0001) pChkPtFreq = /* Permanent restart/pickup file interval ( s ) */
(PID.TID 0000.0001)                 0.000000000000000E+00
(PID.TID 0000.0001)     ;
(PID.TID 0000.0001) chkPtFreq  = /* Rolling restart/pickup file interval ( s ) */
(PID.TID 0000.0001)                 0.000000000000000E+00
(PID.TID 0000.0001)     ;
(PID.TID 0000.0001) pickup_write_mdsio =   /* Model IO flag. */
(PID.TID 0000.0001)                   T
(PID.TID 0000.0001)     ;
(PID.TID 0000.0001) pickup_read_mdsio =   /* Model IO flag. */
(PID.TID 0000.0001)                   T
(PID.TID 0000.0001)     ;
(PID.TID 0000.0001) pickup_write_mnc =   /* Model IO flag. */
(PID.TID 0000.0001)                   F
(PID.TID 0000.0001)     ;
(PID.TID 0000.0001) pickup_read_mnc =   /* Model IO flag. */
(PID.TID 0000.0001)                   F
(PID.TID 0000.0001)     ;
(PID.TID 0000.0001) pickup_write_immed =   /* Model IO flag. */
(PID.TID 0000.0001)                   F
(PID.TID 0000.0001)     ;
(PID.TID 0000.0001) writePickupAtEnd =   /* Model IO flag. */
(PID.TID 0000.0001)                   T
(PID.TID 0000.0001)     ;
(PID.TID 0000.0001) dumpFreq =   /* Model state write out interval ( s ). */
(PID.TID 0000.0001)                 0.000000000000000E+00
(PID.TID 0000.0001)     ;
(PID.TID 0000.0001) dumpInitAndLast= /* write out Initial & Last iter. model state */
(PID.TID 0000.0001)                   T
(PID.TID 0000.0001)     ;
(PID.TID 0000.0001) snapshot_mdsio =   /* Model IO flag. */
(PID.TID 0000.0001)                   T
(PID.TID 0000.0001)     ;
(PID.TID 0000.0001) snapshot_mnc =   /* Model IO flag. */
(PID.TID 0000.0001)                   F
(PID.TID 0000.0001)     ;
(PID.TID 0000.0001) monitorFreq =   /* Monitor output interval ( s ). */
(PID.TID 0000.0001)                 1.000000000000000E+00
(PID.TID 0000.0001)     ;
(PID.TID 0000.0001) monitorSelect = /* select group of variables to monitor */
(PID.TID 0000.0001)                       2
(PID.TID 0000.0001)     ;
(PID.TID 0000.0001) monitor_stdio =   /* Model IO flag. */
(PID.TID 0000.0001)                   T
(PID.TID 0000.0001)     ;
(PID.TID 0000.0001) monitor_mnc =   /* Model IO flag. */
(PID.TID 0000.0001)                   F
(PID.TID 0000.0001)     ;
(PID.TID 0000.0001) externForcingPeriod =   /* forcing period (s) */
(PID.TID 0000.0001)                 0.000000000000000E+00
(PID.TID 0000.0001)     ;
(PID.TID 0000.0001) externForcingCycle =   /* period of the cyle (s). */
(PID.TID 0000.0001)                 0.000000000000000E+00
(PID.TID 0000.0001)     ;
(PID.TID 0000.0001) tauThetaClimRelax =   /* relaxation time scale (s) */
(PID.TID 0000.0001)                 0.000000000000000E+00
(PID.TID 0000.0001)     ;
(PID.TID 0000.0001) tauSaltClimRelax =   /* relaxation time scale (s) */
(PID.TID 0000.0001)                 0.000000000000000E+00
(PID.TID 0000.0001)     ;
(PID.TID 0000.0001) latBandClimRelax =   /* max. Lat. where relaxation */
(PID.TID 0000.0001)                 1.800000000000000E+02
(PID.TID 0000.0001)     ;
(PID.TID 0000.0001) //
(PID.TID 0000.0001) // Gridding paramters ( PARM04 in namelist )
(PID.TID 0000.0001) //
(PID.TID 0000.0001) usingCartesianGrid = /* Cartesian coordinates flag ( True/False ) */
(PID.TID 0000.0001)                   F
(PID.TID 0000.0001)     ;
(PID.TID 0000.0001) usingCylindricalGrid = /* Cylindrical coordinates flag ( True/False ) */
(PID.TID 0000.0001)                   F
(PID.TID 0000.0001)     ;
(PID.TID 0000.0001) usingSphericalPolarGrid = /* Spherical coordinates flag ( True/False ) */
(PID.TID 0000.0001)                   T
(PID.TID 0000.0001)     ;
(PID.TID 0000.0001) usingCurvilinearGrid = /* Curvilinear coordinates flag ( True/False ) */
(PID.TID 0000.0001)                   F
(PID.TID 0000.0001)     ;
(PID.TID 0000.0001) selectSigmaCoord = /* Hybrid-Sigma Vert. Coordinate option */
(PID.TID 0000.0001)                       0
(PID.TID 0000.0001)     ;
(PID.TID 0000.0001) Ro_SeaLevel = /* r(1) ( units of r ==  m ) */
(PID.TID 0000.0001)                 0.000000000000000E+00
(PID.TID 0000.0001)     ;
(PID.TID 0000.0001) rSigmaBnd = /* r/sigma transition ( units of r ==  m ) */
(PID.TID 0000.0001)                 1.234567000000000E+05
(PID.TID 0000.0001)     ;
(PID.TID 0000.0001) rkSign =   /* index orientation relative to vertical coordinate */
(PID.TID 0000.0001)                -1.000000000000000E+00
(PID.TID 0000.0001)     ;
(PID.TID 0000.0001) gravitySign = /* gravity orientation relative to vertical coordinate */
(PID.TID 0000.0001)                -1.000000000000000E+00
(PID.TID 0000.0001)     ;
(PID.TID 0000.0001) mass2rUnit = /* convert mass per unit area [kg/m2] to r-units [m] */
(PID.TID 0000.0001)                 9.708737864077669E-04
(PID.TID 0000.0001)     ;
(PID.TID 0000.0001) rUnit2mass = /* convert r-units [m] to mass per unit area [kg/m2] */
(PID.TID 0000.0001)                 1.030000000000000E+03
(PID.TID 0000.0001)     ;
(PID.TID 0000.0001) drC =   /* C spacing ( units of r ) */
(PID.TID 0000.0001)                 1.500000000000000E+01,      /* K =  1 */
(PID.TID 0000.0001)    29 @  3.000000000000000E+01,             /* K =  2: 30 */
(PID.TID 0000.0001)                 1.500000000000000E+01       /* K = 31 */
(PID.TID 0000.0001)     ;
(PID.TID 0000.0001) drF =   /* W spacing ( units of r ) */
(PID.TID 0000.0001)    30 @  3.000000000000000E+01              /* K =  1: 30 */
(PID.TID 0000.0001)     ;
(PID.TID 0000.0001) delX = /* U spacing ( m - cartesian, degrees - spherical ) */
(PID.TID 0000.0001)    50 @  3.000000000000000E-01              /* I =  1: 50 */
(PID.TID 0000.0001)     ;
(PID.TID 0000.0001) delY = /* V spacing ( m - cartesian, degrees - spherical ) */
(PID.TID 0000.0001)   100 @  1.000000000000000E-01              /* J =  1:100 */
(PID.TID 0000.0001)     ;
(PID.TID 0000.0001) xgOrigin = /* X-axis origin of West  edge (cartesian: m, lat-lon: deg) */
(PID.TID 0000.0001)                 0.000000000000000E+00
(PID.TID 0000.0001)     ;
(PID.TID 0000.0001) ygOrigin = /* Y-axis origin of South edge (cartesian: m, lat-lon: deg) */
(PID.TID 0000.0001)                -8.000000000000000E+01
(PID.TID 0000.0001)     ;
(PID.TID 0000.0001) rSphere =  /* Radius ( ignored - cartesian, m - spherical ) */
(PID.TID 0000.0001)                 6.370000000000000E+06
(PID.TID 0000.0001)     ;
(PID.TID 0000.0001) deepAtmosphere = /* Deep/Shallow Atmosphere flag (True/False) */
(PID.TID 0000.0001)                   F
(PID.TID 0000.0001)     ;
(PID.TID 0000.0001) xC =  /* xC(:,1,:,1) : P-point X coord ( deg. or m if cartesian) */
(PID.TID 0000.0001)                 1.500000000000001E-01,      /* I =  1 */
(PID.TID 0000.0001)                 4.500000000000001E-01,      /* I =  2 */
(PID.TID 0000.0001)                 7.500000000000002E-01,      /* I =  3 */
(PID.TID 0000.0001)                 1.050000000000000E+00,      /* I =  4 */
(PID.TID 0000.0001)                 1.350000000000000E+00,      /* I =  5 */
(PID.TID 0000.0001)                 1.650000000000000E+00,      /* I =  6 */
(PID.TID 0000.0001)                 1.950000000000000E+00,      /* I =  7 */
(PID.TID 0000.0001)                 2.250000000000000E+00,      /* I =  8 */
(PID.TID 0000.0001)                 2.550000000000000E+00,      /* I =  9 */
(PID.TID 0000.0001)                 2.850000000000000E+00,      /* I = 10 */
(PID.TID 0000.0001)                 3.149999999999999E+00,      /* I = 11 */
(PID.TID 0000.0001)                 3.449999999999999E+00,      /* I = 12 */
(PID.TID 0000.0001)                 3.749999999999999E+00,      /* I = 13 */
(PID.TID 0000.0001)                 4.049999999999999E+00,      /* I = 14 */
(PID.TID 0000.0001)                 4.350000000000000E+00,      /* I = 15 */
(PID.TID 0000.0001)                 4.649999999999999E+00,      /* I = 16 */
(PID.TID 0000.0001)                 4.949999999999999E+00,      /* I = 17 */
(PID.TID 0000.0001)                 5.249999999999998E+00,      /* I = 18 */
(PID.TID 0000.0001)                 5.549999999999999E+00,      /* I = 19 */
(PID.TID 0000.0001)                 5.849999999999998E+00,      /* I = 20 */
(PID.TID 0000.0001)                 6.149999999999999E+00,      /* I = 21 */
(PID.TID 0000.0001)                 6.449999999999998E+00,      /* I = 22 */
(PID.TID 0000.0001)                 6.749999999999998E+00,      /* I = 23 */
(PID.TID 0000.0001)                 7.049999999999997E+00,      /* I = 24 */
(PID.TID 0000.0001)                 7.349999999999997E+00,      /* I = 25 */
(PID.TID 0000.0001)                 7.649999999999997E+00,      /* I = 26 */
(PID.TID 0000.0001)                 7.949999999999998E+00,      /* I = 27 */
(PID.TID 0000.0001)                 8.249999999999998E+00,      /* I = 28 */
(PID.TID 0000.0001)                 8.549999999999999E+00,      /* I = 29 */
(PID.TID 0000.0001)                 8.850000000000000E+00,      /* I = 30 */
(PID.TID 0000.0001)                 9.150000000000000E+00,      /* I = 31 */
(PID.TID 0000.0001)                 9.450000000000001E+00,      /* I = 32 */
(PID.TID 0000.0001)                 9.750000000000002E+00,      /* I = 33 */
(PID.TID 0000.0001)                 1.005000000000000E+01,      /* I = 34 */
(PID.TID 0000.0001)                 1.035000000000000E+01,      /* I = 35 */
(PID.TID 0000.0001)                 1.065000000000000E+01,      /* I = 36 */
(PID.TID 0000.0001)                 1.095000000000001E+01,      /* I = 37 */
(PID.TID 0000.0001)                 1.125000000000001E+01,      /* I = 38 */
(PID.TID 0000.0001)                 1.155000000000000E+01,      /* I = 39 */
(PID.TID 0000.0001)                 1.185000000000001E+01,      /* I = 40 */
(PID.TID 0000.0001)                 1.215000000000001E+01,      /* I = 41 */
(PID.TID 0000.0001)                 1.245000000000001E+01,      /* I = 42 */
(PID.TID 0000.0001)                 1.275000000000001E+01,      /* I = 43 */
(PID.TID 0000.0001)                 1.305000000000001E+01,      /* I = 44 */
(PID.TID 0000.0001)                 1.335000000000001E+01,      /* I = 45 */
(PID.TID 0000.0001)                 1.365000000000001E+01,      /* I = 46 */
(PID.TID 0000.0001)                 1.395000000000001E+01,      /* I = 47 */
(PID.TID 0000.0001)                 1.425000000000001E+01,      /* I = 48 */
(PID.TID 0000.0001)                 1.455000000000001E+01,      /* I = 49 */
(PID.TID 0000.0001)                 1.485000000000001E+01       /* I = 50 */
(PID.TID 0000.0001)     ;
(PID.TID 0000.0001) yC =  /* yC(1,:,1,:) : P-point Y coord ( deg. or m if cartesian) */
(PID.TID 0000.0001)                -7.995000000000000E+01,      /* J =  1 */
(PID.TID 0000.0001)                -7.985000000000001E+01,      /* J =  2 */
(PID.TID 0000.0001)                -7.975000000000001E+01,      /* J =  3 */
(PID.TID 0000.0001)      . . .
(PID.TID 0000.0001)                -7.775000000000013E+01,      /* J = 23 */
(PID.TID 0000.0001)                -7.765000000000013E+01,      /* J = 24 */
(PID.TID 0000.0001)                -7.755000000000014E+01,      /* J = 25 */
(PID.TID 0000.0001)                -7.745000000000014E+01,      /* J = 26 */
(PID.TID 0000.0001)                -7.735000000000015E+01,      /* J = 27 */
(PID.TID 0000.0001)                -7.725000000000016E+01,      /* J = 28 */
(PID.TID 0000.0001)      . . .
(PID.TID 0000.0001)                -7.525000000000027E+01,      /* J = 48 */
(PID.TID 0000.0001)                -7.515000000000028E+01,      /* J = 49 */
(PID.TID 0000.0001)                -7.505000000000028E+01,      /* J = 50 */
(PID.TID 0000.0001)                -7.495000000000029E+01,      /* J = 51 */
(PID.TID 0000.0001)                -7.485000000000029E+01,      /* J = 52 */
(PID.TID 0000.0001)                -7.475000000000030E+01,      /* J = 53 */
(PID.TID 0000.0001)      . . .
(PID.TID 0000.0001)                -7.275000000000041E+01,      /* J = 73 */
(PID.TID 0000.0001)                -7.265000000000042E+01,      /* J = 74 */
(PID.TID 0000.0001)                -7.255000000000042E+01,      /* J = 75 */
(PID.TID 0000.0001)                -7.245000000000043E+01,      /* J = 76 */
(PID.TID 0000.0001)                -7.235000000000043E+01,      /* J = 77 */
(PID.TID 0000.0001)                -7.225000000000044E+01,      /* J = 78 */
(PID.TID 0000.0001)      . . .
(PID.TID 0000.0001)                -7.025000000000055E+01,      /* J = 98 */
(PID.TID 0000.0001)                -7.015000000000056E+01,      /* J = 99 */
(PID.TID 0000.0001)                -7.005000000000057E+01       /* J =100 */
(PID.TID 0000.0001)     ;
(PID.TID 0000.0001) rcoord = /* P-point R coordinate (  units of r ) */
(PID.TID 0000.0001)                -1.500000000000000E+01,      /* K =  1 */
(PID.TID 0000.0001)                -4.500000000000000E+01,      /* K =  2 */
(PID.TID 0000.0001)                -7.500000000000000E+01,      /* K =  3 */
(PID.TID 0000.0001)                -1.050000000000000E+02,      /* K =  4 */
(PID.TID 0000.0001)                -1.350000000000000E+02,      /* K =  5 */
(PID.TID 0000.0001)                -1.650000000000000E+02,      /* K =  6 */
(PID.TID 0000.0001)                -1.950000000000000E+02,      /* K =  7 */
(PID.TID 0000.0001)                -2.250000000000000E+02,      /* K =  8 */
(PID.TID 0000.0001)                -2.550000000000000E+02,      /* K =  9 */
(PID.TID 0000.0001)                -2.850000000000000E+02,      /* K = 10 */
(PID.TID 0000.0001)                -3.150000000000000E+02,      /* K = 11 */
(PID.TID 0000.0001)                -3.450000000000000E+02,      /* K = 12 */
(PID.TID 0000.0001)                -3.750000000000000E+02,      /* K = 13 */
(PID.TID 0000.0001)                -4.050000000000000E+02,      /* K = 14 */
(PID.TID 0000.0001)                -4.350000000000000E+02,      /* K = 15 */
(PID.TID 0000.0001)                -4.650000000000000E+02,      /* K = 16 */
(PID.TID 0000.0001)                -4.950000000000000E+02,      /* K = 17 */
(PID.TID 0000.0001)                -5.250000000000000E+02,      /* K = 18 */
(PID.TID 0000.0001)                -5.550000000000000E+02,      /* K = 19 */
(PID.TID 0000.0001)                -5.850000000000000E+02,      /* K = 20 */
(PID.TID 0000.0001)                -6.150000000000000E+02,      /* K = 21 */
(PID.TID 0000.0001)                -6.450000000000000E+02,      /* K = 22 */
(PID.TID 0000.0001)                -6.750000000000000E+02,      /* K = 23 */
(PID.TID 0000.0001)                -7.050000000000000E+02,      /* K = 24 */
(PID.TID 0000.0001)                -7.350000000000000E+02,      /* K = 25 */
(PID.TID 0000.0001)                -7.650000000000000E+02,      /* K = 26 */
(PID.TID 0000.0001)                -7.950000000000000E+02,      /* K = 27 */
(PID.TID 0000.0001)                -8.250000000000000E+02,      /* K = 28 */
(PID.TID 0000.0001)                -8.550000000000000E+02,      /* K = 29 */
(PID.TID 0000.0001)                -8.850000000000000E+02       /* K = 30 */
(PID.TID 0000.0001)     ;
(PID.TID 0000.0001) rF =   /* W-Interf. R coordinate (  units of r ) */
(PID.TID 0000.0001)                 0.000000000000000E+00,      /* K =  1 */
(PID.TID 0000.0001)                -3.000000000000000E+01,      /* K =  2 */
(PID.TID 0000.0001)                -6.000000000000000E+01,      /* K =  3 */
(PID.TID 0000.0001)                -9.000000000000000E+01,      /* K =  4 */
(PID.TID 0000.0001)                -1.200000000000000E+02,      /* K =  5 */
(PID.TID 0000.0001)                -1.500000000000000E+02,      /* K =  6 */
(PID.TID 0000.0001)                -1.800000000000000E+02,      /* K =  7 */
(PID.TID 0000.0001)                -2.100000000000000E+02,      /* K =  8 */
(PID.TID 0000.0001)                -2.400000000000000E+02,      /* K =  9 */
(PID.TID 0000.0001)                -2.700000000000000E+02,      /* K = 10 */
(PID.TID 0000.0001)                -3.000000000000000E+02,      /* K = 11 */
(PID.TID 0000.0001)                -3.300000000000000E+02,      /* K = 12 */
(PID.TID 0000.0001)                -3.600000000000000E+02,      /* K = 13 */
(PID.TID 0000.0001)                -3.900000000000000E+02,      /* K = 14 */
(PID.TID 0000.0001)                -4.200000000000000E+02,      /* K = 15 */
(PID.TID 0000.0001)                -4.500000000000000E+02,      /* K = 16 */
(PID.TID 0000.0001)                -4.800000000000000E+02,      /* K = 17 */
(PID.TID 0000.0001)                -5.100000000000000E+02,      /* K = 18 */
(PID.TID 0000.0001)                -5.400000000000000E+02,      /* K = 19 */
(PID.TID 0000.0001)                -5.700000000000000E+02,      /* K = 20 */
(PID.TID 0000.0001)                -6.000000000000000E+02,      /* K = 21 */
(PID.TID 0000.0001)                -6.300000000000000E+02,      /* K = 22 */
(PID.TID 0000.0001)                -6.600000000000000E+02,      /* K = 23 */
(PID.TID 0000.0001)                -6.900000000000000E+02,      /* K = 24 */
(PID.TID 0000.0001)                -7.200000000000000E+02,      /* K = 25 */
(PID.TID 0000.0001)                -7.500000000000000E+02,      /* K = 26 */
(PID.TID 0000.0001)                -7.800000000000000E+02,      /* K = 27 */
(PID.TID 0000.0001)                -8.100000000000000E+02,      /* K = 28 */
(PID.TID 0000.0001)                -8.400000000000000E+02,      /* K = 29 */
(PID.TID 0000.0001)                -8.700000000000000E+02,      /* K = 30 */
(PID.TID 0000.0001)                -9.000000000000000E+02       /* K = 31 */
(PID.TID 0000.0001)     ;
(PID.TID 0000.0001) deepFacC = /* deep-model grid factor @ cell-Center (-) */
(PID.TID 0000.0001)    30 @  1.000000000000000E+00              /* K =  1: 30 */
(PID.TID 0000.0001)     ;
(PID.TID 0000.0001) deepFacF = /* deep-model grid factor @ W-Interface (-) */
(PID.TID 0000.0001)    31 @  1.000000000000000E+00              /* K =  1: 31 */
(PID.TID 0000.0001)     ;
(PID.TID 0000.0001) rVel2wUnit = /* convert units: rVel -> wSpeed (=1 if z-coord)*/
(PID.TID 0000.0001)    31 @  1.000000000000000E+00              /* K =  1: 31 */
(PID.TID 0000.0001)     ;
(PID.TID 0000.0001) wUnit2rVel = /* convert units: wSpeed -> rVel (=1 if z-coord)*/
(PID.TID 0000.0001)    31 @  1.000000000000000E+00              /* K =  1: 31 */
(PID.TID 0000.0001)     ;
(PID.TID 0000.0001) dBdrRef = /* Vertical grad. of reference buoyancy [(m/s/r)^2] */
(PID.TID 0000.0001)    30 @  0.000000000000000E+00              /* K =  1: 30 */
(PID.TID 0000.0001)     ;
(PID.TID 0000.0001) rotateGrid = /* use rotated grid ( True/False ) */
(PID.TID 0000.0001)                   F
(PID.TID 0000.0001)     ;
(PID.TID 0000.0001) phiEuler = /* Euler angle, rotation about original z-coordinate [rad] */
(PID.TID 0000.0001)                 0.000000000000000E+00
(PID.TID 0000.0001)     ;
(PID.TID 0000.0001) thetaEuler = /* Euler angle, rotation about new x-coordinate [rad] */
(PID.TID 0000.0001)                 0.000000000000000E+00
(PID.TID 0000.0001)     ;
(PID.TID 0000.0001) psiEuler = /* Euler angle, rotation about new z-coordinate [rad] */
(PID.TID 0000.0001)                 0.000000000000000E+00
(PID.TID 0000.0001)     ;
(PID.TID 0000.0001) dxF =  /* dxF(:,1,:,1) ( units: m ) */
(PID.TID 0000.0001)    50 @  5.820391490558872E+03              /* I =  1: 50 */
(PID.TID 0000.0001)     ;
(PID.TID 0000.0001) dxF =  /* dxF(1,:,1,:) ( units: m ) */
(PID.TID 0000.0001)                 5.820391490558872E+03,      /* J =  1 */
(PID.TID 0000.0001)                 5.877701765291692E+03,      /* J =  2 */
(PID.TID 0000.0001)                 5.934994135525598E+03,      /* J =  3 */
(PID.TID 0000.0001)      . . .
(PID.TID 0000.0001)                 7.076813247621209E+03,      /* J = 23 */
(PID.TID 0000.0001)                 7.133689397375063E+03,      /* J = 24 */
(PID.TID 0000.0001)                 7.190543816673855E+03,      /* J = 25 */
(PID.TID 0000.0001)                 7.247376332329164E+03,      /* J = 26 */
(PID.TID 0000.0001)                 7.304186771219292E+03,      /* J = 27 */
(PID.TID 0000.0001)                 7.360974960289787E+03,      /* J = 28 */
(PID.TID 0000.0001)      . . .
(PID.TID 0000.0001)                 8.491800393599013E+03,      /* J = 48 */
(PID.TID 0000.0001)                 8.548081485571185E+03,      /* J = 49 */
(PID.TID 0000.0001)                 8.604336538604706E+03,      /* J = 50 */
(PID.TID 0000.0001)                 8.660565381336924E+03,      /* J = 51 */
(PID.TID 0000.0001)                 8.716767842485036E+03,      /* J = 52 */
(PID.TID 0000.0001)                 8.772943750846600E+03,      /* J = 53 */
(PID.TID 0000.0001)      . . .
(PID.TID 0000.0001)                 9.890622914885218E+03,      /* J = 73 */
(PID.TID 0000.0001)                 9.946201814818334E+03,      /* J = 74 */
(PID.TID 0000.0001)                 1.000175041689580E+04,      /* J = 75 */
(PID.TID 0000.0001)                 1.005726855190695E+04,      /* J = 76 */
(PID.TID 0000.0001)                 1.011275605073392E+04,      /* J = 77 */
(PID.TID 0000.0001)                 1.016821274435215E+04,      /* J = 78 */
(PID.TID 0000.0001)      . . .
(PID.TID 0000.0001)                 1.127061807330668E+04,      /* J = 98 */
(PID.TID 0000.0001)                 1.132538898360582E+04,      /* J = 99 */
(PID.TID 0000.0001)                 1.138012539480601E+04       /* J =100 */
(PID.TID 0000.0001)     ;
(PID.TID 0000.0001) dyF =  /* dyF(:,1,:,1) ( units: m ) */
(PID.TID 0000.0001)    50 @  1.111774733520388E+04              /* I =  1: 50 */
(PID.TID 0000.0001)     ;
(PID.TID 0000.0001) dyF =  /* dyF(1,:,1,:) ( units: m ) */
(PID.TID 0000.0001)   100 @  1.111774733520388E+04              /* J =  1:100 */
(PID.TID 0000.0001)     ;
(PID.TID 0000.0001) dxG =  /* dxG(:,1,:,1) ( units: m ) */
(PID.TID 0000.0001)    50 @  5.791729693558576E+03              /* I =  1: 50 */
(PID.TID 0000.0001)     ;
(PID.TID 0000.0001) dxG =  /* dxG(1,:,1,:) ( units: m ) */
(PID.TID 0000.0001)                 5.791729693558576E+03,      /* J =  1 */
(PID.TID 0000.0001)                 5.849048855077854E+03,      /* J =  2 */
(PID.TID 0000.0001)                 5.906350199379949E+03,      /* J =  3 */
(PID.TID 0000.0001)      . . .
(PID.TID 0000.0001)                 7.048367077963129E+03,      /* J = 23 */
(PID.TID 0000.0001)                 7.105254027978149E+03,      /* J = 24 */
(PID.TID 0000.0001)                 7.162119334157175E+03,      /* J = 25 */
(PID.TID 0000.0001)                 7.218962823278620E+03,      /* J = 26 */
(PID.TID 0000.0001)                 7.275784322187360E+03,      /* J = 27 */
(PID.TID 0000.0001)                 7.332583657795253E+03,      /* J = 28 */
(PID.TID 0000.0001)      . . .
(PID.TID 0000.0001)                 8.463650136583461E+03,      /* J = 48 */
(PID.TID 0000.0001)                 8.519944183739159E+03,      /* J = 49 */
(PID.TID 0000.0001)                 8.576212277667308E+03,      /* J = 50 */
(PID.TID 0000.0001)                 8.632454246965530E+03,      /* J = 51 */
(PID.TID 0000.0001)                 8.688669920311038E+03,      /* J = 52 */
(PID.TID 0000.0001)                 8.744859126461139E+03,      /* J = 53 */
(PID.TID 0000.0001)      . . .
(PID.TID 0000.0001)                 9.862822156126382E+03,      /* J = 73 */
(PID.TID 0000.0001)                 9.918416141504455E+03,      /* J = 74 */
(PID.TID 0000.0001)                 9.973979913666863E+03,      /* J = 75 */
(PID.TID 0000.0001)                 1.002951330335672E+04,      /* J = 76 */
(PID.TID 0000.0001)                 1.008501614140969E+04,      /* J = 77 */
(PID.TID 0000.0001)                 1.014048825875450E+04,      /* J = 78 */
(PID.TID 0000.0001)      . . .
(PID.TID 0000.0001)                 1.124321973312895E+04,      /* J = 98 */
(PID.TID 0000.0001)                 1.129800783041847E+04,      /* J = 99 */
(PID.TID 0000.0001)                 1.135276151201679E+04       /* J =100 */
(PID.TID 0000.0001)     ;
(PID.TID 0000.0001) dyG =  /* dyG(:,1,:,1) ( units: m ) */
(PID.TID 0000.0001)    50 @  1.111774733520388E+04              /* I =  1: 50 */
(PID.TID 0000.0001)     ;
(PID.TID 0000.0001) dyG =  /* dyG(1,:,1,:) ( units: m ) */
(PID.TID 0000.0001)   100 @  1.111774733520388E+04              /* J =  1:100 */
(PID.TID 0000.0001)     ;
(PID.TID 0000.0001) dxC =  /* dxC(:,1,:,1) ( units: m ) */
(PID.TID 0000.0001)    50 @  5.820391490558872E+03              /* I =  1: 50 */
(PID.TID 0000.0001)     ;
(PID.TID 0000.0001) dxC =  /* dxC(1,:,1,:) ( units: m ) */
(PID.TID 0000.0001)                 5.820391490558872E+03,      /* J =  1 */
(PID.TID 0000.0001)                 5.877701765291692E+03,      /* J =  2 */
(PID.TID 0000.0001)                 5.934994135525598E+03,      /* J =  3 */
(PID.TID 0000.0001)      . . .
(PID.TID 0000.0001)                 7.076813247621209E+03,      /* J = 23 */
(PID.TID 0000.0001)                 7.133689397375063E+03,      /* J = 24 */
(PID.TID 0000.0001)                 7.190543816673855E+03,      /* J = 25 */
(PID.TID 0000.0001)                 7.247376332329164E+03,      /* J = 26 */
(PID.TID 0000.0001)                 7.304186771219292E+03,      /* J = 27 */
(PID.TID 0000.0001)                 7.360974960289787E+03,      /* J = 28 */
(PID.TID 0000.0001)      . . .
(PID.TID 0000.0001)                 8.491800393599013E+03,      /* J = 48 */
(PID.TID 0000.0001)                 8.548081485571185E+03,      /* J = 49 */
(PID.TID 0000.0001)                 8.604336538604706E+03,      /* J = 50 */
(PID.TID 0000.0001)                 8.660565381336924E+03,      /* J = 51 */
(PID.TID 0000.0001)                 8.716767842485036E+03,      /* J = 52 */
(PID.TID 0000.0001)                 8.772943750846600E+03,      /* J = 53 */
(PID.TID 0000.0001)      . . .
(PID.TID 0000.0001)                 9.890622914885218E+03,      /* J = 73 */
(PID.TID 0000.0001)                 9.946201814818334E+03,      /* J = 74 */
(PID.TID 0000.0001)                 1.000175041689580E+04,      /* J = 75 */
(PID.TID 0000.0001)                 1.005726855190695E+04,      /* J = 76 */
(PID.TID 0000.0001)                 1.011275605073392E+04,      /* J = 77 */
(PID.TID 0000.0001)                 1.016821274435215E+04,      /* J = 78 */
(PID.TID 0000.0001)      . . .
(PID.TID 0000.0001)                 1.127061807330668E+04,      /* J = 98 */
(PID.TID 0000.0001)                 1.132538898360582E+04,      /* J = 99 */
(PID.TID 0000.0001)                 1.138012539480601E+04       /* J =100 */
(PID.TID 0000.0001)     ;
(PID.TID 0000.0001) dyC =  /* dyC(:,1,:,1) ( units: m ) */
(PID.TID 0000.0001)    50 @  1.111774733520388E+04              /* I =  1: 50 */
(PID.TID 0000.0001)     ;
(PID.TID 0000.0001) dyC =  /* dyC(1,:,1,:) ( units: m ) */
(PID.TID 0000.0001)   100 @  1.111774733520388E+04              /* J =  1:100 */
(PID.TID 0000.0001)     ;
(PID.TID 0000.0001) dxV =  /* dxV(:,1,:,1) ( units: m ) */
(PID.TID 0000.0001)    50 @  5.791729693558576E+03              /* I =  1: 50 */
(PID.TID 0000.0001)     ;
(PID.TID 0000.0001) dxV =  /* dxV(1,:,1,:) ( units: m ) */
(PID.TID 0000.0001)                 5.791729693558576E+03,      /* J =  1 */
(PID.TID 0000.0001)                 5.849048855077854E+03,      /* J =  2 */
(PID.TID 0000.0001)                 5.906350199379949E+03,      /* J =  3 */
(PID.TID 0000.0001)      . . .
(PID.TID 0000.0001)                 7.048367077963129E+03,      /* J = 23 */
(PID.TID 0000.0001)                 7.105254027978149E+03,      /* J = 24 */
(PID.TID 0000.0001)                 7.162119334157175E+03,      /* J = 25 */
(PID.TID 0000.0001)                 7.218962823278620E+03,      /* J = 26 */
(PID.TID 0000.0001)                 7.275784322187360E+03,      /* J = 27 */
(PID.TID 0000.0001)                 7.332583657795253E+03,      /* J = 28 */
(PID.TID 0000.0001)      . . .
(PID.TID 0000.0001)                 8.463650136583461E+03,      /* J = 48 */
(PID.TID 0000.0001)                 8.519944183739159E+03,      /* J = 49 */
(PID.TID 0000.0001)                 8.576212277667308E+03,      /* J = 50 */
(PID.TID 0000.0001)                 8.632454246965530E+03,      /* J = 51 */
(PID.TID 0000.0001)                 8.688669920311038E+03,      /* J = 52 */
(PID.TID 0000.0001)                 8.744859126461139E+03,      /* J = 53 */
(PID.TID 0000.0001)      . . .
(PID.TID 0000.0001)                 9.862822156126382E+03,      /* J = 73 */
(PID.TID 0000.0001)                 9.918416141504455E+03,      /* J = 74 */
(PID.TID 0000.0001)                 9.973979913666863E+03,      /* J = 75 */
(PID.TID 0000.0001)                 1.002951330335672E+04,      /* J = 76 */
(PID.TID 0000.0001)                 1.008501614140969E+04,      /* J = 77 */
(PID.TID 0000.0001)                 1.014048825875450E+04,      /* J = 78 */
(PID.TID 0000.0001)      . . .
(PID.TID 0000.0001)                 1.124321973312895E+04,      /* J = 98 */
(PID.TID 0000.0001)                 1.129800783041847E+04,      /* J = 99 */
(PID.TID 0000.0001)                 1.135276151201679E+04       /* J =100 */
(PID.TID 0000.0001)     ;
(PID.TID 0000.0001) dyU =  /* dyU(:,1,:,1) ( units: m ) */
(PID.TID 0000.0001)    50 @  1.111774733520388E+04              /* I =  1: 50 */
(PID.TID 0000.0001)     ;
(PID.TID 0000.0001) dyU =  /* dyU(1,:,1,:) ( units: m ) */
(PID.TID 0000.0001)   100 @  1.111774733520388E+04              /* J =  1:100 */
(PID.TID 0000.0001)     ;
(PID.TID 0000.0001) rA  =  /* rA (:,1,:,1) ( units: m^2 ) */
(PID.TID 0000.0001)    50 @  6.470963377080289E+07              /* I =  1: 50 */
(PID.TID 0000.0001)     ;
(PID.TID 0000.0001) rA  =  /* rA (1,:,1,:) ( units: m^2 ) */
(PID.TID 0000.0001)                 6.470963377080289E+07,      /* J =  1 */
(PID.TID 0000.0001)                 6.534679484410104E+07,      /* J =  2 */
(PID.TID 0000.0001)                 6.598375685977945E+07,      /* J =  3 */
(PID.TID 0000.0001)      . . .
(PID.TID 0000.0001)                 7.867821163932665E+07,      /* J = 23 */
(PID.TID 0000.0001)                 7.931054622142966E+07,      /* J = 24 */
(PID.TID 0000.0001)                 7.994263920984067E+07,      /* J = 25 */
(PID.TID 0000.0001)                 8.057448867913349E+07,      /* J = 26 */
(PID.TID 0000.0001)                 8.120609270456599E+07,      /* J = 27 */
(PID.TID 0000.0001)                 8.183744936212724E+07,      /* J = 28 */
(PID.TID 0000.0001)      . . .
(PID.TID 0000.0001)                 9.440967921416211E+07,      /* J = 48 */
(PID.TID 0000.0001)                 9.503539809503193E+07,      /* J = 49 */
(PID.TID 0000.0001)                 9.566082748163140E+07,      /* J = 50 */
(PID.TID 0000.0001)                 9.628596546870193E+07,      /* J = 51 */
(PID.TID 0000.0001)                 9.691081015209354E+07,      /* J = 52 */
(PID.TID 0000.0001)                 9.753535962826957E+07,      /* J = 53 */
(PID.TID 0000.0001)      . . .
(PID.TID 0000.0001)                 1.099614325987181E+08,      /* J = 73 */
(PID.TID 0000.0001)                 1.105793446869293E+08,      /* J = 74 */
(PID.TID 0000.0001)                 1.111969199312560E+08,      /* J = 75 */
(PID.TID 0000.0001)                 1.118141564504991E+08,      /* J = 76 */
(PID.TID 0000.0001)                 1.124310523644033E+08,      /* J = 77 */
(PID.TID 0000.0001)                 1.130476057938687E+08,      /* J = 78 */
(PID.TID 0000.0001)      . . .
(PID.TID 0000.0001)                 1.253038681465364E+08,      /* J = 98 */
(PID.TID 0000.0001)                 1.259127972112936E+08,      /* J = 99 */
(PID.TID 0000.0001)                 1.265213427237870E+08       /* J =100 */
(PID.TID 0000.0001)     ;
(PID.TID 0000.0001) rAw =  /* rAw(:,1,:,1) ( units: m^2 ) */
(PID.TID 0000.0001)    50 @  6.470963377080289E+07              /* I =  1: 50 */
(PID.TID 0000.0001)     ;
(PID.TID 0000.0001) rAw =  /* rAw(1,:,1,:) ( units: m^2 ) */
(PID.TID 0000.0001)                 6.470963377080289E+07,      /* J =  1 */
(PID.TID 0000.0001)                 6.534679484410104E+07,      /* J =  2 */
(PID.TID 0000.0001)                 6.598375685977945E+07,      /* J =  3 */
(PID.TID 0000.0001)      . . .
(PID.TID 0000.0001)                 7.867821163932665E+07,      /* J = 23 */
(PID.TID 0000.0001)                 7.931054622142966E+07,      /* J = 24 */
(PID.TID 0000.0001)                 7.994263920984067E+07,      /* J = 25 */
(PID.TID 0000.0001)                 8.057448867913349E+07,      /* J = 26 */
(PID.TID 0000.0001)                 8.120609270456599E+07,      /* J = 27 */
(PID.TID 0000.0001)                 8.183744936212724E+07,      /* J = 28 */
(PID.TID 0000.0001)      . . .
(PID.TID 0000.0001)                 9.440967921416211E+07,      /* J = 48 */
(PID.TID 0000.0001)                 9.503539809503193E+07,      /* J = 49 */
(PID.TID 0000.0001)                 9.566082748163140E+07,      /* J = 50 */
(PID.TID 0000.0001)                 9.628596546870193E+07,      /* J = 51 */
(PID.TID 0000.0001)                 9.691081015209354E+07,      /* J = 52 */
(PID.TID 0000.0001)                 9.753535962826957E+07,      /* J = 53 */
(PID.TID 0000.0001)      . . .
(PID.TID 0000.0001)                 1.099614325987181E+08,      /* J = 73 */
(PID.TID 0000.0001)                 1.105793446869293E+08,      /* J = 74 */
(PID.TID 0000.0001)                 1.111969199312560E+08,      /* J = 75 */
(PID.TID 0000.0001)                 1.118141564504991E+08,      /* J = 76 */
(PID.TID 0000.0001)                 1.124310523644033E+08,      /* J = 77 */
(PID.TID 0000.0001)                 1.130476057938687E+08,      /* J = 78 */
(PID.TID 0000.0001)      . . .
(PID.TID 0000.0001)                 1.253038681465364E+08,      /* J = 98 */
(PID.TID 0000.0001)                 1.259127972112936E+08,      /* J = 99 */
(PID.TID 0000.0001)                 1.265213427237870E+08       /* J =100 */
(PID.TID 0000.0001)     ;
(PID.TID 0000.0001) rAs =  /* rAs(:,1,:,1) ( units: m^2 ) */
(PID.TID 0000.0001)    50 @  6.439097919401864E+07              /* I =  1: 50 */
(PID.TID 0000.0001)     ;
(PID.TID 0000.0001) rAs =  /* rAs(1,:,1,:) ( units: m^2 ) */
(PID.TID 0000.0001)                 6.439097919401864E+07,      /* J =  1 */
(PID.TID 0000.0001)                 6.502823906837179E+07,      /* J =  2 */
(PID.TID 0000.0001)                 6.566530085543716E+07,      /* J =  3 */
(PID.TID 0000.0001)      . . .
(PID.TID 0000.0001)                 7.836195435256335E+07,      /* J = 23 */
(PID.TID 0000.0001)                 7.899440900921808E+07,      /* J = 24 */
(PID.TID 0000.0001)                 7.962662303520055E+07,      /* J = 25 */
(PID.TID 0000.0001)                 8.025859450470714E+07,      /* J = 26 */
(PID.TID 0000.0001)                 8.089032149259475E+07,      /* J = 27 */
(PID.TID 0000.0001)                 8.152180207452223E+07,      /* J = 28 */
(PID.TID 0000.0001)      . . .
(PID.TID 0000.0001)                 9.409671180895932E+07,      /* J = 48 */
(PID.TID 0000.0001)                 9.472257472228888E+07,      /* J = 49 */
(PID.TID 0000.0001)                 9.534814909420149E+07,      /* J = 50 */
(PID.TID 0000.0001)                 9.597343301913190E+07,      /* J = 51 */
(PID.TID 0000.0001)                 9.659842459236403E+07,      /* J = 52 */
(PID.TID 0000.0001)                 9.722312190998378E+07,      /* J = 53 */
(PID.TID 0000.0001)      . . .
(PID.TID 0000.0001)                 1.096523508263446E+08,      /* J = 73 */
(PID.TID 0000.0001)                 1.102704306306916E+08,      /* J = 74 */
(PID.TID 0000.0001)                 1.108881745321664E+08,      /* J = 75 */
(PID.TID 0000.0001)                 1.115055806490511E+08,      /* J = 76 */
(PID.TID 0000.0001)                 1.121226471005947E+08,      /* J = 77 */
(PID.TID 0000.0001)                 1.127393720071080E+08,      /* J = 78 */
(PID.TID 0000.0001)      . . .
(PID.TID 0000.0001)                 1.249992603617116E+08,      /* J = 98 */
(PID.TID 0000.0001)                 1.256083805070198E+08,      /* J = 99 */
(PID.TID 0000.0001)                 1.262171180274426E+08       /* J =100 */
(PID.TID 0000.0001)     ;
(PID.TID 0000.0001) globalArea = /* Integrated horizontal Area (m^2) */
(PID.TID 0000.0001)                 4.665024516720074E+11
(PID.TID 0000.0001)     ;
(PID.TID 0000.0001) // =======================================================
(PID.TID 0000.0001) // End of Model config. summary
(PID.TID 0000.0001) // =======================================================
(PID.TID 0000.0001) 
(PID.TID 0000.0001) == Packages configuration : Check & print summary ==
(PID.TID 0000.0001) 
(PID.TID 0000.0001) SHELFICE_CHECK: #define ALLOW_SHELFICE
(PID.TID 0000.0001) CTRL_CHECK: ctrl package
(PID.TID 0000.0001) COST_CHECK: cost package
(PID.TID 0000.0001) GRDCHK_CHECK: grdchk package
(PID.TID 0000.0001) GAD_CHECK: #define ALLOW_GENERIC_ADVDIFF
(PID.TID 0000.0001) // =======================================================
(PID.TID 0000.0001) // Check Model config. (CONFIG_CHECK):
(PID.TID 0000.0001) // CONFIG_CHECK : Normal End
(PID.TID 0000.0001) // =======================================================
(PID.TID 0000.0001) 
(PID.TID 0000.0001)  nRecords = 243 ; filePrec =  64 ; fileIter =      8640
(PID.TID 0000.0001)     nDims =   2 , dims:
(PID.TID 0000.0001)    1:  50   1  50
(PID.TID 0000.0001)    2: 100   1 100
(PID.TID 0000.0001)     nFlds =  11 , nFl3D =   8 , fields:
(PID.TID 0000.0001)  >Uvel    < >Vvel    < >Theta   < >Salt    < >GuNm1   < >GvNm1   < >GtNm1   < >GsNm1   < >EtaN    < >dEtaHdt < >EtaH    <
(PID.TID 0000.0001) missingVal=  1.00000000000000E+00 ; nTimRec =   1 , timeList:
(PID.TID 0000.0001)   1.555200000000E+07
(PID.TID 0000.0001) READ_MFLDS_3D_RL: read field: "Uvel    ", #   1 in fldList, rec=   1
(PID.TID 0000.0001) READ_MFLDS_3D_RL: read field: "Vvel    ", #   2 in fldList, rec=   2
(PID.TID 0000.0001) READ_MFLDS_3D_RL: read field: "Theta   ", #   3 in fldList, rec=   3
(PID.TID 0000.0001) READ_MFLDS_3D_RL: read field: "Salt    ", #   4 in fldList, rec=   4
(PID.TID 0000.0001) READ_MFLDS_3D_RL: read field: "GuNm1   ", #   5 in fldList, rec=   5
(PID.TID 0000.0001) READ_MFLDS_3D_RL: read field: "GvNm1   ", #   6 in fldList, rec=   6
(PID.TID 0000.0001) READ_MFLDS_3D_RL: read field: "GtNm1   ", #   7 in fldList, rec=   7
(PID.TID 0000.0001) READ_MFLDS_3D_RL: read field: "GsNm1   ", #   8 in fldList, rec=   8
(PID.TID 0000.0001) READ_MFLDS_3D_RL: read field: "EtaN    ", #   9 in fldList, rec= 241
(PID.TID 0000.0001) READ_MFLDS_3D_RL: read field: "dEtaHdt ", #  10 in fldList, rec= 242
(PID.TID 0000.0001) READ_MFLDS_3D_RL: read field: "EtaH    ", #  11 in fldList, rec= 243
(PID.TID 0000.0001) READ_MFLDS_CHECK: - normal end ; reset MFLDS file-name: pickup.0000008640
(PID.TID 0000.0001) // =======================================================
(PID.TID 0000.0001) // Begin MONITOR dynamic field statistics
(PID.TID 0000.0001) // =======================================================
(PID.TID 0000.0001) %MON time_tsnumber                =                  8640
(PID.TID 0000.0001) %MON time_secondsf                =   1.5552000000000E+07
(PID.TID 0000.0001) %MON dynstat_eta_max              =   1.1547478263152E-02
(PID.TID 0000.0001) %MON dynstat_eta_min              =  -2.6792518859505E-03
(PID.TID 0000.0001) %MON dynstat_eta_mean             =  -2.8025747994407E-16
(PID.TID 0000.0001) %MON dynstat_eta_sd               =   1.0200397966504E-03
(PID.TID 0000.0001) %MON dynstat_eta_del2             =   2.5371559200346E-05
(PID.TID 0000.0001) %MON dynstat_uvel_max             =   7.0225293882088E-03
(PID.TID 0000.0001) %MON dynstat_uvel_min             =  -1.1431056075099E-02
(PID.TID 0000.0001) %MON dynstat_uvel_mean            =   2.8733073796793E-05
(PID.TID 0000.0001) %MON dynstat_uvel_sd              =   1.1583626065939E-03
(PID.TID 0000.0001) %MON dynstat_uvel_del2            =   1.2791047697505E-06
(PID.TID 0000.0001) %MON dynstat_vvel_max             =   3.9338955473099E-02
(PID.TID 0000.0001) %MON dynstat_vvel_min             =  -1.3256941080851E-02
(PID.TID 0000.0001) %MON dynstat_vvel_mean            =  -9.2488922405085E-08
(PID.TID 0000.0001) %MON dynstat_vvel_sd              =   2.7751519144804E-03
(PID.TID 0000.0001) %MON dynstat_vvel_del2            =   4.9212700380926E-06
(PID.TID 0000.0001) %MON dynstat_wvel_max             =   4.2878246713501E-05
(PID.TID 0000.0001) %MON dynstat_wvel_min             =  -1.2010769874736E-04
(PID.TID 0000.0001) %MON dynstat_wvel_mean            =  -2.4994065928904E-10
(PID.TID 0000.0001) %MON dynstat_wvel_sd              =   4.2032455157767E-06
(PID.TID 0000.0001) %MON dynstat_wvel_del2            =   1.8639167581262E-08
(PID.TID 0000.0001) %MON dynstat_theta_max            =  -1.8364995507330E+00
(PID.TID 0000.0001) %MON dynstat_theta_min            =  -2.0000000000000E+00
(PID.TID 0000.0001) %MON dynstat_theta_mean           =  -1.9142907392762E+00
(PID.TID 0000.0001) %MON dynstat_theta_sd             =   3.1084271484799E-02
(PID.TID 0000.0001) %MON dynstat_theta_del2           =   6.3421694822619E-06
(PID.TID 0000.0001) %MON dynstat_salt_max             =   3.4425235078521E+01
(PID.TID 0000.0001) %MON dynstat_salt_min             =   3.4119681589956E+01
(PID.TID 0000.0001) %MON dynstat_salt_mean            =   3.4391243316095E+01
(PID.TID 0000.0001) %MON dynstat_salt_sd              =   2.3889924168882E-02
(PID.TID 0000.0001) %MON dynstat_salt_del2            =   3.3297324617654E-06
(PID.TID 0000.0001) %MON advcfl_uvel_max              =   3.4012427019763E-03
(PID.TID 0000.0001) %MON advcfl_vvel_max              =   6.3691067728586E-03
(PID.TID 0000.0001) %MON advcfl_wvel_max              =   7.2064619248418E-03
(PID.TID 0000.0001) %MON advcfl_W_hf_max              =   7.2064619248418E-03
(PID.TID 0000.0001) %MON pe_b_mean                    =   8.1423589033282E-09
(PID.TID 0000.0001) %MON ke_max                       =   7.7392672876306E-04
(PID.TID 0000.0001) %MON ke_mean                      =   4.4630698962803E-06
(PID.TID 0000.0001) %MON ke_vol                       =   2.9239970672193E+14
(PID.TID 0000.0001) %MON vort_r_min                   =  -2.3549373278644E-06
(PID.TID 0000.0001) %MON vort_r_max                   =   4.2468259247500E-06
(PID.TID 0000.0001) %MON vort_a_mean                  =  -1.4007197040361E-04
(PID.TID 0000.0001) %MON vort_a_sd                    =   1.7881275277953E-06
(PID.TID 0000.0001) %MON vort_p_mean                  =  -1.5023213240562E-04
(PID.TID 0000.0001) %MON vort_p_sd                    =   7.5278512043545E-05
(PID.TID 0000.0001) %MON surfExpan_theta_mean         =  -7.8766161303357E-23
(PID.TID 0000.0001) %MON surfExpan_salt_mean          =  -2.1702042447947E-11
(PID.TID 0000.0001) // =======================================================
(PID.TID 0000.0001) // End MONITOR dynamic field statistics
(PID.TID 0000.0001) // =======================================================
(PID.TID 0000.0001) SOLVE_FOR_PRESSURE: putPmEinXvector =    F
 cg2d: Sum(rhs),rhsMax =   7.02882196890187E-13  5.97860431289981E-02
(PID.TID 0000.0001)      cg2d_init_res =   5.92331127616910E+00
(PID.TID 0000.0001)      cg2d_iters(min,last) =      -1     208
(PID.TID 0000.0001)      cg2d_last_res =   8.67906716520419E-14
(PID.TID 0000.0001) // =======================================================
(PID.TID 0000.0001) // Begin MONITOR dynamic field statistics
(PID.TID 0000.0001) // =======================================================
(PID.TID 0000.0001) %MON time_tsnumber                =                  8641
(PID.TID 0000.0001) %MON time_secondsf                =   1.5553800000000E+07
(PID.TID 0000.0001) %MON dynstat_eta_max              =   1.1277835806489E-02
(PID.TID 0000.0001) %MON dynstat_eta_min              =  -3.3100274749332E-03
(PID.TID 0000.0001) %MON dynstat_eta_mean             =  -2.8003601333175E-16
(PID.TID 0000.0001) %MON dynstat_eta_sd               =   9.7652378576615E-04
(PID.TID 0000.0001) %MON dynstat_eta_del2             =   8.2685609362194E-06
(PID.TID 0000.0001) %MON dynstat_uvel_max             =   6.9546551411593E-03
(PID.TID 0000.0001) %MON dynstat_uvel_min             =  -1.2109505261735E-02
(PID.TID 0000.0001) %MON dynstat_uvel_mean            =   2.5153644200267E-05
(PID.TID 0000.0001) %MON dynstat_uvel_sd              =   1.1686715425638E-03
(PID.TID 0000.0001) %MON dynstat_uvel_del2            =   1.6836980058922E-06
(PID.TID 0000.0001) %MON dynstat_vvel_max             =   3.9571337511667E-02
(PID.TID 0000.0001) %MON dynstat_vvel_min             =  -1.3257547772188E-02
(PID.TID 0000.0001) %MON dynstat_vvel_mean            =   4.6557943794560E-06
(PID.TID 0000.0001) %MON dynstat_vvel_sd              =   2.7773783645128E-03
(PID.TID 0000.0001) %MON dynstat_vvel_del2            =   4.9154622171643E-06
(PID.TID 0000.0001) %MON dynstat_wvel_max             =   4.6556690295145E-05
(PID.TID 0000.0001) %MON dynstat_wvel_min             =  -1.2002081992161E-04
(PID.TID 0000.0001) %MON dynstat_wvel_mean            =   3.8663726072453E-09
(PID.TID 0000.0001) %MON dynstat_wvel_sd              =   4.1001516809161E-06
(PID.TID 0000.0001) %MON dynstat_wvel_del2            =   1.8108872745437E-08
(PID.TID 0000.0001) %MON dynstat_theta_max            =  -1.8769131970711E+00
(PID.TID 0000.0001) %MON dynstat_theta_min            =  -2.0008048161450E+00
(PID.TID 0000.0001) %MON dynstat_theta_mean           =  -1.9142990556136E+00
(PID.TID 0000.0001) %MON dynstat_theta_sd             =   3.1104912406248E-02
(PID.TID 0000.0001) %MON dynstat_theta_del2           =   6.2916716108986E-06
(PID.TID 0000.0001) %MON dynstat_salt_max             =   3.4409203525563E+01
(PID.TID 0000.0001) %MON dynstat_salt_min             =   3.4119633639539E+01
(PID.TID 0000.0001) %MON dynstat_salt_mean            =   3.4391240319860E+01
(PID.TID 0000.0001) %MON dynstat_salt_sd              =   2.3901820442211E-02
(PID.TID 0000.0001) %MON dynstat_salt_del2            =   3.3324213856051E-06
(PID.TID 0000.0001) %MON advcfl_uvel_max              =   3.6031112195961E-03
(PID.TID 0000.0001) %MON advcfl_vvel_max              =   6.4067301921369E-03
(PID.TID 0000.0001) %MON advcfl_wvel_max              =   7.2012491952965E-03
(PID.TID 0000.0001) %MON advcfl_W_hf_max              =   7.2012491952965E-03
(PID.TID 0000.0001) %MON pe_b_mean                    =  -3.5738018353862E-07
(PID.TID 0000.0001) %MON ke_max                       =   7.7643731152919E-04
(PID.TID 0000.0001) %MON ke_mean                      =   4.4808444981482E-06
(PID.TID 0000.0001) %MON ke_vol                       =   2.9239970672193E+14
(PID.TID 0000.0001) %MON vort_r_min                   =  -2.3577016281599E-06
(PID.TID 0000.0001) %MON vort_r_max                   =   4.2945433831566E-06
(PID.TID 0000.0001) %MON vort_a_mean                  =  -1.4007161344052E-04
(PID.TID 0000.0001) %MON vort_a_sd                    =   1.7877722076025E-06
(PID.TID 0000.0001) %MON vort_p_mean                  =  -1.5023174955087E-04
(PID.TID 0000.0001) %MON vort_p_sd                    =   7.5268862837488E-05
(PID.TID 0000.0001) %MON surfExpan_theta_mean         =   4.5847774941358E-12
(PID.TID 0000.0001) %MON surfExpan_salt_mean          =   1.5717747001845E-09
(PID.TID 0000.0001) // =======================================================
(PID.TID 0000.0001) // End MONITOR dynamic field statistics
(PID.TID 0000.0001) // =======================================================
 cg2d: Sum(rhs),rhsMax =   7.16052217519803E-13  5.85512016059193E-02
(PID.TID 0000.0001)      cg2d_init_res =   8.59749711197672E-02
(PID.TID 0000.0001)      cg2d_iters(min,last) =      -1     199
(PID.TID 0000.0001)      cg2d_last_res =   7.56075598340688E-14
(PID.TID 0000.0001) // =======================================================
(PID.TID 0000.0001) // Begin MONITOR dynamic field statistics
(PID.TID 0000.0001) // =======================================================
(PID.TID 0000.0001) %MON time_tsnumber                =                  8642
(PID.TID 0000.0001) %MON time_secondsf                =   1.5555600000000E+07
(PID.TID 0000.0001) %MON dynstat_eta_max              =   1.1443560325179E-02
(PID.TID 0000.0001) %MON dynstat_eta_min              =  -3.5259236370227E-03
(PID.TID 0000.0001) %MON dynstat_eta_mean             =  -2.7999342359861E-16
(PID.TID 0000.0001) %MON dynstat_eta_sd               =   1.0073329048221E-03
(PID.TID 0000.0001) %MON dynstat_eta_del2             =   8.2966567688745E-06
(PID.TID 0000.0001) %MON dynstat_uvel_max             =   6.9392221796775E-03
(PID.TID 0000.0001) %MON dynstat_uvel_min             =  -1.2349251966153E-02
(PID.TID 0000.0001) %MON dynstat_uvel_mean            =   2.5617814353640E-05
(PID.TID 0000.0001) %MON dynstat_uvel_sd              =   1.1757613736730E-03
(PID.TID 0000.0001) %MON dynstat_uvel_del2            =   1.8725014754067E-06
(PID.TID 0000.0001) %MON dynstat_vvel_max             =   3.9889248017952E-02
(PID.TID 0000.0001) %MON dynstat_vvel_min             =  -1.3257030222935E-02
(PID.TID 0000.0001) %MON dynstat_vvel_mean            =   8.3199807753357E-06
(PID.TID 0000.0001) %MON dynstat_vvel_sd              =   2.7837134858691E-03
(PID.TID 0000.0001) %MON dynstat_vvel_del2            =   4.9142522177098E-06
(PID.TID 0000.0001) %MON dynstat_wvel_max             =   4.6583153960045E-05
(PID.TID 0000.0001) %MON dynstat_wvel_min             =  -1.2002439117939E-04
(PID.TID 0000.0001) %MON dynstat_wvel_mean            =   7.2174512157616E-09
(PID.TID 0000.0001) %MON dynstat_wvel_sd              =   4.0323155092722E-06
(PID.TID 0000.0001) %MON dynstat_wvel_del2            =   1.7560783299967E-08
(PID.TID 0000.0001) %MON dynstat_theta_max            =  -1.8819023929634E+00
(PID.TID 0000.0001) %MON dynstat_theta_min            =  -2.0013242523933E+00
(PID.TID 0000.0001) %MON dynstat_theta_mean           =  -1.9143045846637E+00
(PID.TID 0000.0001) %MON dynstat_theta_sd             =   3.1118973708102E-02
(PID.TID 0000.0001) %MON dynstat_theta_del2           =   6.2636771980236E-06
(PID.TID 0000.0001) %MON dynstat_salt_max             =   3.4407234075250E+01
(PID.TID 0000.0001) %MON dynstat_salt_min             =   3.4119635387289E+01
(PID.TID 0000.0001) %MON dynstat_salt_mean            =   3.4391238319004E+01
(PID.TID 0000.0001) %MON dynstat_salt_sd              =   2.3909518559724E-02
(PID.TID 0000.0001) %MON dynstat_salt_del2            =   3.3333857209157E-06
(PID.TID 0000.0001) %MON advcfl_uvel_max              =   3.6744464246170E-03
(PID.TID 0000.0001) %MON advcfl_vvel_max              =   6.4582009527199E-03
(PID.TID 0000.0001) %MON advcfl_wvel_max              =   7.2014634707635E-03
(PID.TID 0000.0001) %MON advcfl_W_hf_max              =   7.2014634707635E-03
(PID.TID 0000.0001) %MON pe_b_mean                    =  -3.3134612814174E-07
(PID.TID 0000.0001) %MON ke_max                       =   7.8660991391186E-04
(PID.TID 0000.0001) %MON ke_mean                      =   4.5064287033524E-06
(PID.TID 0000.0001) %MON ke_vol                       =   2.9239970672193E+14
(PID.TID 0000.0001) %MON vort_r_min                   =  -2.3607308086939E-06
(PID.TID 0000.0001) %MON vort_r_max                   =   4.3418869760834E-06
(PID.TID 0000.0001) %MON vort_a_mean                  =  -1.4007161342166E-04
(PID.TID 0000.0001) %MON vort_a_sd                    =   1.7878691318675E-06
(PID.TID 0000.0001) %MON vort_p_mean                  =  -1.5023175000278E-04
(PID.TID 0000.0001) %MON vort_p_sd                    =   7.5270554919640E-05
(PID.TID 0000.0001) %MON surfExpan_theta_mean         =   1.1668914922618E-11
(PID.TID 0000.0001) %MON surfExpan_salt_mean          =   1.6189098233985E-09
(PID.TID 0000.0001) // =======================================================
(PID.TID 0000.0001) // End MONITOR dynamic field statistics
(PID.TID 0000.0001) // =======================================================
 cg2d: Sum(rhs),rhsMax =   7.15566494946529E-13  5.84775718224191E-02
(PID.TID 0000.0001)      cg2d_init_res =   4.21215260564170E-02
(PID.TID 0000.0001)      cg2d_iters(min,last) =      -1     199
(PID.TID 0000.0001)      cg2d_last_res =   8.28897326088107E-14
(PID.TID 0000.0001) // =======================================================
(PID.TID 0000.0001) // Begin MONITOR dynamic field statistics
(PID.TID 0000.0001) // =======================================================
(PID.TID 0000.0001) %MON time_tsnumber                =                  8643
(PID.TID 0000.0001) %MON time_secondsf                =   1.5557400000000E+07
(PID.TID 0000.0001) %MON dynstat_eta_max              =   1.1515575235143E-02
(PID.TID 0000.0001) %MON dynstat_eta_min              =  -3.6552399596993E-03
(PID.TID 0000.0001) %MON dynstat_eta_mean             =  -2.8001897743849E-16
(PID.TID 0000.0001) %MON dynstat_eta_sd               =   1.0180741104570E-03
(PID.TID 0000.0001) %MON dynstat_eta_del2             =   8.2841693657505E-06
(PID.TID 0000.0001) %MON dynstat_uvel_max             =   6.9300388558142E-03
(PID.TID 0000.0001) %MON dynstat_uvel_min             =  -1.2558291408319E-02
(PID.TID 0000.0001) %MON dynstat_uvel_mean            =   2.7278690833788E-05
(PID.TID 0000.0001) %MON dynstat_uvel_sd              =   1.1848875337567E-03
(PID.TID 0000.0001) %MON dynstat_uvel_del2            =   2.0064665264197E-06
(PID.TID 0000.0001) %MON dynstat_vvel_max             =   4.0227651152954E-02
(PID.TID 0000.0001) %MON dynstat_vvel_min             =  -1.3254981355014E-02
(PID.TID 0000.0001) %MON dynstat_vvel_mean            =   1.1333942858652E-05
(PID.TID 0000.0001) %MON dynstat_vvel_sd              =   2.7899845450792E-03
(PID.TID 0000.0001) %MON dynstat_vvel_del2            =   4.9136021076747E-06
(PID.TID 0000.0001) %MON dynstat_wvel_max             =   4.6976889507094E-05
(PID.TID 0000.0001) %MON dynstat_wvel_min             =  -1.2010271054682E-04
(PID.TID 0000.0001) %MON dynstat_wvel_mean            =   8.0351497328263E-09
(PID.TID 0000.0001) %MON dynstat_wvel_sd              =   4.0039091094093E-06
(PID.TID 0000.0001) %MON dynstat_wvel_del2            =   1.7346508623117E-08
(PID.TID 0000.0001) %MON dynstat_theta_max            =  -1.8848535053348E+00
(PID.TID 0000.0001) %MON dynstat_theta_min            =  -2.0018432364575E+00
(PID.TID 0000.0001) %MON dynstat_theta_mean           =  -1.9143101100642E+00
(PID.TID 0000.0001) %MON dynstat_theta_sd             =   3.1133077697375E-02
(PID.TID 0000.0001) %MON dynstat_theta_del2           =   6.2365723362110E-06
(PID.TID 0000.0001) %MON dynstat_salt_max             =   3.4406074126180E+01
(PID.TID 0000.0001) %MON dynstat_salt_min             =   3.4119635366100E+01
(PID.TID 0000.0001) %MON dynstat_salt_mean            =   3.4391236319342E+01
(PID.TID 0000.0001) %MON dynstat_salt_sd              =   2.3917233943371E-02
(PID.TID 0000.0001) %MON dynstat_salt_del2            =   3.3340460895936E-06
(PID.TID 0000.0001) %MON advcfl_uvel_max              =   3.7366448665128E-03
(PID.TID 0000.0001) %MON advcfl_vvel_max              =   6.5129895375510E-03
(PID.TID 0000.0001) %MON advcfl_wvel_max              =   7.2061626328093E-03
(PID.TID 0000.0001) %MON advcfl_W_hf_max              =   7.2061626328093E-03
(PID.TID 0000.0001) %MON pe_b_mean                    =  -2.8590887378991E-07
(PID.TID 0000.0001) %MON ke_max                       =   7.9870422983971E-04
(PID.TID 0000.0001) %MON ke_mean                      =   4.5343239959584E-06
(PID.TID 0000.0001) %MON ke_vol                       =   2.9239970672193E+14
(PID.TID 0000.0001) %MON vort_r_min                   =  -2.3686839859983E-06
(PID.TID 0000.0001) %MON vort_r_max                   =   4.3806808055641E-06
(PID.TID 0000.0001) %MON vort_a_mean                  =  -1.4007161343369E-04
(PID.TID 0000.0001) %MON vort_a_sd                    =   1.7879378270994E-06
(PID.TID 0000.0001) %MON vort_p_mean                  =  -1.5023175015766E-04
(PID.TID 0000.0001) %MON vort_p_sd                    =   7.5270170815725E-05
(PID.TID 0000.0001) %MON surfExpan_theta_mean         =   1.7588722358857E-11
(PID.TID 0000.0001) %MON surfExpan_salt_mean          =   1.6721995445670E-09
(PID.TID 0000.0001) // =======================================================
(PID.TID 0000.0001) // End MONITOR dynamic field statistics
(PID.TID 0000.0001) // =======================================================
 cg2d: Sum(rhs),rhsMax =   7.15150161312295E-13  5.84638541698855E-02
(PID.TID 0000.0001)      cg2d_init_res =   3.97390638474365E-02
(PID.TID 0000.0001)      cg2d_iters(min,last) =      -1     198
(PID.TID 0000.0001)      cg2d_last_res =   8.57474580342111E-14
(PID.TID 0000.0001) // =======================================================
(PID.TID 0000.0001) // Begin MONITOR dynamic field statistics
(PID.TID 0000.0001) // =======================================================
(PID.TID 0000.0001) %MON time_tsnumber                =                  8644
(PID.TID 0000.0001) %MON time_secondsf                =   1.5559200000000E+07
(PID.TID 0000.0001) %MON dynstat_eta_max              =   1.1484202671805E-02
(PID.TID 0000.0001) %MON dynstat_eta_min              =  -3.6775616203209E-03
(PID.TID 0000.0001) %MON dynstat_eta_mean             =  -2.7989972618571E-16
(PID.TID 0000.0001) %MON dynstat_eta_sd               =   1.0148363488136E-03
(PID.TID 0000.0001) %MON dynstat_eta_del2             =   8.2847844175067E-06
(PID.TID 0000.0001) %MON dynstat_uvel_max             =   6.9284818964968E-03
(PID.TID 0000.0001) %MON dynstat_uvel_min             =  -1.2735383365118E-02
(PID.TID 0000.0001) %MON dynstat_uvel_mean            =   2.8792270326224E-05
(PID.TID 0000.0001) %MON dynstat_uvel_sd              =   1.1960651261298E-03
(PID.TID 0000.0001) %MON dynstat_uvel_del2            =   2.0685244971843E-06
(PID.TID 0000.0001) %MON dynstat_vvel_max             =   4.0558569574958E-02
(PID.TID 0000.0001) %MON dynstat_vvel_min             =  -1.3263987898135E-02
(PID.TID 0000.0001) %MON dynstat_vvel_mean            =   1.3423170473469E-05
(PID.TID 0000.0001) %MON dynstat_vvel_sd              =   2.7956726877967E-03
(PID.TID 0000.0001) %MON dynstat_vvel_del2            =   4.9136987541467E-06
(PID.TID 0000.0001) %MON dynstat_wvel_max             =   4.7398749029225E-05
(PID.TID 0000.0001) %MON dynstat_wvel_min             =  -1.2024872225022E-04
(PID.TID 0000.0001) %MON dynstat_wvel_mean            =   7.6245808419558E-09
(PID.TID 0000.0001) %MON dynstat_wvel_sd              =   4.0048182946423E-06
(PID.TID 0000.0001) %MON dynstat_wvel_del2            =   1.7328731022265E-08
(PID.TID 0000.0001) %MON dynstat_theta_max            =  -1.8867202566955E+00
(PID.TID 0000.0001) %MON dynstat_theta_min            =  -2.0023615791817E+00
(PID.TID 0000.0001) %MON dynstat_theta_mean           =  -1.9143156298738E+00
(PID.TID 0000.0001) %MON dynstat_theta_sd             =   3.1147206472419E-02
(PID.TID 0000.0001) %MON dynstat_theta_del2           =   6.2101466423267E-06
(PID.TID 0000.0001) %MON dynstat_salt_max             =   3.4405345019995E+01
(PID.TID 0000.0001) %MON dynstat_salt_min             =   3.4119636222590E+01
(PID.TID 0000.0001) %MON dynstat_salt_mean            =   3.4391234322469E+01
(PID.TID 0000.0001) %MON dynstat_salt_sd              =   2.3924941129500E-02
(PID.TID 0000.0001) %MON dynstat_salt_del2            =   3.3347098811305E-06
(PID.TID 0000.0001) %MON advcfl_uvel_max              =   3.7893375242764E-03
(PID.TID 0000.0001) %MON advcfl_vvel_max              =   6.5665663226359E-03
(PID.TID 0000.0001) %MON advcfl_wvel_max              =   7.2149233350133E-03
(PID.TID 0000.0001) %MON advcfl_W_hf_max              =   7.2149233350133E-03
(PID.TID 0000.0001) %MON pe_b_mean                    =  -2.3196994834856E-07
(PID.TID 0000.0001) %MON ke_max                       =   8.1155562320571E-04
(PID.TID 0000.0001) %MON ke_mean                      =   4.5631254259375E-06
(PID.TID 0000.0001) %MON ke_vol                       =   2.9239970672193E+14
(PID.TID 0000.0001) %MON vort_r_min                   =  -2.3719468881892E-06
(PID.TID 0000.0001) %MON vort_r_max                   =   4.4116172691895E-06
(PID.TID 0000.0001) %MON vort_a_mean                  =  -1.4007161358948E-04
(PID.TID 0000.0001) %MON vort_a_sd                    =   1.7879711502940E-06
(PID.TID 0000.0001) %MON vort_p_mean                  =  -1.5023175041105E-04
(PID.TID 0000.0001) %MON vort_p_sd                    =   7.5269976571233E-05
(PID.TID 0000.0001) %MON surfExpan_theta_mean         =   2.0935612663538E-11
(PID.TID 0000.0001) %MON surfExpan_salt_mean          =   1.5271056241235E-09
(PID.TID 0000.0001) // =======================================================
(PID.TID 0000.0001) // End MONITOR dynamic field statistics
(PID.TID 0000.0001) // =======================================================
 cg2d: Sum(rhs),rhsMax =   7.19493908896141E-13  5.84151859419040E-02
(PID.TID 0000.0001)      cg2d_init_res =   3.94327734979362E-02
(PID.TID 0000.0001)      cg2d_iters(min,last) =      -1     196
(PID.TID 0000.0001)      cg2d_last_res =   8.76585595677815E-14
(PID.TID 0000.0001) // =======================================================
(PID.TID 0000.0001) // Begin MONITOR dynamic field statistics
(PID.TID 0000.0001) // =======================================================
(PID.TID 0000.0001) %MON time_tsnumber                =                  8645
(PID.TID 0000.0001) %MON time_secondsf                =   1.5561000000000E+07
(PID.TID 0000.0001) %MON dynstat_eta_max              =   1.1382748751734E-02
(PID.TID 0000.0001) %MON dynstat_eta_min              =  -3.6398541886202E-03
(PID.TID 0000.0001) %MON dynstat_eta_mean             =  -2.7993805694553E-16
(PID.TID 0000.0001) %MON dynstat_eta_sd               =   1.0046728299810E-03
(PID.TID 0000.0001) %MON dynstat_eta_del2             =   8.2866367322487E-06
(PID.TID 0000.0001) %MON dynstat_uvel_max             =   6.9343373817381E-03
(PID.TID 0000.0001) %MON dynstat_uvel_min             =  -1.2878972925888E-02
(PID.TID 0000.0001) %MON dynstat_uvel_mean            =   2.9626746404076E-05
(PID.TID 0000.0001) %MON dynstat_uvel_sd              =   1.2084468951072E-03
(PID.TID 0000.0001) %MON dynstat_uvel_del2            =   2.0580438179924E-06
(PID.TID 0000.0001) %MON dynstat_vvel_max             =   4.0880222207553E-02
(PID.TID 0000.0001) %MON dynstat_vvel_min             =  -1.3279358123325E-02
(PID.TID 0000.0001) %MON dynstat_vvel_mean            =   1.4142741607495E-05
(PID.TID 0000.0001) %MON dynstat_vvel_sd              =   2.8005768226596E-03
(PID.TID 0000.0001) %MON dynstat_vvel_del2            =   4.9145859137374E-06
(PID.TID 0000.0001) %MON dynstat_wvel_max             =   4.7853741513522E-05
(PID.TID 0000.0001) %MON dynstat_wvel_min             =  -1.2044417131643E-04
(PID.TID 0000.0001) %MON dynstat_wvel_mean            =   6.4258943260990E-09
(PID.TID 0000.0001) %MON dynstat_wvel_sd              =   4.0300097927075E-06
(PID.TID 0000.0001) %MON dynstat_wvel_del2            =   1.7479115994083E-08
(PID.TID 0000.0001) %MON dynstat_theta_max            =  -1.8880327129899E+00
(PID.TID 0000.0001) %MON dynstat_theta_min            =  -2.0028792768663E+00
(PID.TID 0000.0001) %MON dynstat_theta_mean           =  -1.9143211440930E+00
(PID.TID 0000.0001) %MON dynstat_theta_sd             =   3.1161354648281E-02
(PID.TID 0000.0001) %MON dynstat_theta_del2           =   6.1842965661424E-06
(PID.TID 0000.0001) %MON dynstat_salt_max             =   3.4404835984571E+01
(PID.TID 0000.0001) %MON dynstat_salt_min             =   3.4119637932087E+01
(PID.TID 0000.0001) %MON dynstat_salt_mean            =   3.4391232328074E+01
(PID.TID 0000.0001) %MON dynstat_salt_sd              =   2.3932639419015E-02
(PID.TID 0000.0001) %MON dynstat_salt_del2            =   3.3355105737135E-06
(PID.TID 0000.0001) %MON advcfl_uvel_max              =   3.8320617434946E-03
(PID.TID 0000.0001) %MON advcfl_vvel_max              =   6.6186429458234E-03
(PID.TID 0000.0001) %MON advcfl_wvel_max              =   7.2266502789858E-03
(PID.TID 0000.0001) %MON advcfl_W_hf_max              =   7.2266502789858E-03
(PID.TID 0000.0001) %MON pe_b_mean                    =  -1.7981034454499E-07
(PID.TID 0000.0001) %MON ke_max                       =   8.2451757958303E-04
(PID.TID 0000.0001) %MON ke_mean                      =   4.5913023877113E-06
(PID.TID 0000.0001) %MON ke_vol                       =   2.9239970672193E+14
(PID.TID 0000.0001) %MON vort_r_min                   =  -2.3692662747251E-06
(PID.TID 0000.0001) %MON vort_r_max                   =   4.4342033065194E-06
(PID.TID 0000.0001) %MON vort_a_mean                  =  -1.4007161401732E-04
(PID.TID 0000.0001) %MON vort_a_sd                    =   1.7879711588787E-06
(PID.TID 0000.0001) %MON vort_p_mean                  =  -1.5023175093303E-04
(PID.TID 0000.0001) %MON vort_p_sd                    =   7.5269969725085E-05
(PID.TID 0000.0001) %MON surfExpan_theta_mean         =   2.1151740476084E-11
(PID.TID 0000.0001) %MON surfExpan_salt_mean          =   1.2512049213775E-09
(PID.TID 0000.0001) // =======================================================
(PID.TID 0000.0001) // End MONITOR dynamic field statistics
(PID.TID 0000.0001) // =======================================================
 cg2d: Sum(rhs),rhsMax =   7.19049819686290E-13  5.83794365282063E-02
(PID.TID 0000.0001)      cg2d_init_res =   3.86881752298460E-02
(PID.TID 0000.0001)      cg2d_iters(min,last) =      -1     193
(PID.TID 0000.0001)      cg2d_last_res =   9.39922300524594E-14
(PID.TID 0000.0001) // =======================================================
(PID.TID 0000.0001) // Begin MONITOR dynamic field statistics
(PID.TID 0000.0001) // =======================================================
(PID.TID 0000.0001) %MON time_tsnumber                =                  8646
(PID.TID 0000.0001) %MON time_secondsf                =   1.5562800000000E+07
(PID.TID 0000.0001) %MON dynstat_eta_max              =   1.1267041720454E-02
(PID.TID 0000.0001) %MON dynstat_eta_min              =  -3.5757461085948E-03
(PID.TID 0000.0001) %MON dynstat_eta_mean             =  -2.7998916462530E-16
(PID.TID 0000.0001) %MON dynstat_eta_sd               =   9.9349710872939E-04
(PID.TID 0000.0001) %MON dynstat_eta_del2             =   8.2888034771687E-06
(PID.TID 0000.0001) %MON dynstat_uvel_max             =   6.9469353230397E-03
(PID.TID 0000.0001) %MON dynstat_uvel_min             =  -1.2970449707053E-02
(PID.TID 0000.0001) %MON dynstat_uvel_mean            =   2.9909935915635E-05
(PID.TID 0000.0001) %MON dynstat_uvel_sd              =   1.2212446250487E-03
(PID.TID 0000.0001) %MON dynstat_uvel_del2            =   1.9872812321666E-06
(PID.TID 0000.0001) %MON dynstat_vvel_max             =   4.1170780423104E-02
(PID.TID 0000.0001) %MON dynstat_vvel_min             =  -1.3296270022230E-02
(PID.TID 0000.0001) %MON dynstat_vvel_mean            =   1.3201431355322E-05
(PID.TID 0000.0001) %MON dynstat_vvel_sd              =   2.8046311898305E-03
(PID.TID 0000.0001) %MON dynstat_vvel_del2            =   4.9163107843856E-06
(PID.TID 0000.0001) %MON dynstat_wvel_max             =   4.8321151709980E-05
(PID.TID 0000.0001) %MON dynstat_wvel_min             =  -1.2066800029056E-04
(PID.TID 0000.0001) %MON dynstat_wvel_mean            =   4.8246931778101E-09
(PID.TID 0000.0001) %MON dynstat_wvel_sd              =   4.0757020823692E-06
(PID.TID 0000.0001) %MON dynstat_wvel_del2            =   1.7769437546175E-08
(PID.TID 0000.0001) %MON dynstat_theta_max            =  -1.8889940988158E+00
(PID.TID 0000.0001) %MON dynstat_theta_min            =  -2.0033963288793E+00
(PID.TID 0000.0001) %MON dynstat_theta_mean           =  -1.9143266527281E+00
(PID.TID 0000.0001) %MON dynstat_theta_sd             =   3.1175519835581E-02
(PID.TID 0000.0001) %MON dynstat_theta_del2           =   6.1589567648552E-06
(PID.TID 0000.0001) %MON dynstat_salt_max             =   3.4404466085931E+01
(PID.TID 0000.0001) %MON dynstat_salt_min             =   3.4119639550207E+01
(PID.TID 0000.0001) %MON dynstat_salt_mean            =   3.4391230335821E+01
(PID.TID 0000.0001) %MON dynstat_salt_sd              =   2.3940329596436E-02
(PID.TID 0000.0001) %MON dynstat_salt_del2            =   3.3364859919297E-06
(PID.TID 0000.0001) %MON advcfl_uvel_max              =   3.8592801152964E-03
(PID.TID 0000.0001) %MON advcfl_vvel_max              =   6.6656852802302E-03
(PID.TID 0000.0001) %MON advcfl_wvel_max              =   7.2400800174337E-03
(PID.TID 0000.0001) %MON advcfl_W_hf_max              =   7.2400800174337E-03
(PID.TID 0000.0001) %MON pe_b_mean                    =  -1.3636975699375E-07
(PID.TID 0000.0001) %MON ke_max                       =   8.3699257192159E-04
(PID.TID 0000.0001) %MON ke_mean                      =   4.6177570789145E-06
(PID.TID 0000.0001) %MON ke_vol                       =   2.9239970672193E+14
(PID.TID 0000.0001) %MON vort_r_min                   =  -2.3630503969748E-06
(PID.TID 0000.0001) %MON vort_r_max                   =   4.4484911840496E-06
(PID.TID 0000.0001) %MON vort_a_mean                  =  -1.4007161475628E-04
(PID.TID 0000.0001) %MON vort_a_sd                    =   1.7879477508807E-06
(PID.TID 0000.0001) %MON vort_p_mean                  =  -1.5023175177269E-04
(PID.TID 0000.0001) %MON vort_p_sd                    =   7.5270126314380E-05
(PID.TID 0000.0001) %MON surfExpan_theta_mean         =   1.8466625062117E-11
(PID.TID 0000.0001) %MON surfExpan_salt_mean          =   9.1741503758641E-10
(PID.TID 0000.0001) // =======================================================
(PID.TID 0000.0001) // End MONITOR dynamic field statistics
(PID.TID 0000.0001) // =======================================================
 cg2d: Sum(rhs),rhsMax =   7.20326576164609E-13  5.84375370712857E-02
(PID.TID 0000.0001)      cg2d_init_res =   3.78831418981526E-02
(PID.TID 0000.0001)      cg2d_iters(min,last) =      -1     195
(PID.TID 0000.0001)      cg2d_last_res =   7.25064346184693E-14
(PID.TID 0000.0001) // =======================================================
(PID.TID 0000.0001) // Begin MONITOR dynamic field statistics
(PID.TID 0000.0001) // =======================================================
(PID.TID 0000.0001) %MON time_tsnumber                =                  8647
(PID.TID 0000.0001) %MON time_secondsf                =   1.5564600000000E+07
(PID.TID 0000.0001) %MON dynstat_eta_max              =   1.1172006155638E-02
(PID.TID 0000.0001) %MON dynstat_eta_min              =  -3.5028591977687E-03
(PID.TID 0000.0001) %MON dynstat_eta_mean             =  -2.7997638770536E-16
(PID.TID 0000.0001) %MON dynstat_eta_sd               =   9.8399373845981E-04
(PID.TID 0000.0001) %MON dynstat_eta_del2             =   8.2908605747240E-06
(PID.TID 0000.0001) %MON dynstat_uvel_max             =   6.9653103454597E-03
(PID.TID 0000.0001) %MON dynstat_uvel_min             =  -1.3006432378063E-02
(PID.TID 0000.0001) %MON dynstat_uvel_mean            =   3.0007696598695E-05
(PID.TID 0000.0001) %MON dynstat_uvel_sd              =   1.2338746344756E-03
(PID.TID 0000.0001) %MON dynstat_uvel_del2            =   1.8779373539930E-06
(PID.TID 0000.0001) %MON dynstat_vvel_max             =   4.1414133314619E-02
(PID.TID 0000.0001) %MON dynstat_vvel_min             =  -1.3310847254637E-02
(PID.TID 0000.0001) %MON dynstat_vvel_mean            =   1.0686122301283E-05
(PID.TID 0000.0001) %MON dynstat_vvel_sd              =   2.8078268174414E-03
(PID.TID 0000.0001) %MON dynstat_vvel_del2            =   4.9189109983037E-06
(PID.TID 0000.0001) %MON dynstat_wvel_max             =   4.8762513652254E-05
(PID.TID 0000.0001) %MON dynstat_wvel_min             =  -1.2090139133221E-04
(PID.TID 0000.0001) %MON dynstat_wvel_mean            =   3.1322877373076E-09
(PID.TID 0000.0001) %MON dynstat_wvel_sd              =   4.1388444193514E-06
(PID.TID 0000.0001) %MON dynstat_wvel_del2            =   1.8169513828399E-08
(PID.TID 0000.0001) %MON dynstat_theta_max            =  -1.8897089255290E+00
(PID.TID 0000.0001) %MON dynstat_theta_min            =  -2.0039127391648E+00
(PID.TID 0000.0001) %MON dynstat_theta_mean           =  -1.9143321557899E+00
(PID.TID 0000.0001) %MON dynstat_theta_sd             =   3.1189700734962E-02
(PID.TID 0000.0001) %MON dynstat_theta_del2           =   6.1340815765468E-06
(PID.TID 0000.0001) %MON dynstat_salt_max             =   3.4404193619641E+01
(PID.TID 0000.0001) %MON dynstat_salt_min             =   3.4119640278980E+01
(PID.TID 0000.0001) %MON dynstat_salt_mean            =   3.4391228345459E+01
(PID.TID 0000.0001) %MON dynstat_salt_sd              =   2.3948012314948E-02
(PID.TID 0000.0001) %MON dynstat_salt_del2            =   3.3376613661902E-06
(PID.TID 0000.0001) %MON advcfl_uvel_max              =   3.8699865449005E-03
(PID.TID 0000.0001) %MON advcfl_vvel_max              =   6.7050849168221E-03
(PID.TID 0000.0001) %MON advcfl_wvel_max              =   7.2540834799324E-03
(PID.TID 0000.0001) %MON advcfl_W_hf_max              =   7.2540834799324E-03
(PID.TID 0000.0001) %MON pe_b_mean                    =  -1.0511753164467E-07
(PID.TID 0000.0001) %MON ke_max                       =   8.4837757783069E-04
(PID.TID 0000.0001) %MON ke_mean                      =   4.6417801541934E-06
(PID.TID 0000.0001) %MON ke_vol                       =   2.9239970672193E+14
(PID.TID 0000.0001) %MON vort_r_min                   =  -2.3619082805327E-06
(PID.TID 0000.0001) %MON vort_r_max                   =   4.4547141314303E-06
(PID.TID 0000.0001) %MON vort_a_mean                  =  -1.4007161568930E-04
(PID.TID 0000.0001) %MON vort_a_sd                    =   1.7879141899247E-06
(PID.TID 0000.0001) %MON vort_p_mean                  =  -1.5023175281446E-04
(PID.TID 0000.0001) %MON vort_p_sd                    =   7.5270427884365E-05
(PID.TID 0000.0001) %MON surfExpan_theta_mean         =   1.3605866844917E-11
(PID.TID 0000.0001) %MON surfExpan_salt_mean          =   5.7994128954001E-10
(PID.TID 0000.0001) // =======================================================
(PID.TID 0000.0001) // End MONITOR dynamic field statistics
(PID.TID 0000.0001) // =======================================================
 cg2d: Sum(rhs),rhsMax =   7.16818965296184E-13  5.85071211612610E-02
(PID.TID 0000.0001)      cg2d_init_res =   3.72895161472661E-02
(PID.TID 0000.0001)      cg2d_iters(min,last) =      -1     195
(PID.TID 0000.0001)      cg2d_last_res =   9.24658368836103E-14
(PID.TID 0000.0001) // =======================================================
(PID.TID 0000.0001) // Begin MONITOR dynamic field statistics
(PID.TID 0000.0001) // =======================================================
(PID.TID 0000.0001) %MON time_tsnumber                =                  8648
(PID.TID 0000.0001) %MON time_secondsf                =   1.5566400000000E+07
(PID.TID 0000.0001) %MON dynstat_eta_max              =   1.1101205367758E-02
(PID.TID 0000.0001) %MON dynstat_eta_min              =  -3.4231759307416E-03
(PID.TID 0000.0001) %MON dynstat_eta_mean             =  -2.7988588452244E-16
(PID.TID 0000.0001) %MON dynstat_eta_sd               =   9.7645331547424E-04
(PID.TID 0000.0001) %MON dynstat_eta_del2             =   8.2925808422249E-06
(PID.TID 0000.0001) %MON dynstat_uvel_max             =   6.9882018303142E-03
(PID.TID 0000.0001) %MON dynstat_uvel_min             =  -1.2987594864292E-02
(PID.TID 0000.0001) %MON dynstat_uvel_mean            =   3.0158914074633E-05
(PID.TID 0000.0001) %MON dynstat_uvel_sd              =   1.2459315852405E-03
(PID.TID 0000.0001) %MON dynstat_uvel_del2            =   1.7586280402043E-06
(PID.TID 0000.0001) %MON dynstat_vvel_max             =   4.1600205478252E-02
(PID.TID 0000.0001) %MON dynstat_vvel_min             =  -1.3321132482005E-02
(PID.TID 0000.0001) %MON dynstat_vvel_mean            =   7.0492707079298E-06
(PID.TID 0000.0001) %MON dynstat_vvel_sd              =   2.8101656021641E-03
(PID.TID 0000.0001) %MON dynstat_vvel_del2            =   4.9223906344806E-06
(PID.TID 0000.0001) %MON dynstat_wvel_max             =   4.9142917728826E-05
(PID.TID 0000.0001) %MON dynstat_wvel_min             =  -1.2112946243027E-04
(PID.TID 0000.0001) %MON dynstat_wvel_mean            =   1.5520820110345E-09
(PID.TID 0000.0001) %MON dynstat_wvel_sd              =   4.2163643547711E-06
(PID.TID 0000.0001) %MON dynstat_wvel_del2            =   1.8646157208137E-08
(PID.TID 0000.0001) %MON dynstat_theta_max            =  -1.8902435266439E+00
(PID.TID 0000.0001) %MON dynstat_theta_min            =  -2.0044285142227E+00
(PID.TID 0000.0001) %MON dynstat_theta_mean           =  -1.9143376532902E+00
(PID.TID 0000.0001) %MON dynstat_theta_sd             =   3.1203896561969E-02
(PID.TID 0000.0001) %MON dynstat_theta_del2           =   6.1096403549372E-06
(PID.TID 0000.0001) %MON dynstat_salt_max             =   3.4403992064228E+01
(PID.TID 0000.0001) %MON dynstat_salt_min             =   3.4119639554463E+01
(PID.TID 0000.0001) %MON dynstat_salt_mean            =   3.4391226356834E+01
(PID.TID 0000.0001) %MON dynstat_salt_sd              =   2.3955687935382E-02
(PID.TID 0000.0001) %MON dynstat_salt_del2            =   3.3390501391515E-06
(PID.TID 0000.0001) %MON advcfl_uvel_max              =   3.8643815547916E-03
(PID.TID 0000.0001) %MON advcfl_vvel_max              =   6.7352106144513E-03
(PID.TID 0000.0001) %MON advcfl_wvel_max              =   7.2677677458163E-03
(PID.TID 0000.0001) %MON advcfl_W_hf_max              =   7.2677677458163E-03
(PID.TID 0000.0001) %MON pe_b_mean                    =  -8.6910366332535E-08
(PID.TID 0000.0001) %MON ke_max                       =   8.5809859047472E-04
(PID.TID 0000.0001) %MON ke_mean                      =   4.6628894863143E-06
(PID.TID 0000.0001) %MON ke_vol                       =   2.9239970672193E+14
(PID.TID 0000.0001) %MON vort_r_min                   =  -2.3604092638126E-06
(PID.TID 0000.0001) %MON vort_r_max                   =   4.4532946729912E-06
(PID.TID 0000.0001) %MON vort_a_mean                  =  -1.4007161656959E-04
(PID.TID 0000.0001) %MON vort_a_sd                    =   1.7878830438315E-06
(PID.TID 0000.0001) %MON vort_p_mean                  =  -1.5023175379958E-04
(PID.TID 0000.0001) %MON vort_p_sd                    =   7.5270846205044E-05
(PID.TID 0000.0001) %MON surfExpan_theta_mean         =   7.4330539765445E-12
(PID.TID 0000.0001) %MON surfExpan_salt_mean          =   2.7177635060349E-10
(PID.TID 0000.0001) // =======================================================
(PID.TID 0000.0001) // End MONITOR dynamic field statistics
(PID.TID 0000.0001) // =======================================================
 cg2d: Sum(rhs),rhsMax =   7.14150960590132E-13  5.85886574235361E-02
(PID.TID 0000.0001)      cg2d_init_res =   3.69466781347672E-02
(PID.TID 0000.0001)      cg2d_iters(min,last) =      -1     195
(PID.TID 0000.0001)      cg2d_last_res =   8.49136929867847E-14
(PID.TID 0000.0001) // =======================================================
(PID.TID 0000.0001) // Begin MONITOR dynamic field statistics
(PID.TID 0000.0001) // =======================================================
(PID.TID 0000.0001) %MON time_tsnumber                =                  8649
(PID.TID 0000.0001) %MON time_secondsf                =   1.5568200000000E+07
(PID.TID 0000.0001) %MON dynstat_eta_max              =   1.1052552296648E-02
(PID.TID 0000.0001) %MON dynstat_eta_min              =  -3.3336764691301E-03
(PID.TID 0000.0001) %MON dynstat_eta_mean             =  -2.7997319347537E-16
(PID.TID 0000.0001) %MON dynstat_eta_sd               =   9.7017626590732E-04
(PID.TID 0000.0001) %MON dynstat_eta_del2             =   8.2939108812443E-06
(PID.TID 0000.0001) %MON dynstat_uvel_max             =   7.0140870726500E-03
(PID.TID 0000.0001) %MON dynstat_uvel_min             =  -1.2918975920594E-02
(PID.TID 0000.0001) %MON dynstat_uvel_mean            =   3.0372511347552E-05
(PID.TID 0000.0001) %MON dynstat_uvel_sd              =   1.2570718948486E-03
(PID.TID 0000.0001) %MON dynstat_uvel_del2            =   1.6604023522744E-06
(PID.TID 0000.0001) %MON dynstat_vvel_max             =   4.1722317483801E-02
(PID.TID 0000.0001) %MON dynstat_vvel_min             =  -1.3326719449306E-02
(PID.TID 0000.0001) %MON dynstat_vvel_mean            =   2.9317356631575E-06
(PID.TID 0000.0001) %MON dynstat_vvel_sd              =   2.8116703907779E-03
(PID.TID 0000.0001) %MON dynstat_vvel_del2            =   4.9266893129456E-06
(PID.TID 0000.0001) %MON dynstat_wvel_max             =   4.9439464647443E-05
(PID.TID 0000.0001) %MON dynstat_wvel_min             =  -1.2134012432664E-04
(PID.TID 0000.0001) %MON dynstat_wvel_mean            =   1.7268157880137E-10
(PID.TID 0000.0001) %MON dynstat_wvel_sd              =   4.3043811880254E-06
(PID.TID 0000.0001) %MON dynstat_wvel_del2            =   1.9163172637910E-08
(PID.TID 0000.0001) %MON dynstat_theta_max            =  -1.8906445997195E+00
(PID.TID 0000.0001) %MON dynstat_theta_min            =  -2.0049436602717E+00
(PID.TID 0000.0001) %MON dynstat_theta_mean           =  -1.9143431452400E+00
(PID.TID 0000.0001) %MON dynstat_theta_sd             =   3.1218106800668E-02
(PID.TID 0000.0001) %MON dynstat_theta_del2           =   6.0856159339292E-06
(PID.TID 0000.0001) %MON dynstat_salt_max             =   3.4403842722973E+01
(PID.TID 0000.0001) %MON dynstat_salt_min             =   3.4119636956501E+01
(PID.TID 0000.0001) %MON dynstat_salt_mean            =   3.4391224369887E+01
(PID.TID 0000.0001) %MON dynstat_salt_sd              =   2.3963356493154E-02
(PID.TID 0000.0001) %MON dynstat_salt_del2            =   3.3406535755437E-06
(PID.TID 0000.0001) %MON advcfl_uvel_max              =   3.8439643964871E-03
(PID.TID 0000.0001) %MON advcfl_vvel_max              =   6.7549809513157E-03
(PID.TID 0000.0001) %MON advcfl_wvel_max              =   7.2804074595984E-03
(PID.TID 0000.0001) %MON advcfl_W_hf_max              =   7.2804074595984E-03
(PID.TID 0000.0001) %MON pe_b_mean                    =  -8.0999823803090E-08
(PID.TID 0000.0001) %MON ke_max                       =   8.6567443158638E-04
(PID.TID 0000.0001) %MON ke_mean                      =   4.6807131950040E-06
(PID.TID 0000.0001) %MON ke_vol                       =   2.9239970672193E+14
(PID.TID 0000.0001) %MON vort_r_min                   =  -2.3588339091879E-06
(PID.TID 0000.0001) %MON vort_r_max                   =   4.4449626898288E-06
(PID.TID 0000.0001) %MON vort_a_mean                  =  -1.4007161712237E-04
(PID.TID 0000.0001) %MON vort_a_sd                    =   1.7878635793385E-06
(PID.TID 0000.0001) %MON vort_p_mean                  =  -1.5023175443713E-04
(PID.TID 0000.0001) %MON vort_p_sd                    =   7.5271343084928E-05
(PID.TID 0000.0001) %MON surfExpan_theta_mean         =   6.1403445109004E-13
(PID.TID 0000.0001) %MON surfExpan_salt_mean          =   5.5600376846992E-12
(PID.TID 0000.0001) // =======================================================
(PID.TID 0000.0001) // End MONITOR dynamic field statistics
(PID.TID 0000.0001) // =======================================================
 cg2d: Sum(rhs),rhsMax =   7.15278530849517E-13  5.86804225694289E-02
(PID.TID 0000.0001)      cg2d_init_res =   3.68051358109324E-02
(PID.TID 0000.0001)      cg2d_iters(min,last) =      -1     193
(PID.TID 0000.0001)      cg2d_last_res =   8.30432760913739E-14
(PID.TID 0000.0001) // =======================================================
(PID.TID 0000.0001) // Begin MONITOR dynamic field statistics
(PID.TID 0000.0001) // =======================================================
(PID.TID 0000.0001) %MON time_tsnumber                =                  8650
(PID.TID 0000.0001) %MON time_secondsf                =   1.5570000000000E+07
(PID.TID 0000.0001) %MON dynstat_eta_max              =   1.1021417079464E-02
(PID.TID 0000.0001) %MON dynstat_eta_min              =  -3.3332104367895E-03
(PID.TID 0000.0001) %MON dynstat_eta_mean             =  -2.7999981205858E-16
(PID.TID 0000.0001) %MON dynstat_eta_sd               =   9.6456072684601E-04
(PID.TID 0000.0001) %MON dynstat_eta_del2             =   8.2948713035650E-06
(PID.TID 0000.0001) %MON dynstat_uvel_max             =   7.0412929394283E-03
(PID.TID 0000.0001) %MON dynstat_uvel_min             =  -1.2809243348735E-02
(PID.TID 0000.0001) %MON dynstat_uvel_mean            =   3.0524584082103E-05
(PID.TID 0000.0001) %MON dynstat_uvel_sd              =   1.2668966903044E-03
(PID.TID 0000.0001) %MON dynstat_uvel_del2            =   1.6083950930106E-06
(PID.TID 0000.0001) %MON dynstat_vvel_max             =   4.1778170446222E-02
(PID.TID 0000.0001) %MON dynstat_vvel_min             =  -1.3328071013649E-02
(PID.TID 0000.0001) %MON dynstat_vvel_mean            =  -1.0404928490697E-06
(PID.TID 0000.0001) %MON dynstat_vvel_sd              =   2.8124093433083E-03
(PID.TID 0000.0001) %MON dynstat_vvel_del2            =   4.9316591058070E-06
(PID.TID 0000.0001) %MON dynstat_wvel_max             =   4.9640829687332E-05
(PID.TID 0000.0001) %MON dynstat_wvel_min             =  -1.2152300493793E-04
(PID.TID 0000.0001) %MON dynstat_wvel_mean            =  -9.9784411908203E-10
(PID.TID 0000.0001) %MON dynstat_wvel_sd              =   4.3977840712622E-06
(PID.TID 0000.0001) %MON dynstat_wvel_del2            =   1.9682777253864E-08
(PID.TID 0000.0001) %MON dynstat_theta_max            =  -1.8909463603951E+00
(PID.TID 0000.0001) %MON dynstat_theta_min            =  -2.0054581815871E+00
(PID.TID 0000.0001) %MON dynstat_theta_mean           =  -1.9143486316494E+00
(PID.TID 0000.0001) %MON dynstat_theta_sd             =   3.1232331084727E-02
(PID.TID 0000.0001) %MON dynstat_theta_del2           =   6.0620024453341E-06
(PID.TID 0000.0001) %MON dynstat_salt_max             =   3.4403731895783E+01
(PID.TID 0000.0001) %MON dynstat_salt_min             =   3.4119632183090E+01
(PID.TID 0000.0001) %MON dynstat_salt_mean            =   3.4391222384619E+01
(PID.TID 0000.0001) %MON dynstat_salt_sd              =   2.3971017803552E-02
(PID.TID 0000.0001) %MON dynstat_salt_del2            =   3.3424633193260E-06
(PID.TID 0000.0001) %MON advcfl_uvel_max              =   3.8113141228158E-03
(PID.TID 0000.0001) %MON advcfl_vvel_max              =   6.7640237303360E-03
(PID.TID 0000.0001) %MON advcfl_wvel_max              =   7.2913802962761E-03
(PID.TID 0000.0001) %MON advcfl_W_hf_max              =   7.2913802962761E-03
(PID.TID 0000.0001) %MON pe_b_mean                    =  -8.5824387661105E-08
(PID.TID 0000.0001) %MON ke_max                       =   8.7077145331438E-04
(PID.TID 0000.0001) %MON ke_mean                      =   4.6949132494224E-06
(PID.TID 0000.0001) %MON ke_vol                       =   2.9239970672193E+14
(PID.TID 0000.0001) %MON vort_r_min                   =  -2.3574925912159E-06
(PID.TID 0000.0001) %MON vort_r_max                   =   4.4308165201962E-06
(PID.TID 0000.0001) %MON vort_a_mean                  =  -1.4007161715828E-04
(PID.TID 0000.0001) %MON vort_a_sd                    =   1.7878606631974E-06
(PID.TID 0000.0001) %MON vort_p_mean                  =  -1.5023175450530E-04
(PID.TID 0000.0001) %MON vort_p_sd                    =   7.5271876545562E-05
(PID.TID 0000.0001) %MON surfExpan_theta_mean         =  -6.4904958135721E-12
(PID.TID 0000.0001) %MON surfExpan_salt_mean          =  -2.1982361849909E-10
(PID.TID 0000.0001) // =======================================================
(PID.TID 0000.0001) // End MONITOR dynamic field statistics
(PID.TID 0000.0001) // =======================================================
(PID.TID 0000.0001) %CHECKPOINT      8650 ckptA
 --> objf_shelfice(bi,bj) =  0.000000000000000D+00
 --> objf_shifwflx(bi,bj) =  0.000000000000000D+00
 --> objf_shelfice(bi,bj) =  0.000000000000000D+00
 --> objf_shifwflx(bi,bj) =  0.000000000000000D+00
 --> objf_shelfice(bi,bj) =  0.000000000000000D+00
 --> objf_shifwflx(bi,bj) =  0.000000000000000D+00
 --> objf_shelfice(bi,bj) =  0.000000000000000D+00
 --> objf_shifwflx(bi,bj) =  0.000000000000000D+00
 --> objf_shelfice(bi,bj) =  0.000000000000000D+00
 --> objf_shifwflx(bi,bj) =  0.000000000000000D+00
 --> objf_shelfice(bi,bj) =  0.000000000000000D+00
 --> objf_shifwflx(bi,bj) =  0.000000000000000D+00
 --> objf_shelfice(bi,bj) =  0.000000000000000D+00
 --> objf_shifwflx(bi,bj) =  0.000000000000000D+00
 --> objf_shelfice(bi,bj) =  0.000000000000000D+00
 --> objf_shifwflx(bi,bj) =  0.000000000000000D+00
  early fc =  0.000000000000000D+00
 --> objf_test(bi,bj)   =  0.272349416609296D+05
 --> objf_tracer(bi,bj) =  0.000000000000000D+00
 --> objf_atl(bi,bj)    =  0.000000000000000D+00
 --> objf_test(bi,bj)   =  0.280685772364077D+05
 --> objf_tracer(bi,bj) =  0.000000000000000D+00
 --> objf_atl(bi,bj)    =  0.000000000000000D+00
 --> objf_test(bi,bj)   =  0.489344114033608D+05
 --> objf_tracer(bi,bj) =  0.000000000000000D+00
 --> objf_atl(bi,bj)    =  0.000000000000000D+00
 --> objf_test(bi,bj)   =  0.505652022127989D+05
 --> objf_tracer(bi,bj) =  0.000000000000000D+00
 --> objf_atl(bi,bj)    =  0.000000000000000D+00
 --> objf_test(bi,bj)   =  0.526343617737235D+05
 --> objf_tracer(bi,bj) =  0.000000000000000D+00
 --> objf_atl(bi,bj)    =  0.000000000000000D+00
 --> objf_test(bi,bj)   =  0.548257487504759D+05
 --> objf_tracer(bi,bj) =  0.000000000000000D+00
 --> objf_atl(bi,bj)    =  0.000000000000000D+00
 --> objf_test(bi,bj)   =  0.526324781251816D+05
 --> objf_tracer(bi,bj) =  0.000000000000000D+00
 --> objf_atl(bi,bj)    =  0.000000000000000D+00
 --> objf_test(bi,bj)   =  0.548254981144623D+05
 --> objf_tracer(bi,bj) =  0.000000000000000D+00
 --> objf_atl(bi,bj)    =  0.000000000000000D+00
  local fc =  0.369721219277340D+06
 global fc =  0.369721219277340D+06
(PID.TID 0000.0001) SOLVE_FOR_PRESSURE: putPmEinXvector =    F
 cg2d: Sum(rhs),rhsMax =   7.02882196890187E-13  5.97860431289981E-02
 cg2d: Sum(rhs),rhsMax =   7.16052217519803E-13  5.85512016059193E-02
 cg2d: Sum(rhs),rhsMax =   7.15566494946529E-13  5.84775718224191E-02
 cg2d: Sum(rhs),rhsMax =   7.15150161312295E-13  5.84638541698855E-02
 cg2d: Sum(rhs),rhsMax =   7.19493908896141E-13  5.84151859419040E-02
 cg2d: Sum(rhs),rhsMax =   7.19049819686290E-13  5.83794365282063E-02
 cg2d: Sum(rhs),rhsMax =   7.20326576164609E-13  5.84375370712857E-02
 cg2d: Sum(rhs),rhsMax =   7.16818965296184E-13  5.85071211612610E-02
 cg2d: Sum(rhs),rhsMax =   7.14150960590132E-13  5.85886574235361E-02
 cg2d: Sum(rhs),rhsMax =   7.15278530849517E-13  5.86804225694289E-02
(PID.TID 0000.0001) Did not write pickup because writePickupAtEnd = FALSE
 cg2d: Sum(rhs),rhsMax =   7.14150960590132E-13  5.85886574235361E-02
 cg2d: Sum(rhs),rhsMax =   7.15278530849517E-13  5.86804225694289E-02
(PID.TID 0000.0001) Did not write pickup because writePickupAtEnd = FALSE
(PID.TID 0000.0001) Did not write pickup because writePickupAtEnd = FALSE
(PID.TID 0000.0001) // =======================================================
(PID.TID 0000.0001) // Begin MONITOR dynamic field statistics
(PID.TID 0000.0001) // =======================================================
(PID.TID 0000.0001) %MON ad_time_tsnumber             =                  8650
(PID.TID 0000.0001) %MON ad_time_secondsf             =   1.5570000000000E+07
(PID.TID 0000.0001) %MON ad_dynstat_adeta_max         =   0.0000000000000E+00
(PID.TID 0000.0001) %MON ad_dynstat_adeta_min         =   0.0000000000000E+00
(PID.TID 0000.0001) %MON ad_dynstat_adeta_mean        =   0.0000000000000E+00
(PID.TID 0000.0001) %MON ad_dynstat_adeta_sd          =   0.0000000000000E+00
(PID.TID 0000.0001) %MON ad_dynstat_adeta_del2        =   0.0000000000000E+00
(PID.TID 0000.0001) %MON ad_dynstat_aduvel_max        =   0.0000000000000E+00
(PID.TID 0000.0001) %MON ad_dynstat_aduvel_min        =   0.0000000000000E+00
(PID.TID 0000.0001) %MON ad_dynstat_aduvel_mean       =   0.0000000000000E+00
(PID.TID 0000.0001) %MON ad_dynstat_aduvel_sd         =   0.0000000000000E+00
(PID.TID 0000.0001) %MON ad_dynstat_aduvel_del2       =   0.0000000000000E+00
(PID.TID 0000.0001) %MON ad_dynstat_advvel_max        =   0.0000000000000E+00
(PID.TID 0000.0001) %MON ad_dynstat_advvel_min        =   0.0000000000000E+00
(PID.TID 0000.0001) %MON ad_dynstat_advvel_mean       =   0.0000000000000E+00
(PID.TID 0000.0001) %MON ad_dynstat_advvel_sd         =   0.0000000000000E+00
(PID.TID 0000.0001) %MON ad_dynstat_advvel_del2       =   0.0000000000000E+00
(PID.TID 0000.0001) %MON ad_dynstat_adwvel_max        =   0.0000000000000E+00
(PID.TID 0000.0001) %MON ad_dynstat_adwvel_min        =   0.0000000000000E+00
(PID.TID 0000.0001) %MON ad_dynstat_adwvel_mean       =   0.0000000000000E+00
(PID.TID 0000.0001) %MON ad_dynstat_adwvel_sd         =   0.0000000000000E+00
(PID.TID 0000.0001) %MON ad_dynstat_adwvel_del2       =   0.0000000000000E+00
(PID.TID 0000.0001) %MON ad_dynstat_adtheta_max       =  -3.7818927207902E+00
(PID.TID 0000.0001) %MON ad_dynstat_adtheta_min       =  -4.0109163631742E+00
(PID.TID 0000.0001) %MON ad_dynstat_adtheta_mean      =  -3.8286972632988E+00
(PID.TID 0000.0001) %MON ad_dynstat_adtheta_sd        =   6.2464662169454E-02
(PID.TID 0000.0001) %MON ad_dynstat_adtheta_del2      =   3.9055724283378E-03
(PID.TID 0000.0001) %MON ad_dynstat_adsalt_max        =   0.0000000000000E+00
(PID.TID 0000.0001) %MON ad_dynstat_adsalt_min        =   0.0000000000000E+00
(PID.TID 0000.0001) %MON ad_dynstat_adsalt_mean       =   0.0000000000000E+00
(PID.TID 0000.0001) %MON ad_dynstat_adsalt_sd         =   0.0000000000000E+00
(PID.TID 0000.0001) %MON ad_dynstat_adsalt_del2       =   0.0000000000000E+00
(PID.TID 0000.0001) // =======================================================
(PID.TID 0000.0001) // End MONITOR dynamic field statistics
(PID.TID 0000.0001) // =======================================================
 cg2d: Sum(rhs),rhsMax =  -4.70734562441066E-14  2.27654483807134E-05
(PID.TID 0000.0001) // =======================================================
(PID.TID 0000.0001) // Begin MONITOR dynamic field statistics
(PID.TID 0000.0001) // =======================================================
(PID.TID 0000.0001) %MON ad_time_tsnumber             =                  8649
(PID.TID 0000.0001) %MON ad_time_secondsf             =   1.5568200000000E+07
(PID.TID 0000.0001) %MON ad_dynstat_adeta_max         =   9.7928039603844E-03
(PID.TID 0000.0001) %MON ad_dynstat_adeta_min         =  -1.3010243598846E-02
(PID.TID 0000.0001) %MON ad_dynstat_adeta_mean        =  -1.2854069954026E-07
(PID.TID 0000.0001) %MON ad_dynstat_adeta_sd          =   1.6263675362640E-03
(PID.TID 0000.0001) %MON ad_dynstat_adeta_del2        =   2.4574672515921E-05
(PID.TID 0000.0001) %MON ad_dynstat_aduvel_max        =   3.9587093963642E-04
(PID.TID 0000.0001) %MON ad_dynstat_aduvel_min        =  -6.1206368711056E-04
(PID.TID 0000.0001) %MON ad_dynstat_aduvel_mean       =  -1.0092601942155E-06
(PID.TID 0000.0001) %MON ad_dynstat_aduvel_sd         =   9.0571982813156E-06
(PID.TID 0000.0001) %MON ad_dynstat_aduvel_del2       =   3.1679245106824E-08
(PID.TID 0000.0001) %MON ad_dynstat_advvel_max        =   8.7395899718771E-04
(PID.TID 0000.0001) %MON ad_dynstat_advvel_min        =  -8.3559306363463E-04
(PID.TID 0000.0001) %MON ad_dynstat_advvel_mean       =   4.1096442389262E-04
(PID.TID 0000.0001) %MON ad_dynstat_advvel_sd         =   2.2927945946456E-04
(PID.TID 0000.0001) %MON ad_dynstat_advvel_del2       =   5.3736949092605E-07
(PID.TID 0000.0001) %MON ad_dynstat_adwvel_max        =   8.4277777110927E-04
(PID.TID 0000.0001) %MON ad_dynstat_adwvel_min        =  -2.5059142576318E-04
(PID.TID 0000.0001) %MON ad_dynstat_adwvel_mean       =  -5.3096880651900E-07
(PID.TID 0000.0001) %MON ad_dynstat_adwvel_sd         =   6.5668085407957E-06
(PID.TID 0000.0001) %MON ad_dynstat_adwvel_del2       =   3.8495176880180E-08
(PID.TID 0000.0001) %MON ad_dynstat_adtheta_max       =  -8.8769190645303E-01
(PID.TID 0000.0001) %MON ad_dynstat_adtheta_min       =  -7.0995305808633E+00
(PID.TID 0000.0001) %MON ad_dynstat_adtheta_mean      =  -3.8286259788752E+00
(PID.TID 0000.0001) %MON ad_dynstat_adtheta_sd        =   7.1787522175255E-02
(PID.TID 0000.0001) %MON ad_dynstat_adtheta_del2      =   3.9155684488998E-03
(PID.TID 0000.0001) %MON ad_dynstat_adsalt_max        =   8.0700856771896E-04
(PID.TID 0000.0001) %MON ad_dynstat_adsalt_min        =  -2.0068737479467E-04
(PID.TID 0000.0001) %MON ad_dynstat_adsalt_mean       =   2.0999804093171E-05
(PID.TID 0000.0001) %MON ad_dynstat_adsalt_sd         =   1.0004736308811E-04
(PID.TID 0000.0001) %MON ad_dynstat_adsalt_del2       =   2.1012167269026E-07
(PID.TID 0000.0001) // =======================================================
(PID.TID 0000.0001) // End MONITOR dynamic field statistics
(PID.TID 0000.0001) // =======================================================
 cg2d: Sum(rhs),rhsMax =  -9.15933995315754E-16  4.65225211956319E-04
 cg2d: Sum(rhs),rhsMax =   7.20326576164609E-13  5.84375370712857E-02
 cg2d: Sum(rhs),rhsMax =   7.16818965296184E-13  5.85071211612610E-02
(PID.TID 0000.0001) // =======================================================
(PID.TID 0000.0001) // Begin MONITOR dynamic field statistics
(PID.TID 0000.0001) // =======================================================
(PID.TID 0000.0001) %MON ad_time_tsnumber             =                  8648
(PID.TID 0000.0001) %MON ad_time_secondsf             =   1.5566400000000E+07
(PID.TID 0000.0001) %MON ad_dynstat_adeta_max         =   1.8546558971942E-02
(PID.TID 0000.0001) %MON ad_dynstat_adeta_min         =  -2.4764973606730E-02
(PID.TID 0000.0001) %MON ad_dynstat_adeta_mean        =  -9.4192974769691E-06
(PID.TID 0000.0001) %MON ad_dynstat_adeta_sd          =   3.0411895236223E-03
(PID.TID 0000.0001) %MON ad_dynstat_adeta_del2        =   4.5860061711407E-05
(PID.TID 0000.0001) %MON ad_dynstat_aduvel_max        =   4.8768262970085E-04
(PID.TID 0000.0001) %MON ad_dynstat_aduvel_min        =  -9.1245258645424E-04
(PID.TID 0000.0001) %MON ad_dynstat_aduvel_mean       =  -9.6805694683881E-05
(PID.TID 0000.0001) %MON ad_dynstat_aduvel_sd         =   4.7321411480469E-05
(PID.TID 0000.0001) %MON ad_dynstat_aduvel_del2       =   1.1845385702351E-07
(PID.TID 0000.0001) %MON ad_dynstat_advvel_max        =   1.0881697731168E-03
(PID.TID 0000.0001) %MON ad_dynstat_advvel_min        =  -1.3296270332897E-03
(PID.TID 0000.0001) %MON ad_dynstat_advvel_mean       =   4.7454705447255E-04
(PID.TID 0000.0001) %MON ad_dynstat_advvel_sd         =   3.2215989829419E-04
(PID.TID 0000.0001) %MON ad_dynstat_advvel_del2       =   6.6307454753198E-07
(PID.TID 0000.0001) %MON ad_dynstat_adwvel_max        =   8.2010494099746E-04
(PID.TID 0000.0001) %MON ad_dynstat_adwvel_min        =  -2.8680371270381E-04
(PID.TID 0000.0001) %MON ad_dynstat_adwvel_mean       =  -1.1865101078088E-06
(PID.TID 0000.0001) %MON ad_dynstat_adwvel_sd         =   8.9781765616902E-06
(PID.TID 0000.0001) %MON ad_dynstat_adwvel_del2       =   5.9859177195448E-08
(PID.TID 0000.0001) %MON ad_dynstat_adtheta_max       =  -8.8658474582439E-01
(PID.TID 0000.0001) %MON ad_dynstat_adtheta_min       =  -7.0912358787352E+00
(PID.TID 0000.0001) %MON ad_dynstat_adtheta_mean      =  -3.8283897270342E+00
(PID.TID 0000.0001) %MON ad_dynstat_adtheta_sd        =   7.1194955838518E-02
(PID.TID 0000.0001) %MON ad_dynstat_adtheta_del2      =   3.9151953407378E-03
(PID.TID 0000.0001) %MON ad_dynstat_adsalt_max        =   1.3170990312971E-03
(PID.TID 0000.0001) %MON ad_dynstat_adsalt_min        =  -3.8405831015545E-04
(PID.TID 0000.0001) %MON ad_dynstat_adsalt_mean       =   3.1830624391318E-05
(PID.TID 0000.0001) %MON ad_dynstat_adsalt_sd         =   1.6418793148100E-04
(PID.TID 0000.0001) %MON ad_dynstat_adsalt_del2       =   3.4429259508293E-07
(PID.TID 0000.0001) // =======================================================
(PID.TID 0000.0001) // End MONITOR dynamic field statistics
(PID.TID 0000.0001) // =======================================================
 cg2d: Sum(rhs),rhsMax =  -1.55431223447522E-15  8.95997218610066E-04
(PID.TID 0000.0001) // =======================================================
(PID.TID 0000.0001) // Begin MONITOR dynamic field statistics
(PID.TID 0000.0001) // =======================================================
(PID.TID 0000.0001) %MON ad_time_tsnumber             =                  8647
(PID.TID 0000.0001) %MON ad_time_secondsf             =   1.5564600000000E+07
(PID.TID 0000.0001) %MON ad_dynstat_adeta_max         =   2.5452584287962E-02
(PID.TID 0000.0001) %MON ad_dynstat_adeta_min         =  -3.5050602625619E-02
(PID.TID 0000.0001) %MON ad_dynstat_adeta_mean        =  -2.9332679851169E-05
(PID.TID 0000.0001) %MON ad_dynstat_adeta_sd          =   4.2173473204256E-03
(PID.TID 0000.0001) %MON ad_dynstat_adeta_del2        =   6.3428407802374E-05
(PID.TID 0000.0001) %MON ad_dynstat_aduvel_max        =   5.5965107472828E-04
(PID.TID 0000.0001) %MON ad_dynstat_aduvel_min        =  -1.0572580699797E-03
(PID.TID 0000.0001) %MON ad_dynstat_aduvel_mean       =  -2.3822841029186E-04
(PID.TID 0000.0001) %MON ad_dynstat_aduvel_sd         =   8.9541935554782E-05
(PID.TID 0000.0001) %MON ad_dynstat_aduvel_del2       =   2.7987672254033E-07
(PID.TID 0000.0001) %MON ad_dynstat_advvel_max        =   1.1030017930075E-03
(PID.TID 0000.0001) %MON ad_dynstat_advvel_min        =  -1.5990944856819E-03
(PID.TID 0000.0001) %MON ad_dynstat_advvel_mean       =   4.1520445212597E-04
(PID.TID 0000.0001) %MON ad_dynstat_advvel_sd         =   3.5917830272994E-04
(PID.TID 0000.0001) %MON ad_dynstat_advvel_del2       =   6.3712792038164E-07
(PID.TID 0000.0001) %MON ad_dynstat_adwvel_max        =   8.0793228699290E-04
(PID.TID 0000.0001) %MON ad_dynstat_adwvel_min        =  -3.8709921090693E-04
(PID.TID 0000.0001) %MON ad_dynstat_adwvel_mean       =  -2.4810897760751E-06
(PID.TID 0000.0001) %MON ad_dynstat_adwvel_sd         =   1.7168625841653E-05
(PID.TID 0000.0001) %MON ad_dynstat_adwvel_del2       =   1.0811748837163E-07
(PID.TID 0000.0001) %MON ad_dynstat_adtheta_max       =  -8.8509416783133E-01
(PID.TID 0000.0001) %MON ad_dynstat_adtheta_min       =  -7.0832266542255E+00
(PID.TID 0000.0001) %MON ad_dynstat_adtheta_mean      =  -3.8281533276918E+00
(PID.TID 0000.0001) %MON ad_dynstat_adtheta_sd        =   7.0595569899715E-02
(PID.TID 0000.0001) %MON ad_dynstat_adtheta_del2      =   3.9147996246851E-03
(PID.TID 0000.0001) %MON ad_dynstat_adsalt_max        =   1.8425349468709E-03
(PID.TID 0000.0001) %MON ad_dynstat_adsalt_min        =  -5.6362757952746E-04
(PID.TID 0000.0001) %MON ad_dynstat_adsalt_mean       =   4.2375406151518E-05
(PID.TID 0000.0001) %MON ad_dynstat_adsalt_sd         =   2.2904664229786E-04
(PID.TID 0000.0001) %MON ad_dynstat_adsalt_del2       =   4.8225947344218E-07
(PID.TID 0000.0001) // =======================================================
(PID.TID 0000.0001) // End MONITOR dynamic field statistics
(PID.TID 0000.0001) // =======================================================
 cg2d: Sum(rhs),rhsMax =  -4.92661467177413E-16  1.27930818687574E-03
 cg2d: Sum(rhs),rhsMax =   7.19493908896141E-13  5.84151859419040E-02
 cg2d: Sum(rhs),rhsMax =   7.19049819686290E-13  5.83794365282063E-02
(PID.TID 0000.0001) // =======================================================
(PID.TID 0000.0001) // Begin MONITOR dynamic field statistics
(PID.TID 0000.0001) // =======================================================
(PID.TID 0000.0001) %MON ad_time_tsnumber             =                  8646
(PID.TID 0000.0001) %MON ad_time_secondsf             =   1.5562800000000E+07
(PID.TID 0000.0001) %MON ad_dynstat_adeta_max         =   2.8635951465583E-02
(PID.TID 0000.0001) %MON ad_dynstat_adeta_min         =  -4.1542808253868E-02
(PID.TID 0000.0001) %MON ad_dynstat_adeta_mean        =  -5.7891420702458E-05
(PID.TID 0000.0001) %MON ad_dynstat_adeta_sd          =   4.9278842733086E-03
(PID.TID 0000.0001) %MON ad_dynstat_adeta_del2        =   7.3929320582165E-05
(PID.TID 0000.0001) %MON ad_dynstat_aduvel_max        =   5.7880517885644E-04
(PID.TID 0000.0001) %MON ad_dynstat_aduvel_min        =  -1.0142222182323E-03
(PID.TID 0000.0001) %MON ad_dynstat_aduvel_mean       =  -3.7000869265200E-04
(PID.TID 0000.0001) %MON ad_dynstat_aduvel_sd         =   1.2608955543068E-04
(PID.TID 0000.0001) %MON ad_dynstat_aduvel_del2       =   4.3647123685964E-07
(PID.TID 0000.0001) %MON ad_dynstat_advvel_max        =   1.0064530028686E-03
(PID.TID 0000.0001) %MON ad_dynstat_advvel_min        =  -1.6636499108458E-03
(PID.TID 0000.0001) %MON ad_dynstat_advvel_mean       =   2.5244687633985E-04
(PID.TID 0000.0001) %MON ad_dynstat_advvel_sd         =   3.5487904206668E-04
(PID.TID 0000.0001) %MON ad_dynstat_advvel_del2       =   5.0864051642577E-07
(PID.TID 0000.0001) %MON ad_dynstat_adwvel_max        =   6.7511122013261E-04
(PID.TID 0000.0001) %MON ad_dynstat_adwvel_min        =  -4.6984652984414E-04
(PID.TID 0000.0001) %MON ad_dynstat_adwvel_mean       =  -3.8477551093699E-06
(PID.TID 0000.0001) %MON ad_dynstat_adwvel_sd         =   2.6709553927461E-05
(PID.TID 0000.0001) %MON ad_dynstat_adwvel_del2       =   1.5546208149804E-07
(PID.TID 0000.0001) %MON ad_dynstat_adtheta_max       =  -8.8360588351387E-01
(PID.TID 0000.0001) %MON ad_dynstat_adtheta_min       =  -7.0752000341268E+00
(PID.TID 0000.0001) %MON ad_dynstat_adtheta_mean      =  -3.8279204985670E+00
(PID.TID 0000.0001) %MON ad_dynstat_adtheta_sd        =   6.9993523338519E-02
(PID.TID 0000.0001) %MON ad_dynstat_adtheta_del2      =   3.9146531577309E-03
(PID.TID 0000.0001) %MON ad_dynstat_adsalt_max        =   2.3723131270437E-03
(PID.TID 0000.0001) %MON ad_dynstat_adsalt_min        =  -7.2818448128060E-04
(PID.TID 0000.0001) %MON ad_dynstat_adsalt_mean       =   5.3193506700636E-05
(PID.TID 0000.0001) %MON ad_dynstat_adsalt_sd         =   2.9422248291471E-04
(PID.TID 0000.0001) %MON ad_dynstat_adsalt_del2       =   6.2094038182445E-07
(PID.TID 0000.0001) // =======================================================
(PID.TID 0000.0001) // End MONITOR dynamic field statistics
(PID.TID 0000.0001) // =======================================================
 cg2d: Sum(rhs),rhsMax =   4.61436444609831E-16  1.52945832402131E-03
(PID.TID 0000.0001) // =======================================================
(PID.TID 0000.0001) // Begin MONITOR dynamic field statistics
(PID.TID 0000.0001) // =======================================================
(PID.TID 0000.0001) %MON ad_time_tsnumber             =                  8645
(PID.TID 0000.0001) %MON ad_time_secondsf             =   1.5561000000000E+07
(PID.TID 0000.0001) %MON ad_dynstat_adeta_max         =   2.7107855291444E-02
(PID.TID 0000.0001) %MON ad_dynstat_adeta_min         =  -4.2879179692540E-02
(PID.TID 0000.0001) %MON ad_dynstat_adeta_mean        =  -9.0389195940323E-05
(PID.TID 0000.0001) %MON ad_dynstat_adeta_sd          =   5.0727868146305E-03
(PID.TID 0000.0001) %MON ad_dynstat_adeta_del2        =   7.5995743386828E-05
(PID.TID 0000.0001) %MON ad_dynstat_aduvel_max        =   5.4975879178282E-04
(PID.TID 0000.0001) %MON ad_dynstat_aduvel_min        =  -7.9762505617509E-04
(PID.TID 0000.0001) %MON ad_dynstat_aduvel_mean       =  -4.4337930388203E-04
(PID.TID 0000.0001) %MON ad_dynstat_aduvel_sd         =   1.4580935112803E-04
(PID.TID 0000.0001) %MON ad_dynstat_aduvel_del2       =   5.2392380884843E-07
(PID.TID 0000.0001) %MON ad_dynstat_advvel_max        =   8.2220534484563E-04
(PID.TID 0000.0001) %MON ad_dynstat_advvel_min        =  -1.5460296706626E-03
(PID.TID 0000.0001) %MON ad_dynstat_advvel_mean       =   1.8084698754326E-05
(PID.TID 0000.0001) %MON ad_dynstat_advvel_sd         =   3.2926320427243E-04
(PID.TID 0000.0001) %MON ad_dynstat_advvel_del2       =   3.8489993661254E-07
(PID.TID 0000.0001) %MON ad_dynstat_adwvel_max        =   4.4918175141751E-04
(PID.TID 0000.0001) %MON ad_dynstat_adwvel_min        =  -5.3411402416051E-04
(PID.TID 0000.0001) %MON ad_dynstat_adwvel_mean       =  -5.0533095609404E-06
(PID.TID 0000.0001) %MON ad_dynstat_adwvel_sd         =   3.5516793569139E-05
(PID.TID 0000.0001) %MON ad_dynstat_adwvel_del2       =   1.9313741808238E-07
(PID.TID 0000.0001) %MON ad_dynstat_adtheta_max       =  -7.1461296544316E-01
(PID.TID 0000.0001) %MON ad_dynstat_adtheta_min       =  -7.0607375433843E+00
(PID.TID 0000.0001) %MON ad_dynstat_adtheta_mean      =  -3.8277078528836E+00
(PID.TID 0000.0001) %MON ad_dynstat_adtheta_sd        =   6.9630658162483E-02
(PID.TID 0000.0001) %MON ad_dynstat_adtheta_del2      =   3.9144700720652E-03
(PID.TID 0000.0001) %MON ad_dynstat_adsalt_max        =   2.9009642556385E-03
(PID.TID 0000.0001) %MON ad_dynstat_adsalt_min        =  -8.8900542158652E-04
(PID.TID 0000.0001) %MON ad_dynstat_adsalt_mean       =   6.4720755367778E-05
(PID.TID 0000.0001) %MON ad_dynstat_adsalt_sd         =   3.5948973008530E-04
(PID.TID 0000.0001) %MON ad_dynstat_adsalt_del2       =   7.5722010018915E-07
(PID.TID 0000.0001) // =======================================================
(PID.TID 0000.0001) // End MONITOR dynamic field statistics
(PID.TID 0000.0001) // =======================================================
 cg2d: Sum(rhs),rhsMax =  -2.29677388219329E-15  1.59673265603729E-03
 cg2d: Sum(rhs),rhsMax =   7.15566494946529E-13  5.84775718224191E-02
 cg2d: Sum(rhs),rhsMax =   7.15150161312295E-13  5.84638541698855E-02
(PID.TID 0000.0001) // =======================================================
(PID.TID 0000.0001) // Begin MONITOR dynamic field statistics
(PID.TID 0000.0001) // =======================================================
(PID.TID 0000.0001) %MON ad_time_tsnumber             =                  8644
(PID.TID 0000.0001) %MON ad_time_secondsf             =   1.5559200000000E+07
(PID.TID 0000.0001) %MON ad_dynstat_adeta_max         =   2.0802424237135E-02
(PID.TID 0000.0001) %MON ad_dynstat_adeta_min         =  -3.8831975672604E-02
(PID.TID 0000.0001) %MON ad_dynstat_adeta_mean        =  -1.2114922773139E-04
(PID.TID 0000.0001) %MON ad_dynstat_adeta_sd          =   4.7252539632450E-03
(PID.TID 0000.0001) %MON ad_dynstat_adeta_del2        =   7.0959972955146E-05
(PID.TID 0000.0001) %MON ad_dynstat_aduvel_max        =   4.8354756021580E-04
(PID.TID 0000.0001) %MON ad_dynstat_aduvel_min        =  -7.2076540332743E-04
(PID.TID 0000.0001) %MON ad_dynstat_aduvel_mean       =  -4.3200942849278E-04
(PID.TID 0000.0001) %MON ad_dynstat_aduvel_sd         =   1.4564717896307E-04
(PID.TID 0000.0001) %MON ad_dynstat_aduvel_del2       =   5.1124900704180E-07
(PID.TID 0000.0001) %MON ad_dynstat_advvel_max        =   5.6949633133587E-04
(PID.TID 0000.0001) %MON ad_dynstat_advvel_min        =  -1.5251218829434E-03
(PID.TID 0000.0001) %MON ad_dynstat_advvel_mean       =  -2.4738628223280E-04
(PID.TID 0000.0001) %MON ad_dynstat_advvel_sd         =   3.0009510432311E-04
(PID.TID 0000.0001) %MON ad_dynstat_advvel_del2       =   4.3883537034028E-07
(PID.TID 0000.0001) %MON ad_dynstat_adwvel_max        =   3.8201888166135E-04
(PID.TID 0000.0001) %MON ad_dynstat_adwvel_min        =  -6.7659990714340E-04
(PID.TID 0000.0001) %MON ad_dynstat_adwvel_mean       =  -6.0317958442532E-06
(PID.TID 0000.0001) %MON ad_dynstat_adwvel_sd         =   4.3005159817063E-05
(PID.TID 0000.0001) %MON ad_dynstat_adwvel_del2       =   2.2083668076006E-07
(PID.TID 0000.0001) %MON ad_dynstat_adtheta_max       =  -6.6138924029994E-01
(PID.TID 0000.0001) %MON ad_dynstat_adtheta_min       =  -7.0323391762209E+00
(PID.TID 0000.0001) %MON ad_dynstat_adtheta_mean      =  -3.8274812995039E+00
(PID.TID 0000.0001) %MON ad_dynstat_adtheta_sd        =   6.8595065702483E-02
(PID.TID 0000.0001) %MON ad_dynstat_adtheta_del2      =   3.9136845804498E-03
(PID.TID 0000.0001) %MON ad_dynstat_adsalt_max        =   3.4261747495275E-03
(PID.TID 0000.0001) %MON ad_dynstat_adsalt_min        =  -1.0728070938381E-03
(PID.TID 0000.0001) %MON ad_dynstat_adsalt_mean       =   7.7260696904638E-05
(PID.TID 0000.0001) %MON ad_dynstat_adsalt_sd         =   4.2474970636289E-04
(PID.TID 0000.0001) %MON ad_dynstat_adsalt_del2       =   8.9101620040016E-07
(PID.TID 0000.0001) // =======================================================
(PID.TID 0000.0001) // End MONITOR dynamic field statistics
(PID.TID 0000.0001) // =======================================================
 cg2d: Sum(rhs),rhsMax =  -4.85722573273506E-17  1.47675112669458E-03
(PID.TID 0000.0001) // =======================================================
(PID.TID 0000.0001) // Begin MONITOR dynamic field statistics
(PID.TID 0000.0001) // =======================================================
(PID.TID 0000.0001) %MON ad_time_tsnumber             =                  8643
(PID.TID 0000.0001) %MON ad_time_secondsf             =   1.5557400000000E+07
(PID.TID 0000.0001) %MON ad_dynstat_adeta_max         =   1.0374520188941E-02
(PID.TID 0000.0001) %MON ad_dynstat_adeta_min         =  -2.9982059135062E-02
(PID.TID 0000.0001) %MON ad_dynstat_adeta_mean        =  -1.4492855219227E-04
(PID.TID 0000.0001) %MON ad_dynstat_adeta_sd          =   4.2137981378081E-03
(PID.TID 0000.0001) %MON ad_dynstat_adeta_del2        =   6.4082695938261E-05
(PID.TID 0000.0001) %MON ad_dynstat_aduvel_max        =   4.6687398017549E-04
(PID.TID 0000.0001) %MON ad_dynstat_aduvel_min        =  -5.9342712131193E-04
(PID.TID 0000.0001) %MON ad_dynstat_aduvel_mean       =  -3.3378763970906E-04
(PID.TID 0000.0001) %MON ad_dynstat_aduvel_sd         =   1.3246901291073E-04
(PID.TID 0000.0001) %MON ad_dynstat_aduvel_del2       =   4.0039090889787E-07
(PID.TID 0000.0001) %MON ad_dynstat_advvel_max        =   3.1375297033827E-04
(PID.TID 0000.0001) %MON ad_dynstat_advvel_min        =  -1.5257994893671E-03
(PID.TID 0000.0001) %MON ad_dynstat_advvel_mean       =  -5.0052547085467E-04
(PID.TID 0000.0001) %MON ad_dynstat_advvel_sd         =   2.7861056331029E-04
(PID.TID 0000.0001) %MON ad_dynstat_advvel_del2       =   6.3786155231495E-07
(PID.TID 0000.0001) %MON ad_dynstat_adwvel_max        =   4.1589100719965E-04
(PID.TID 0000.0001) %MON ad_dynstat_adwvel_min        =  -8.0659730933894E-04
(PID.TID 0000.0001) %MON ad_dynstat_adwvel_mean       =  -6.8075544933107E-06
(PID.TID 0000.0001) %MON ad_dynstat_adwvel_sd         =   4.9181407010312E-05
(PID.TID 0000.0001) %MON ad_dynstat_adwvel_del2       =   2.4141761980033E-07
(PID.TID 0000.0001) %MON ad_dynstat_adtheta_max       =  -6.4489366599073E-01
(PID.TID 0000.0001) %MON ad_dynstat_adtheta_min       =  -7.0204999885663E+00
(PID.TID 0000.0001) %MON ad_dynstat_adtheta_mean      =  -3.8272999276960E+00
(PID.TID 0000.0001) %MON ad_dynstat_adtheta_sd        =   6.9282483224659E-02
(PID.TID 0000.0001) %MON ad_dynstat_adtheta_del2      =   3.9131464556331E-03
(PID.TID 0000.0001) %MON ad_dynstat_adsalt_max        =   3.9466889839305E-03
(PID.TID 0000.0001) %MON ad_dynstat_adsalt_min        =  -1.2921591289258E-03
(PID.TID 0000.0001) %MON ad_dynstat_adsalt_mean       =   9.0974925633361E-05
(PID.TID 0000.0001) %MON ad_dynstat_adsalt_sd         =   4.9010396902307E-04
(PID.TID 0000.0001) %MON ad_dynstat_adsalt_del2       =   1.0223055513280E-06
(PID.TID 0000.0001) // =======================================================
(PID.TID 0000.0001) // End MONITOR dynamic field statistics
(PID.TID 0000.0001) // =======================================================
 cg2d: Sum(rhs),rhsMax =   8.04911692853238E-16  1.18593332952609E-03
(PID.TID 0000.0001) SOLVE_FOR_PRESSURE: putPmEinXvector =    F
 cg2d: Sum(rhs),rhsMax =   7.02882196890187E-13  5.97860431289981E-02
 cg2d: Sum(rhs),rhsMax =   7.16052217519803E-13  5.85512016059193E-02
(PID.TID 0000.0001) // =======================================================
(PID.TID 0000.0001) // Begin MONITOR dynamic field statistics
(PID.TID 0000.0001) // =======================================================
(PID.TID 0000.0001) %MON ad_time_tsnumber             =                  8642
(PID.TID 0000.0001) %MON ad_time_secondsf             =   1.5555600000000E+07
(PID.TID 0000.0001) %MON ad_dynstat_adeta_max         =   1.0351392516656E-02
(PID.TID 0000.0001) %MON ad_dynstat_adeta_min         =  -4.3379907383267E-02
(PID.TID 0000.0001) %MON ad_dynstat_adeta_mean        =  -1.5769493873403E-04
(PID.TID 0000.0001) %MON ad_dynstat_adeta_sd          =   4.1735403824059E-03
(PID.TID 0000.0001) %MON ad_dynstat_adeta_del2        =   6.4867800879618E-05
(PID.TID 0000.0001) %MON ad_dynstat_aduvel_max        =   7.4951887060829E-04
(PID.TID 0000.0001) %MON ad_dynstat_aduvel_min        =  -3.7751882992251E-04
(PID.TID 0000.0001) %MON ad_dynstat_aduvel_mean       =  -1.6415462528203E-04
(PID.TID 0000.0001) %MON ad_dynstat_aduvel_sd         =   1.2021479490696E-04
(PID.TID 0000.0001) %MON ad_dynstat_aduvel_del2       =   2.2128046238132E-07
(PID.TID 0000.0001) %MON ad_dynstat_advvel_max        =   9.0726637352611E-05
(PID.TID 0000.0001) %MON ad_dynstat_advvel_min        =  -1.5415745345898E-03
(PID.TID 0000.0001) %MON ad_dynstat_advvel_mean       =  -7.0163740714073E-04
(PID.TID 0000.0001) %MON ad_dynstat_advvel_sd         =   2.6906707408282E-04
(PID.TID 0000.0001) %MON ad_dynstat_advvel_del2       =   8.3670634384828E-07
(PID.TID 0000.0001) %MON ad_dynstat_adwvel_max        =   4.4510604594871E-04
(PID.TID 0000.0001) %MON ad_dynstat_adwvel_min        =  -9.1498130594534E-04
(PID.TID 0000.0001) %MON ad_dynstat_adwvel_mean       =  -7.4028320006616E-06
(PID.TID 0000.0001) %MON ad_dynstat_adwvel_sd         =   5.4050737617776E-05
(PID.TID 0000.0001) %MON ad_dynstat_adwvel_del2       =   2.5700699774381E-07
(PID.TID 0000.0001) %MON ad_dynstat_adtheta_max       =  -6.3958026869610E-01
(PID.TID 0000.0001) %MON ad_dynstat_adtheta_min       =  -7.0105785745991E+00
(PID.TID 0000.0001) %MON ad_dynstat_adtheta_mean      =  -3.8271432620228E+00
(PID.TID 0000.0001) %MON ad_dynstat_adtheta_sd        =   7.0114664406330E-02
(PID.TID 0000.0001) %MON ad_dynstat_adtheta_del2      =   3.9130412291628E-03
(PID.TID 0000.0001) %MON ad_dynstat_adsalt_max        =   4.4615861211597E-03
(PID.TID 0000.0001) %MON ad_dynstat_adsalt_min        =  -1.5733163337369E-03
(PID.TID 0000.0001) %MON ad_dynstat_adsalt_mean       =   1.0587371121559E-04
(PID.TID 0000.0001) %MON ad_dynstat_adsalt_sd         =   5.5545874508818E-04
(PID.TID 0000.0001) %MON ad_dynstat_adsalt_del2       =   1.1525193221561E-06
(PID.TID 0000.0001) // =======================================================
(PID.TID 0000.0001) // End MONITOR dynamic field statistics
(PID.TID 0000.0001) // =======================================================
 cg2d: Sum(rhs),rhsMax =  -4.74620343027254E-15  1.84746596783586E-03
(PID.TID 0000.0001) // =======================================================
(PID.TID 0000.0001) // Begin MONITOR dynamic field statistics
(PID.TID 0000.0001) // =======================================================
(PID.TID 0000.0001) %MON ad_time_tsnumber             =                  8641
(PID.TID 0000.0001) %MON ad_time_secondsf             =   1.5553800000000E+07
(PID.TID 0000.0001) %MON ad_dynstat_adeta_max         =   1.0849558679059E-02
(PID.TID 0000.0001) %MON ad_dynstat_adeta_min         =  -6.1836267470051E-02
(PID.TID 0000.0001) %MON ad_dynstat_adeta_mean        =  -1.5696309861215E-04
(PID.TID 0000.0001) %MON ad_dynstat_adeta_sd          =   5.0585471330392E-03
(PID.TID 0000.0001) %MON ad_dynstat_adeta_del2        =   7.9200294533825E-05
(PID.TID 0000.0001) %MON ad_dynstat_aduvel_max        =   1.4051327243774E-03
(PID.TID 0000.0001) %MON ad_dynstat_aduvel_min        =  -2.8886435971098E-04
(PID.TID 0000.0001) %MON ad_dynstat_aduvel_mean       =   5.1746854898697E-05
(PID.TID 0000.0001) %MON ad_dynstat_aduvel_sd         =   1.2465064484896E-04
(PID.TID 0000.0001) %MON ad_dynstat_aduvel_del2       =   1.3689699539982E-07
(PID.TID 0000.0001) %MON ad_dynstat_advvel_max        =   4.0470051889180E-04
(PID.TID 0000.0001) %MON ad_dynstat_advvel_min        =  -1.4024178419833E-03
(PID.TID 0000.0001) %MON ad_dynstat_advvel_mean       =  -8.2073710634706E-04
(PID.TID 0000.0001) %MON ad_dynstat_advvel_sd         =   2.7103607676054E-04
(PID.TID 0000.0001) %MON ad_dynstat_advvel_del2       =   9.6612155526790E-07
(PID.TID 0000.0001) %MON ad_dynstat_adwvel_max        =   4.6311241146431E-04
(PID.TID 0000.0001) %MON ad_dynstat_adwvel_min        =  -1.0464934325041E-03
(PID.TID 0000.0001) %MON ad_dynstat_adwvel_mean       =  -7.8007252134955E-06
(PID.TID 0000.0001) %MON ad_dynstat_adwvel_sd         =   5.7437153037528E-05
(PID.TID 0000.0001) %MON ad_dynstat_adwvel_del2       =   2.6752397669339E-07
(PID.TID 0000.0001) %MON ad_dynstat_adtheta_max       =  -6.3766921560747E-01
(PID.TID 0000.0001) %MON ad_dynstat_adtheta_min       =  -7.0333591547918E+00
(PID.TID 0000.0001) %MON ad_dynstat_adtheta_mean      =  -3.8270515281557E+00
(PID.TID 0000.0001) %MON ad_dynstat_adtheta_sd        =   7.2398604070174E-02
(PID.TID 0000.0001) %MON ad_dynstat_adtheta_del2      =   3.9171028354529E-03
(PID.TID 0000.0001) %MON ad_dynstat_adsalt_max        =   4.9703456178804E-03
(PID.TID 0000.0001) %MON ad_dynstat_adsalt_min        =  -1.8690396933613E-03
(PID.TID 0000.0001) %MON ad_dynstat_adsalt_mean       =   1.2181687556970E-04
(PID.TID 0000.0001) %MON ad_dynstat_adsalt_sd         =   6.2096455096479E-04
(PID.TID 0000.0001) %MON ad_dynstat_adsalt_del2       =   1.2828337646990E-06
(PID.TID 0000.0001) // =======================================================
(PID.TID 0000.0001) // End MONITOR dynamic field statistics
(PID.TID 0000.0001) // =======================================================
 cg2d: Sum(rhs),rhsMax =  -7.84095011141517E-16  2.52486255659551E-03
(PID.TID 0000.0001)  nRecords = 243 ; filePrec =  64 ; fileIter =      8640
(PID.TID 0000.0001)     nDims =   2 , dims:
(PID.TID 0000.0001)    1:  50   1  50
(PID.TID 0000.0001)    2: 100   1 100
(PID.TID 0000.0001)     nFlds =  11 , nFl3D =   8 , fields:
(PID.TID 0000.0001)  >Uvel    < >Vvel    < >Theta   < >Salt    < >GuNm1   < >GvNm1   < >GtNm1   < >GsNm1   < >EtaN    < >dEtaHdt < >EtaH    <
(PID.TID 0000.0001) missingVal=  1.00000000000000E+00 ; nTimRec =   1 , timeList:
(PID.TID 0000.0001)   1.555200000000E+07
(PID.TID 0000.0001) READ_MFLDS_3D_RL: read field: "Uvel    ", #   1 in fldList, rec=   1
(PID.TID 0000.0001) READ_MFLDS_3D_RL: read field: "Vvel    ", #   2 in fldList, rec=   2
(PID.TID 0000.0001) READ_MFLDS_3D_RL: read field: "Theta   ", #   3 in fldList, rec=   3
(PID.TID 0000.0001) READ_MFLDS_3D_RL: read field: "Salt    ", #   4 in fldList, rec=   4
(PID.TID 0000.0001) READ_MFLDS_3D_RL: read field: "GuNm1   ", #   5 in fldList, rec=   5
(PID.TID 0000.0001) READ_MFLDS_3D_RL: read field: "GvNm1   ", #   6 in fldList, rec=   6
(PID.TID 0000.0001) READ_MFLDS_3D_RL: read field: "GtNm1   ", #   7 in fldList, rec=   7
(PID.TID 0000.0001) READ_MFLDS_3D_RL: read field: "GsNm1   ", #   8 in fldList, rec=   8
(PID.TID 0000.0001) READ_MFLDS_3D_RL: read field: "EtaN    ", #   9 in fldList, rec= 241
(PID.TID 0000.0001) READ_MFLDS_3D_RL: read field: "dEtaHdt ", #  10 in fldList, rec= 242
(PID.TID 0000.0001) READ_MFLDS_3D_RL: read field: "EtaH    ", #  11 in fldList, rec= 243
(PID.TID 0000.0001) READ_MFLDS_CHECK: - normal end ; reset MFLDS file-name: pickup.0000008640
(PID.TID 0000.0001) // =======================================================
(PID.TID 0000.0001) // Begin MONITOR dynamic field statistics
(PID.TID 0000.0001) // =======================================================
(PID.TID 0000.0001) %MON ad_time_tsnumber             =                  8640
(PID.TID 0000.0001) %MON ad_time_secondsf             =   1.5552000000000E+07
(PID.TID 0000.0001) %MON ad_dynstat_adeta_max         =   2.1088198732618E-02
(PID.TID 0000.0001) %MON ad_dynstat_adeta_min         =  -7.8858388039698E-02
(PID.TID 0000.0001) %MON ad_dynstat_adeta_mean        =  -1.4189393088171E-04
(PID.TID 0000.0001) %MON ad_dynstat_adeta_sd          =   6.5524121679225E-03
(PID.TID 0000.0001) %MON ad_dynstat_adeta_del2        =   1.0200022315544E-04
(PID.TID 0000.0001) %MON ad_dynstat_aduvel_max        =   1.9522118868152E-03
(PID.TID 0000.0001) %MON ad_dynstat_aduvel_min        =  -4.6602656847867E-04
(PID.TID 0000.0001) %MON ad_dynstat_aduvel_mean       =   2.8501026027899E-04
(PID.TID 0000.0001) %MON ad_dynstat_aduvel_sd         =   1.4956157055545E-04
(PID.TID 0000.0001) %MON ad_dynstat_aduvel_del2       =   3.5031326204482E-07
(PID.TID 0000.0001) %MON ad_dynstat_advvel_max        =   9.5031242067579E-04
(PID.TID 0000.0001) %MON ad_dynstat_advvel_min        =  -1.2026140755125E-03
(PID.TID 0000.0001) %MON ad_dynstat_advvel_mean       =  -8.3987725376854E-04
(PID.TID 0000.0001) %MON ad_dynstat_advvel_sd         =   2.8229259386483E-04
(PID.TID 0000.0001) %MON ad_dynstat_advvel_del2       =   9.9857436693110E-07
(PID.TID 0000.0001) %MON ad_dynstat_adwvel_max        =   5.2252143840202E-04
(PID.TID 0000.0001) %MON ad_dynstat_adwvel_min        =  -1.3604726389286E-03
(PID.TID 0000.0001) %MON ad_dynstat_adwvel_mean       =  -7.8174784610200E-06
(PID.TID 0000.0001) %MON ad_dynstat_adwvel_sd         =   5.9471048081286E-05
(PID.TID 0000.0001) %MON ad_dynstat_adwvel_del2       =   2.8300230758848E-07
(PID.TID 0000.0001) %MON ad_dynstat_adtheta_max       =  -6.3685787659465E-01
(PID.TID 0000.0001) %MON ad_dynstat_adtheta_min       =  -7.0525617823440E+00
(PID.TID 0000.0001) %MON ad_dynstat_adtheta_mean      =  -3.8271214350443E+00
(PID.TID 0000.0001) %MON ad_dynstat_adtheta_sd        =   8.0260498167885E-02
(PID.TID 0000.0001) %MON ad_dynstat_adtheta_del2      =   3.9224426929826E-03
(PID.TID 0000.0001) %MON ad_dynstat_adsalt_max        =   5.5154587571129E-03
(PID.TID 0000.0001) %MON ad_dynstat_adsalt_min        =  -2.1745208246177E-03
(PID.TID 0000.0001) %MON ad_dynstat_adsalt_mean       =   1.3859027139396E-04
(PID.TID 0000.0001) %MON ad_dynstat_adsalt_sd         =   6.8703105958344E-04
(PID.TID 0000.0001) %MON ad_dynstat_adsalt_del2       =   1.4110166776599E-06
(PID.TID 0000.0001) // =======================================================
(PID.TID 0000.0001) // End MONITOR dynamic field statistics
(PID.TID 0000.0001) // =======================================================
(PID.TID 0000.0001) // =======================================================
(PID.TID 0000.0001) // Gradient-check starts (grdchk_main)
(PID.TID 0000.0001) // =======================================================
(PID.TID 0000.0001) grdchk reference fc: fcref       =  3.69721219277340E+05
grad-res -------------------------------
 grad-res  proc    #    i    j    k   bi   bj iobc       fc ref            fc + eps           fc - eps
 grad-res  proc    #    i    j    k   bi   bj iobc      adj grad            fd grad          1 - fd/adj
 grad-res exact position met: 
 grad-res     0 1579   20   24   20    1    1
(PID.TID 0000.0001) ====== Starts gradient-check number   1 (=ichknum) =======
 ph-test icomp, ncvarcomp, ichknum         1579      100450           1
 ph-grd _loc: bi, bj, icomptest, ichknum            1           1           0           1
 ph-grd _loc: bi, bj, icomptest, ichknum            1           1           0           1
 ph-grd _loc: bi, bj, icomptest, ichknum            1           1           0           1
 ph-grd _loc: bi, bj, icomptest, ichknum            1           1           0           1
 ph-grd _loc: bi, bj, icomptest, ichknum            1           1           0           1
 ph-grd _loc: bi, bj, icomptest, ichknum            1           1           0           1
 ph-grd _loc: bi, bj, icomptest, ichknum            1           1           0           1
 ph-grd _loc: bi, bj, icomptest, ichknum            1           1           0           1
 ph-grd _loc: bi, bj, icomptest, ichknum            1           1           0           1
 ph-grd _loc: bi, bj, icomptest, ichknum            1           1           0           1
 ph-grd _loc: bi, bj, icomptest, ichknum            1           1           0           1
 ph-grd _loc: bi, bj, icomptest, ichknum            1           1           0           1
 ph-grd _loc: bi, bj, icomptest, ichknum            1           1           0           1
 ph-grd _loc: bi, bj, icomptest, ichknum            1           1           0           1
 ph-grd _loc: bi, bj, icomptest, ichknum            1           1          48           1
 ph-grd _loc: bi, bj, icomptest, ichknum            1           1         168           1
 ph-grd _loc: bi, bj, icomptest, ichknum            1           1         336           1
 ph-grd _loc: bi, bj, icomptest, ichknum            1           1         576           1
 ph-grd _loc: bi, bj, icomptest, ichknum            1           1         864           1
 ph-grd _loc: bi, bj, icomptest, ichknum            1           1        1200           1
 ph-grd -->hit<--           20          24          20           1
(PID.TID 0000.0001) grdchk pos: i,j,k=   20   24   20 ; bi,bj=   1   1 ; iobc=  1 ; rec=   1
(PID.TID 0000.0001)  nRecords = 243 ; filePrec =  64 ; fileIter =      8640
(PID.TID 0000.0001)     nDims =   2 , dims:
(PID.TID 0000.0001)    1:  50   1  50
(PID.TID 0000.0001)    2: 100   1 100
(PID.TID 0000.0001)     nFlds =  11 , nFl3D =   8 , fields:
(PID.TID 0000.0001)  >Uvel    < >Vvel    < >Theta   < >Salt    < >GuNm1   < >GvNm1   < >GtNm1   < >GsNm1   < >EtaN    < >dEtaHdt < >EtaH    <
(PID.TID 0000.0001) missingVal=  1.00000000000000E+00 ; nTimRec =   1 , timeList:
(PID.TID 0000.0001)   1.555200000000E+07
(PID.TID 0000.0001) READ_MFLDS_3D_RL: read field: "Uvel    ", #   1 in fldList, rec=   1
(PID.TID 0000.0001) READ_MFLDS_3D_RL: read field: "Vvel    ", #   2 in fldList, rec=   2
(PID.TID 0000.0001) READ_MFLDS_3D_RL: read field: "Theta   ", #   3 in fldList, rec=   3
(PID.TID 0000.0001) READ_MFLDS_3D_RL: read field: "Salt    ", #   4 in fldList, rec=   4
(PID.TID 0000.0001) READ_MFLDS_3D_RL: read field: "GuNm1   ", #   5 in fldList, rec=   5
(PID.TID 0000.0001) READ_MFLDS_3D_RL: read field: "GvNm1   ", #   6 in fldList, rec=   6
(PID.TID 0000.0001) READ_MFLDS_3D_RL: read field: "GtNm1   ", #   7 in fldList, rec=   7
(PID.TID 0000.0001) READ_MFLDS_3D_RL: read field: "GsNm1   ", #   8 in fldList, rec=   8
(PID.TID 0000.0001) READ_MFLDS_3D_RL: read field: "EtaN    ", #   9 in fldList, rec= 241
(PID.TID 0000.0001) READ_MFLDS_3D_RL: read field: "dEtaHdt ", #  10 in fldList, rec= 242
(PID.TID 0000.0001) READ_MFLDS_3D_RL: read field: "EtaH    ", #  11 in fldList, rec= 243
(PID.TID 0000.0001) READ_MFLDS_CHECK: - normal end ; reset MFLDS file-name: pickup.0000008640
(PID.TID 0000.0001) // =======================================================
(PID.TID 0000.0001) // Model current state
(PID.TID 0000.0001) // =======================================================
(PID.TID 0000.0001) 
(PID.TID 0000.0001) SOLVE_FOR_PRESSURE: putPmEinXvector =    F
 cg2d: Sum(rhs),rhsMax =   7.02715663436493E-13  5.97860431289981E-02
 cg2d: Sum(rhs),rhsMax =   7.14941994495177E-13  5.85512010039821E-02
 cg2d: Sum(rhs),rhsMax =   7.20881687676922E-13  5.84775714559938E-02
 cg2d: Sum(rhs),rhsMax =   7.16121606458842E-13  5.84638543395040E-02
 cg2d: Sum(rhs),rhsMax =   7.17342851785929E-13  5.84151863527998E-02
 cg2d: Sum(rhs),rhsMax =   7.16121606458842E-13  5.83794367925243E-02
 cg2d: Sum(rhs),rhsMax =   7.17322035104218E-13  5.84375373241394E-02
 cg2d: Sum(rhs),rhsMax =   7.16097320330178E-13  5.85071214487451E-02
 cg2d: Sum(rhs),rhsMax =   7.13118800121926E-13  5.85886577520820E-02
 cg2d: Sum(rhs),rhsMax =   7.14189991868341E-13  5.86804229088745E-02
(PID.TID 0000.0001) Did not write pickup because writePickupAtEnd = FALSE
 --> objf_shelfice(bi,bj) =  0.000000000000000D+00
 --> objf_shifwflx(bi,bj) =  0.000000000000000D+00
 --> objf_shelfice(bi,bj) =  0.000000000000000D+00
 --> objf_shifwflx(bi,bj) =  0.000000000000000D+00
 --> objf_shelfice(bi,bj) =  0.000000000000000D+00
 --> objf_shifwflx(bi,bj) =  0.000000000000000D+00
 --> objf_shelfice(bi,bj) =  0.000000000000000D+00
 --> objf_shifwflx(bi,bj) =  0.000000000000000D+00
 --> objf_shelfice(bi,bj) =  0.000000000000000D+00
 --> objf_shifwflx(bi,bj) =  0.000000000000000D+00
 --> objf_shelfice(bi,bj) =  0.000000000000000D+00
 --> objf_shifwflx(bi,bj) =  0.000000000000000D+00
 --> objf_shelfice(bi,bj) =  0.000000000000000D+00
 --> objf_shifwflx(bi,bj) =  0.000000000000000D+00
 --> objf_shelfice(bi,bj) =  0.000000000000000D+00
 --> objf_shifwflx(bi,bj) =  0.000000000000000D+00
  early fc =  0.000000000000000D+00
 --> objf_test(bi,bj)   =  0.272349034790637D+05
 --> objf_tracer(bi,bj) =  0.000000000000000D+00
 --> objf_atl(bi,bj)    =  0.000000000000000D+00
 --> objf_test(bi,bj)   =  0.280685772363547D+05
 --> objf_tracer(bi,bj) =  0.000000000000000D+00
 --> objf_atl(bi,bj)    =  0.000000000000000D+00
 --> objf_test(bi,bj)   =  0.489344114031560D+05
 --> objf_tracer(bi,bj) =  0.000000000000000D+00
 --> objf_atl(bi,bj)    =  0.000000000000000D+00
 --> objf_test(bi,bj)   =  0.505652022127858D+05
 --> objf_tracer(bi,bj) =  0.000000000000000D+00
 --> objf_atl(bi,bj)    =  0.000000000000000D+00
 --> objf_test(bi,bj)   =  0.526343617737207D+05
 --> objf_tracer(bi,bj) =  0.000000000000000D+00
 --> objf_atl(bi,bj)    =  0.000000000000000D+00
 --> objf_test(bi,bj)   =  0.548257487504769D+05
 --> objf_tracer(bi,bj) =  0.000000000000000D+00
 --> objf_atl(bi,bj)    =  0.000000000000000D+00
 --> objf_test(bi,bj)   =  0.526324781251774D+05
 --> objf_tracer(bi,bj) =  0.000000000000000D+00
 --> objf_atl(bi,bj)    =  0.000000000000000D+00
 --> objf_test(bi,bj)   =  0.548254981144606D+05
 --> objf_tracer(bi,bj) =  0.000000000000000D+00
 --> objf_atl(bi,bj)    =  0.000000000000000D+00
  local fc =  0.369721181095196D+06
 global fc =  0.369721181095196D+06
(PID.TID 0000.0001) grdchk perturb(+)fc: fcpertplus  =  3.69721181095196E+05
(PID.TID 0000.0001)  nRecords = 243 ; filePrec =  64 ; fileIter =      8640
(PID.TID 0000.0001)     nDims =   2 , dims:
(PID.TID 0000.0001)    1:  50   1  50
(PID.TID 0000.0001)    2: 100   1 100
(PID.TID 0000.0001)     nFlds =  11 , nFl3D =   8 , fields:
(PID.TID 0000.0001)  >Uvel    < >Vvel    < >Theta   < >Salt    < >GuNm1   < >GvNm1   < >GtNm1   < >GsNm1   < >EtaN    < >dEtaHdt < >EtaH    <
(PID.TID 0000.0001) missingVal=  1.00000000000000E+00 ; nTimRec =   1 , timeList:
(PID.TID 0000.0001)   1.555200000000E+07
(PID.TID 0000.0001) READ_MFLDS_3D_RL: read field: "Uvel    ", #   1 in fldList, rec=   1
(PID.TID 0000.0001) READ_MFLDS_3D_RL: read field: "Vvel    ", #   2 in fldList, rec=   2
(PID.TID 0000.0001) READ_MFLDS_3D_RL: read field: "Theta   ", #   3 in fldList, rec=   3
(PID.TID 0000.0001) READ_MFLDS_3D_RL: read field: "Salt    ", #   4 in fldList, rec=   4
(PID.TID 0000.0001) READ_MFLDS_3D_RL: read field: "GuNm1   ", #   5 in fldList, rec=   5
(PID.TID 0000.0001) READ_MFLDS_3D_RL: read field: "GvNm1   ", #   6 in fldList, rec=   6
(PID.TID 0000.0001) READ_MFLDS_3D_RL: read field: "GtNm1   ", #   7 in fldList, rec=   7
(PID.TID 0000.0001) READ_MFLDS_3D_RL: read field: "GsNm1   ", #   8 in fldList, rec=   8
(PID.TID 0000.0001) READ_MFLDS_3D_RL: read field: "EtaN    ", #   9 in fldList, rec= 241
(PID.TID 0000.0001) READ_MFLDS_3D_RL: read field: "dEtaHdt ", #  10 in fldList, rec= 242
(PID.TID 0000.0001) READ_MFLDS_3D_RL: read field: "EtaH    ", #  11 in fldList, rec= 243
(PID.TID 0000.0001) READ_MFLDS_CHECK: - normal end ; reset MFLDS file-name: pickup.0000008640
(PID.TID 0000.0001) // =======================================================
(PID.TID 0000.0001) // Model current state
(PID.TID 0000.0001) // =======================================================
(PID.TID 0000.0001) 
(PID.TID 0000.0001) SOLVE_FOR_PRESSURE: putPmEinXvector =    F
 cg2d: Sum(rhs),rhsMax =   7.02715663436493E-13  5.97860431289981E-02
 cg2d: Sum(rhs),rhsMax =   7.15483228219682E-13  5.85512022058530E-02
 cg2d: Sum(rhs),rhsMax =   7.17509385239623E-13  5.84775721879718E-02
 cg2d: Sum(rhs),rhsMax =   7.14928116707370E-13  5.84638540003643E-02
 cg2d: Sum(rhs),rhsMax =   7.17606529754278E-13  5.84151855321147E-02
 cg2d: Sum(rhs),rhsMax =   7.19174719776561E-13  5.83794362649040E-02
 cg2d: Sum(rhs),rhsMax =   7.16558756774788E-13  5.84375368186835E-02
 cg2d: Sum(rhs),rhsMax =   7.19660442349834E-13  5.85071208741910E-02
 cg2d: Sum(rhs),rhsMax =   7.15609863033428E-13  5.85886570959115E-02
 cg2d: Sum(rhs),rhsMax =   7.13810954788840E-13  5.86804222314194E-02
(PID.TID 0000.0001) Did not write pickup because writePickupAtEnd = FALSE
 --> objf_shelfice(bi,bj) =  0.000000000000000D+00
 --> objf_shifwflx(bi,bj) =  0.000000000000000D+00
 --> objf_shelfice(bi,bj) =  0.000000000000000D+00
 --> objf_shifwflx(bi,bj) =  0.000000000000000D+00
 --> objf_shelfice(bi,bj) =  0.000000000000000D+00
 --> objf_shifwflx(bi,bj) =  0.000000000000000D+00
 --> objf_shelfice(bi,bj) =  0.000000000000000D+00
 --> objf_shifwflx(bi,bj) =  0.000000000000000D+00
 --> objf_shelfice(bi,bj) =  0.000000000000000D+00
 --> objf_shifwflx(bi,bj) =  0.000000000000000D+00
 --> objf_shelfice(bi,bj) =  0.000000000000000D+00
 --> objf_shifwflx(bi,bj) =  0.000000000000000D+00
 --> objf_shelfice(bi,bj) =  0.000000000000000D+00
 --> objf_shifwflx(bi,bj) =  0.000000000000000D+00
 --> objf_shelfice(bi,bj) =  0.000000000000000D+00
 --> objf_shifwflx(bi,bj) =  0.000000000000000D+00
  early fc =  0.000000000000000D+00
 --> objf_test(bi,bj)   =  0.272349800049493D+05
 --> objf_tracer(bi,bj) =  0.000000000000000D+00
 --> objf_atl(bi,bj)    =  0.000000000000000D+00
 --> objf_test(bi,bj)   =  0.280685772364605D+05
 --> objf_tracer(bi,bj) =  0.000000000000000D+00
 --> objf_atl(bi,bj)    =  0.000000000000000D+00
 --> objf_test(bi,bj)   =  0.489344114035736D+05
 --> objf_tracer(bi,bj) =  0.000000000000000D+00
 --> objf_atl(bi,bj)    =  0.000000000000000D+00
 --> objf_test(bi,bj)   =  0.505652022128118D+05
 --> objf_tracer(bi,bj) =  0.000000000000000D+00
 --> objf_atl(bi,bj)    =  0.000000000000000D+00
 --> objf_test(bi,bj)   =  0.526343617737266D+05
 --> objf_tracer(bi,bj) =  0.000000000000000D+00
 --> objf_atl(bi,bj)    =  0.000000000000000D+00
 --> objf_test(bi,bj)   =  0.548257487504748D+05
 --> objf_tracer(bi,bj) =  0.000000000000000D+00
 --> objf_atl(bi,bj)    =  0.000000000000000D+00
 --> objf_test(bi,bj)   =  0.526324781251857D+05
 --> objf_tracer(bi,bj) =  0.000000000000000D+00
 --> objf_atl(bi,bj)    =  0.000000000000000D+00
 --> objf_test(bi,bj)   =  0.548254981144640D+05
 --> objf_tracer(bi,bj) =  0.000000000000000D+00
 --> objf_atl(bi,bj)    =  0.000000000000000D+00
  local fc =  0.369721257621647D+06
 global fc =  0.369721257621647D+06
(PID.TID 0000.0001) grdchk perturb(-)fc: fcpertminus =  3.69721257621647E+05
grad-res -------------------------------
 grad-res     0    1   20   24   20    1    1    1   3.69721219277E+05  3.69721181095E+05  3.69721257622E+05
 grad-res     0    1    1 1579    0    1    1    1  -3.82632251918E+00 -3.82632253459E+00 -4.02561450841E-09
(PID.TID 0000.0001)  ADM  ref_cost_function      =  3.69721219277340E+05
(PID.TID 0000.0001)  ADM  adjoint_gradient       = -3.82632251918393E+00
(PID.TID 0000.0001)  ADM  finite-diff_grad       = -3.82632253458723E+00
(PID.TID 0000.0001) ====== End of gradient-check number   1 (ierr=  0) =======
(PID.TID 0000.0001) ====== Starts gradient-check number   2 (=ichknum) =======
 ph-test icomp, ncvarcomp, ichknum         1580      100450           2
 ph-grd _loc: bi, bj, icomptest, ichknum            1           1        1579           2
 ph-grd -->hit<--           21          24          20           1
(PID.TID 0000.0001) grdchk pos: i,j,k=   21   24   20 ; bi,bj=   1   1 ; iobc=  1 ; rec=   1
(PID.TID 0000.0001)  nRecords = 243 ; filePrec =  64 ; fileIter =      8640
(PID.TID 0000.0001)     nDims =   2 , dims:
(PID.TID 0000.0001)    1:  50   1  50
(PID.TID 0000.0001)    2: 100   1 100
(PID.TID 0000.0001)     nFlds =  11 , nFl3D =   8 , fields:
(PID.TID 0000.0001)  >Uvel    < >Vvel    < >Theta   < >Salt    < >GuNm1   < >GvNm1   < >GtNm1   < >GsNm1   < >EtaN    < >dEtaHdt < >EtaH    <
(PID.TID 0000.0001) missingVal=  1.00000000000000E+00 ; nTimRec =   1 , timeList:
(PID.TID 0000.0001)   1.555200000000E+07
(PID.TID 0000.0001) READ_MFLDS_3D_RL: read field: "Uvel    ", #   1 in fldList, rec=   1
(PID.TID 0000.0001) READ_MFLDS_3D_RL: read field: "Vvel    ", #   2 in fldList, rec=   2
(PID.TID 0000.0001) READ_MFLDS_3D_RL: read field: "Theta   ", #   3 in fldList, rec=   3
(PID.TID 0000.0001) READ_MFLDS_3D_RL: read field: "Salt    ", #   4 in fldList, rec=   4
(PID.TID 0000.0001) READ_MFLDS_3D_RL: read field: "GuNm1   ", #   5 in fldList, rec=   5
(PID.TID 0000.0001) READ_MFLDS_3D_RL: read field: "GvNm1   ", #   6 in fldList, rec=   6
(PID.TID 0000.0001) READ_MFLDS_3D_RL: read field: "GtNm1   ", #   7 in fldList, rec=   7
(PID.TID 0000.0001) READ_MFLDS_3D_RL: read field: "GsNm1   ", #   8 in fldList, rec=   8
(PID.TID 0000.0001) READ_MFLDS_3D_RL: read field: "EtaN    ", #   9 in fldList, rec= 241
(PID.TID 0000.0001) READ_MFLDS_3D_RL: read field: "dEtaHdt ", #  10 in fldList, rec= 242
(PID.TID 0000.0001) READ_MFLDS_3D_RL: read field: "EtaH    ", #  11 in fldList, rec= 243
(PID.TID 0000.0001) READ_MFLDS_CHECK: - normal end ; reset MFLDS file-name: pickup.0000008640
(PID.TID 0000.0001) // =======================================================
(PID.TID 0000.0001) // Model current state
(PID.TID 0000.0001) // =======================================================
(PID.TID 0000.0001) 
(PID.TID 0000.0001) SOLVE_FOR_PRESSURE: putPmEinXvector =    F
 cg2d: Sum(rhs),rhsMax =   7.02882196890187E-13  5.97860431289981E-02
 cg2d: Sum(rhs),rhsMax =   7.14858727768330E-13  5.85512010382558E-02
 cg2d: Sum(rhs),rhsMax =   7.18050618964128E-13  5.84775714366601E-02
 cg2d: Sum(rhs),rhsMax =   7.18688997203287E-13  5.84638542672240E-02
 cg2d: Sum(rhs),rhsMax =   7.15566494946529E-13  5.84151862567211E-02
 cg2d: Sum(rhs),rhsMax =   7.19077575261906E-13  5.83794366666247E-02
 cg2d: Sum(rhs),rhsMax =   7.20541681875631E-13  5.84375371688066E-02
 cg2d: Sum(rhs),rhsMax =   7.16413040002806E-13  5.85071212598914E-02
 cg2d: Sum(rhs),rhsMax =   7.14926381983894E-13  5.85886575303885E-02
 cg2d: Sum(rhs),rhsMax =   7.16583042903451E-13  5.86804226557268E-02
(PID.TID 0000.0001) Did not write pickup because writePickupAtEnd = FALSE
 --> objf_shelfice(bi,bj) =  0.000000000000000D+00
 --> objf_shifwflx(bi,bj) =  0.000000000000000D+00
 --> objf_shelfice(bi,bj) =  0.000000000000000D+00
 --> objf_shifwflx(bi,bj) =  0.000000000000000D+00
 --> objf_shelfice(bi,bj) =  0.000000000000000D+00
 --> objf_shifwflx(bi,bj) =  0.000000000000000D+00
 --> objf_shelfice(bi,bj) =  0.000000000000000D+00
 --> objf_shifwflx(bi,bj) =  0.000000000000000D+00
 --> objf_shelfice(bi,bj) =  0.000000000000000D+00
 --> objf_shifwflx(bi,bj) =  0.000000000000000D+00
 --> objf_shelfice(bi,bj) =  0.000000000000000D+00
 --> objf_shifwflx(bi,bj) =  0.000000000000000D+00
 --> objf_shelfice(bi,bj) =  0.000000000000000D+00
 --> objf_shifwflx(bi,bj) =  0.000000000000000D+00
 --> objf_shelfice(bi,bj) =  0.000000000000000D+00
 --> objf_shifwflx(bi,bj) =  0.000000000000000D+00
  early fc =  0.000000000000000D+00
 --> objf_test(bi,bj)   =  0.272349034845134D+05
 --> objf_tracer(bi,bj) =  0.000000000000000D+00
 --> objf_atl(bi,bj)    =  0.000000000000000D+00
 --> objf_test(bi,bj)   =  0.280685772363296D+05
 --> objf_tracer(bi,bj) =  0.000000000000000D+00
 --> objf_atl(bi,bj)    =  0.000000000000000D+00
 --> objf_test(bi,bj)   =  0.489344114031613D+05
 --> objf_tracer(bi,bj) =  0.000000000000000D+00
 --> objf_atl(bi,bj)    =  0.000000000000000D+00
 --> objf_test(bi,bj)   =  0.505652022127867D+05
 --> objf_tracer(bi,bj) =  0.000000000000000D+00
 --> objf_atl(bi,bj)    =  0.000000000000000D+00
 --> objf_test(bi,bj)   =  0.526343617737210D+05
 --> objf_tracer(bi,bj) =  0.000000000000000D+00
 --> objf_atl(bi,bj)    =  0.000000000000000D+00
 --> objf_test(bi,bj)   =  0.548257487504770D+05
 --> objf_tracer(bi,bj) =  0.000000000000000D+00
 --> objf_atl(bi,bj)    =  0.000000000000000D+00
 --> objf_test(bi,bj)   =  0.526324781251778D+05
 --> objf_tracer(bi,bj) =  0.000000000000000D+00
 --> objf_atl(bi,bj)    =  0.000000000000000D+00
 --> objf_test(bi,bj)   =  0.548254981144608D+05
 --> objf_tracer(bi,bj) =  0.000000000000000D+00
 --> objf_atl(bi,bj)    =  0.000000000000000D+00
  local fc =  0.369721181100627D+06
 global fc =  0.369721181100627D+06
(PID.TID 0000.0001) grdchk perturb(+)fc: fcpertplus  =  3.69721181100627E+05
(PID.TID 0000.0001)  nRecords = 243 ; filePrec =  64 ; fileIter =      8640
(PID.TID 0000.0001)     nDims =   2 , dims:
(PID.TID 0000.0001)    1:  50   1  50
(PID.TID 0000.0001)    2: 100   1 100
(PID.TID 0000.0001)     nFlds =  11 , nFl3D =   8 , fields:
(PID.TID 0000.0001)  >Uvel    < >Vvel    < >Theta   < >Salt    < >GuNm1   < >GvNm1   < >GtNm1   < >GsNm1   < >EtaN    < >dEtaHdt < >EtaH    <
(PID.TID 0000.0001) missingVal=  1.00000000000000E+00 ; nTimRec =   1 , timeList:
(PID.TID 0000.0001)   1.555200000000E+07
(PID.TID 0000.0001) READ_MFLDS_3D_RL: read field: "Uvel    ", #   1 in fldList, rec=   1
(PID.TID 0000.0001) READ_MFLDS_3D_RL: read field: "Vvel    ", #   2 in fldList, rec=   2
(PID.TID 0000.0001) READ_MFLDS_3D_RL: read field: "Theta   ", #   3 in fldList, rec=   3
(PID.TID 0000.0001) READ_MFLDS_3D_RL: read field: "Salt    ", #   4 in fldList, rec=   4
(PID.TID 0000.0001) READ_MFLDS_3D_RL: read field: "GuNm1   ", #   5 in fldList, rec=   5
(PID.TID 0000.0001) READ_MFLDS_3D_RL: read field: "GvNm1   ", #   6 in fldList, rec=   6
(PID.TID 0000.0001) READ_MFLDS_3D_RL: read field: "GtNm1   ", #   7 in fldList, rec=   7
(PID.TID 0000.0001) READ_MFLDS_3D_RL: read field: "GsNm1   ", #   8 in fldList, rec=   8
(PID.TID 0000.0001) READ_MFLDS_3D_RL: read field: "EtaN    ", #   9 in fldList, rec= 241
(PID.TID 0000.0001) READ_MFLDS_3D_RL: read field: "dEtaHdt ", #  10 in fldList, rec= 242
(PID.TID 0000.0001) READ_MFLDS_3D_RL: read field: "EtaH    ", #  11 in fldList, rec= 243
(PID.TID 0000.0001) READ_MFLDS_CHECK: - normal end ; reset MFLDS file-name: pickup.0000008640
(PID.TID 0000.0001) // =======================================================
(PID.TID 0000.0001) // Model current state
(PID.TID 0000.0001) // =======================================================
(PID.TID 0000.0001) 
(PID.TID 0000.0001) SOLVE_FOR_PRESSURE: putPmEinXvector =    F
 cg2d: Sum(rhs),rhsMax =   7.02882196890187E-13  5.97860431289981E-02
 cg2d: Sum(rhs),rhsMax =   7.16829373637040E-13  5.85512021718161E-02
 cg2d: Sum(rhs),rhsMax =   7.17467751876200E-13  5.84775722071180E-02
 cg2d: Sum(rhs),rhsMax =   7.17009784878542E-13  5.84638540724556E-02
 cg2d: Sum(rhs),rhsMax =   7.17217951695659E-13  5.84151856279783E-02
 cg2d: Sum(rhs),rhsMax =   7.18786141717942E-13  5.83794363897747E-02
 cg2d: Sum(rhs),rhsMax =   7.17557957496950E-13  5.84375369738006E-02
 cg2d: Sum(rhs),rhsMax =   7.16968151515118E-13  5.85071210624144E-02
 cg2d: Sum(rhs),rhsMax =   7.16312426041199E-13  5.85886573167485E-02
 cg2d: Sum(rhs),rhsMax =   7.15454605282329E-13  5.86804224835623E-02
(PID.TID 0000.0001) Did not write pickup because writePickupAtEnd = FALSE
 --> objf_shelfice(bi,bj) =  0.000000000000000D+00
 --> objf_shifwflx(bi,bj) =  0.000000000000000D+00
 --> objf_shelfice(bi,bj) =  0.000000000000000D+00
 --> objf_shifwflx(bi,bj) =  0.000000000000000D+00
 --> objf_shelfice(bi,bj) =  0.000000000000000D+00
 --> objf_shifwflx(bi,bj) =  0.000000000000000D+00
 --> objf_shelfice(bi,bj) =  0.000000000000000D+00
 --> objf_shifwflx(bi,bj) =  0.000000000000000D+00
 --> objf_shelfice(bi,bj) =  0.000000000000000D+00
 --> objf_shifwflx(bi,bj) =  0.000000000000000D+00
 --> objf_shelfice(bi,bj) =  0.000000000000000D+00
 --> objf_shifwflx(bi,bj) =  0.000000000000000D+00
 --> objf_shelfice(bi,bj) =  0.000000000000000D+00
 --> objf_shifwflx(bi,bj) =  0.000000000000000D+00
 --> objf_shelfice(bi,bj) =  0.000000000000000D+00
 --> objf_shifwflx(bi,bj) =  0.000000000000000D+00
  early fc =  0.000000000000000D+00
 --> objf_test(bi,bj)   =  0.272349799994999D+05
 --> objf_tracer(bi,bj) =  0.000000000000000D+00
 --> objf_atl(bi,bj)    =  0.000000000000000D+00
 --> objf_test(bi,bj)   =  0.280685772364856D+05
 --> objf_tracer(bi,bj) =  0.000000000000000D+00
 --> objf_atl(bi,bj)    =  0.000000000000000D+00
 --> objf_test(bi,bj)   =  0.489344114035685D+05
 --> objf_tracer(bi,bj) =  0.000000000000000D+00
 --> objf_atl(bi,bj)    =  0.000000000000000D+00
 --> objf_test(bi,bj)   =  0.505652022128109D+05
 --> objf_tracer(bi,bj) =  0.000000000000000D+00
 --> objf_atl(bi,bj)    =  0.000000000000000D+00
 --> objf_test(bi,bj)   =  0.526343617737263D+05
 --> objf_tracer(bi,bj) =  0.000000000000000D+00
 --> objf_atl(bi,bj)    =  0.000000000000000D+00
 --> objf_test(bi,bj)   =  0.548257487504747D+05
 --> objf_tracer(bi,bj) =  0.000000000000000D+00
 --> objf_atl(bi,bj)    =  0.000000000000000D+00
 --> objf_test(bi,bj)   =  0.526324781251854D+05
 --> objf_tracer(bi,bj) =  0.000000000000000D+00
 --> objf_atl(bi,bj)    =  0.000000000000000D+00
 --> objf_test(bi,bj)   =  0.548254981144637D+05
 --> objf_tracer(bi,bj) =  0.000000000000000D+00
 --> objf_atl(bi,bj)    =  0.000000000000000D+00
  local fc =  0.369721257616215D+06
 global fc =  0.369721257616215D+06
(PID.TID 0000.0001) grdchk perturb(-)fc: fcpertminus =  3.69721257616215E+05
grad-res -------------------------------
 grad-res     0    2   21   24   20    1    1    1   3.69721219277E+05  3.69721181101E+05  3.69721257616E+05
 grad-res     0    2    2 1580    0    1    1    1  -3.82577937013E+00 -3.82577937271E+00 -6.75623557100E-10
(PID.TID 0000.0001)  ADM  ref_cost_function      =  3.69721219277340E+05
(PID.TID 0000.0001)  ADM  adjoint_gradient       = -3.82577937012502E+00
(PID.TID 0000.0001)  ADM  finite-diff_grad       = -3.82577937270980E+00
(PID.TID 0000.0001) ====== End of gradient-check number   2 (ierr=  0) =======
(PID.TID 0000.0001) ====== Starts gradient-check number   3 (=ichknum) =======
 ph-test icomp, ncvarcomp, ichknum         1581      100450           3
 ph-grd _loc: bi, bj, icomptest, ichknum            1           1        1580           3
 ph-grd -->hit<--           22          24          20           1
(PID.TID 0000.0001) grdchk pos: i,j,k=   22   24   20 ; bi,bj=   1   1 ; iobc=  1 ; rec=   1
(PID.TID 0000.0001)  nRecords = 243 ; filePrec =  64 ; fileIter =      8640
(PID.TID 0000.0001)     nDims =   2 , dims:
(PID.TID 0000.0001)    1:  50   1  50
(PID.TID 0000.0001)    2: 100   1 100
(PID.TID 0000.0001)     nFlds =  11 , nFl3D =   8 , fields:
(PID.TID 0000.0001)  >Uvel    < >Vvel    < >Theta   < >Salt    < >GuNm1   < >GvNm1   < >GtNm1   < >GsNm1   < >EtaN    < >dEtaHdt < >EtaH    <
(PID.TID 0000.0001) missingVal=  1.00000000000000E+00 ; nTimRec =   1 , timeList:
(PID.TID 0000.0001)   1.555200000000E+07
(PID.TID 0000.0001) READ_MFLDS_3D_RL: read field: "Uvel    ", #   1 in fldList, rec=   1
(PID.TID 0000.0001) READ_MFLDS_3D_RL: read field: "Vvel    ", #   2 in fldList, rec=   2
(PID.TID 0000.0001) READ_MFLDS_3D_RL: read field: "Theta   ", #   3 in fldList, rec=   3
(PID.TID 0000.0001) READ_MFLDS_3D_RL: read field: "Salt    ", #   4 in fldList, rec=   4
(PID.TID 0000.0001) READ_MFLDS_3D_RL: read field: "GuNm1   ", #   5 in fldList, rec=   5
(PID.TID 0000.0001) READ_MFLDS_3D_RL: read field: "GvNm1   ", #   6 in fldList, rec=   6
(PID.TID 0000.0001) READ_MFLDS_3D_RL: read field: "GtNm1   ", #   7 in fldList, rec=   7
(PID.TID 0000.0001) READ_MFLDS_3D_RL: read field: "GsNm1   ", #   8 in fldList, rec=   8
(PID.TID 0000.0001) READ_MFLDS_3D_RL: read field: "EtaN    ", #   9 in fldList, rec= 241
(PID.TID 0000.0001) READ_MFLDS_3D_RL: read field: "dEtaHdt ", #  10 in fldList, rec= 242
(PID.TID 0000.0001) READ_MFLDS_3D_RL: read field: "EtaH    ", #  11 in fldList, rec= 243
(PID.TID 0000.0001) READ_MFLDS_CHECK: - normal end ; reset MFLDS file-name: pickup.0000008640
(PID.TID 0000.0001) // =======================================================
(PID.TID 0000.0001) // Model current state
(PID.TID 0000.0001) // =======================================================
(PID.TID 0000.0001) 
(PID.TID 0000.0001) SOLVE_FOR_PRESSURE: putPmEinXvector =    F
 cg2d: Sum(rhs),rhsMax =   7.02771174587724E-13  5.97860431289981E-02
 cg2d: Sum(rhs),rhsMax =   7.14220349529171E-13  5.85512010712598E-02
 cg2d: Sum(rhs),rhsMax =   7.17453874088392E-13  5.84775714213504E-02
 cg2d: Sum(rhs),rhsMax =   7.17703674268932E-13  5.84638542023252E-02
 cg2d: Sum(rhs),rhsMax =   7.16371406639382E-13  5.84151861695825E-02
 cg2d: Sum(rhs),rhsMax =   7.17190196120043E-13  5.83794365579101E-02
 cg2d: Sum(rhs),rhsMax =   7.16690595758962E-13  5.84375370342324E-02
 cg2d: Sum(rhs),rhsMax =   7.16517123411364E-13  5.85071210965395E-02
 cg2d: Sum(rhs),rhsMax =   7.19528603365660E-13  5.85886573387935E-02
 cg2d: Sum(rhs),rhsMax =   7.19704677798472E-13  5.86804224373193E-02
(PID.TID 0000.0001) Did not write pickup because writePickupAtEnd = FALSE
 --> objf_shelfice(bi,bj) =  0.000000000000000D+00
 --> objf_shifwflx(bi,bj) =  0.000000000000000D+00
 --> objf_shelfice(bi,bj) =  0.000000000000000D+00
 --> objf_shifwflx(bi,bj) =  0.000000000000000D+00
 --> objf_shelfice(bi,bj) =  0.000000000000000D+00
 --> objf_shifwflx(bi,bj) =  0.000000000000000D+00
 --> objf_shelfice(bi,bj) =  0.000000000000000D+00
 --> objf_shifwflx(bi,bj) =  0.000000000000000D+00
 --> objf_shelfice(bi,bj) =  0.000000000000000D+00
 --> objf_shifwflx(bi,bj) =  0.000000000000000D+00
 --> objf_shelfice(bi,bj) =  0.000000000000000D+00
 --> objf_shifwflx(bi,bj) =  0.000000000000000D+00
 --> objf_shelfice(bi,bj) =  0.000000000000000D+00
 --> objf_shifwflx(bi,bj) =  0.000000000000000D+00
 --> objf_shelfice(bi,bj) =  0.000000000000000D+00
 --> objf_shifwflx(bi,bj) =  0.000000000000000D+00
  early fc =  0.000000000000000D+00
 --> objf_test(bi,bj)   =  0.272349034883570D+05
 --> objf_tracer(bi,bj) =  0.000000000000000D+00
 --> objf_atl(bi,bj)    =  0.000000000000000D+00
 --> objf_test(bi,bj)   =  0.280685772360989D+05
 --> objf_tracer(bi,bj) =  0.000000000000000D+00
 --> objf_atl(bi,bj)    =  0.000000000000000D+00
 --> objf_test(bi,bj)   =  0.489344114031524D+05
 --> objf_tracer(bi,bj) =  0.000000000000000D+00
 --> objf_atl(bi,bj)    =  0.000000000000000D+00
 --> objf_test(bi,bj)   =  0.505652022127805D+05
 --> objf_tracer(bi,bj) =  0.000000000000000D+00
 --> objf_atl(bi,bj)    =  0.000000000000000D+00
 --> objf_test(bi,bj)   =  0.526343617737212D+05
 --> objf_tracer(bi,bj) =  0.000000000000000D+00
 --> objf_atl(bi,bj)    =  0.000000000000000D+00
 --> objf_test(bi,bj)   =  0.548257487504771D+05
 --> objf_tracer(bi,bj) =  0.000000000000000D+00
 --> objf_atl(bi,bj)    =  0.000000000000000D+00
 --> objf_test(bi,bj)   =  0.526324781251782D+05
 --> objf_tracer(bi,bj) =  0.000000000000000D+00
 --> objf_atl(bi,bj)    =  0.000000000000000D+00
 --> objf_test(bi,bj)   =  0.548254981144611D+05
 --> objf_tracer(bi,bj) =  0.000000000000000D+00
 --> objf_atl(bi,bj)    =  0.000000000000000D+00
  local fc =  0.369721181104227D+06
 global fc =  0.369721181104227D+06
(PID.TID 0000.0001) grdchk perturb(+)fc: fcpertplus  =  3.69721181104227E+05
(PID.TID 0000.0001)  nRecords = 243 ; filePrec =  64 ; fileIter =      8640
(PID.TID 0000.0001)     nDims =   2 , dims:
(PID.TID 0000.0001)    1:  50   1  50
(PID.TID 0000.0001)    2: 100   1 100
(PID.TID 0000.0001)     nFlds =  11 , nFl3D =   8 , fields:
(PID.TID 0000.0001)  >Uvel    < >Vvel    < >Theta   < >Salt    < >GuNm1   < >GvNm1   < >GtNm1   < >GsNm1   < >EtaN    < >dEtaHdt < >EtaH    <
(PID.TID 0000.0001) missingVal=  1.00000000000000E+00 ; nTimRec =   1 , timeList:
(PID.TID 0000.0001)   1.555200000000E+07
(PID.TID 0000.0001) READ_MFLDS_3D_RL: read field: "Uvel    ", #   1 in fldList, rec=   1
(PID.TID 0000.0001) READ_MFLDS_3D_RL: read field: "Vvel    ", #   2 in fldList, rec=   2
(PID.TID 0000.0001) READ_MFLDS_3D_RL: read field: "Theta   ", #   3 in fldList, rec=   3
(PID.TID 0000.0001) READ_MFLDS_3D_RL: read field: "Salt    ", #   4 in fldList, rec=   4
(PID.TID 0000.0001) READ_MFLDS_3D_RL: read field: "GuNm1   ", #   5 in fldList, rec=   5
(PID.TID 0000.0001) READ_MFLDS_3D_RL: read field: "GvNm1   ", #   6 in fldList, rec=   6
(PID.TID 0000.0001) READ_MFLDS_3D_RL: read field: "GtNm1   ", #   7 in fldList, rec=   7
(PID.TID 0000.0001) READ_MFLDS_3D_RL: read field: "GsNm1   ", #   8 in fldList, rec=   8
(PID.TID 0000.0001) READ_MFLDS_3D_RL: read field: "EtaN    ", #   9 in fldList, rec= 241
(PID.TID 0000.0001) READ_MFLDS_3D_RL: read field: "dEtaHdt ", #  10 in fldList, rec= 242
(PID.TID 0000.0001) READ_MFLDS_3D_RL: read field: "EtaH    ", #  11 in fldList, rec= 243
(PID.TID 0000.0001) READ_MFLDS_CHECK: - normal end ; reset MFLDS file-name: pickup.0000008640
(PID.TID 0000.0001) // =======================================================
(PID.TID 0000.0001) // Model current state
(PID.TID 0000.0001) // =======================================================
(PID.TID 0000.0001) 
(PID.TID 0000.0001) SOLVE_FOR_PRESSURE: putPmEinXvector =    F
 cg2d: Sum(rhs),rhsMax =   7.02660152285262E-13  5.97860431289981E-02
 cg2d: Sum(rhs),rhsMax =   7.17509385239623E-13  5.85512021389343E-02
 cg2d: Sum(rhs),rhsMax =   7.18480830386170E-13  5.84775722222427E-02
 cg2d: Sum(rhs),rhsMax =   7.16440795578421E-13  5.84638541372258E-02
 cg2d: Sum(rhs),rhsMax =   7.17065296029773E-13  5.84151857149203E-02
 cg2d: Sum(rhs),rhsMax =   7.18355930295900E-13  5.83794364986495E-02
 cg2d: Sum(rhs),rhsMax =   7.16190995397881E-13  5.84375371078373E-02
 cg2d: Sum(rhs),rhsMax =   7.15934256323436E-13  5.85071212256282E-02
 cg2d: Sum(rhs),rhsMax =   7.14664438739021E-13  5.85886575081180E-02
 cg2d: Sum(rhs),rhsMax =   7.17827706997465E-13  5.86804227015621E-02
(PID.TID 0000.0001) Did not write pickup because writePickupAtEnd = FALSE
 --> objf_shelfice(bi,bj) =  0.000000000000000D+00
 --> objf_shifwflx(bi,bj) =  0.000000000000000D+00
 --> objf_shelfice(bi,bj) =  0.000000000000000D+00
 --> objf_shifwflx(bi,bj) =  0.000000000000000D+00
 --> objf_shelfice(bi,bj) =  0.000000000000000D+00
 --> objf_shifwflx(bi,bj) =  0.000000000000000D+00
 --> objf_shelfice(bi,bj) =  0.000000000000000D+00
 --> objf_shifwflx(bi,bj) =  0.000000000000000D+00
 --> objf_shelfice(bi,bj) =  0.000000000000000D+00
 --> objf_shifwflx(bi,bj) =  0.000000000000000D+00
 --> objf_shelfice(bi,bj) =  0.000000000000000D+00
 --> objf_shifwflx(bi,bj) =  0.000000000000000D+00
 --> objf_shelfice(bi,bj) =  0.000000000000000D+00
 --> objf_shifwflx(bi,bj) =  0.000000000000000D+00
 --> objf_shelfice(bi,bj) =  0.000000000000000D+00
 --> objf_shifwflx(bi,bj) =  0.000000000000000D+00
  early fc =  0.000000000000000D+00
 --> objf_test(bi,bj)   =  0.272349799956569D+05
 --> objf_tracer(bi,bj) =  0.000000000000000D+00
 --> objf_atl(bi,bj)    =  0.000000000000000D+00
 --> objf_test(bi,bj)   =  0.280685772367156D+05
 --> objf_tracer(bi,bj) =  0.000000000000000D+00
 --> objf_atl(bi,bj)    =  0.000000000000000D+00
 --> objf_test(bi,bj)   =  0.489344114035771D+05
 --> objf_tracer(bi,bj) =  0.000000000000000D+00
 --> objf_atl(bi,bj)    =  0.000000000000000D+00
 --> objf_test(bi,bj)   =  0.505652022128171D+05
 --> objf_tracer(bi,bj) =  0.000000000000000D+00
 --> objf_atl(bi,bj)    =  0.000000000000000D+00
 --> objf_test(bi,bj)   =  0.526343617737261D+05
 --> objf_tracer(bi,bj) =  0.000000000000000D+00
 --> objf_atl(bi,bj)    =  0.000000000000000D+00
 --> objf_test(bi,bj)   =  0.548257487504746D+05
 --> objf_tracer(bi,bj) =  0.000000000000000D+00
 --> objf_atl(bi,bj)    =  0.000000000000000D+00
 --> objf_test(bi,bj)   =  0.526324781251851D+05
 --> objf_tracer(bi,bj) =  0.000000000000000D+00
 --> objf_atl(bi,bj)    =  0.000000000000000D+00
 --> objf_test(bi,bj)   =  0.548254981144635D+05
 --> objf_tracer(bi,bj) =  0.000000000000000D+00
 --> objf_atl(bi,bj)    =  0.000000000000000D+00
  local fc =  0.369721257612616D+06
 global fc =  0.369721257612616D+06
(PID.TID 0000.0001) grdchk perturb(-)fc: fcpertminus =  3.69721257612616E+05
grad-res -------------------------------
 grad-res     0    3   22   24   20    1    1    1   3.69721219277E+05  3.69721181104E+05  3.69721257613E+05
 grad-res     0    3    3 1581    0    1    1    1  -3.82541946069E+00 -3.82541947183E+00 -2.91368484895E-09
(PID.TID 0000.0001)  ADM  ref_cost_function      =  3.69721219277340E+05
(PID.TID 0000.0001)  ADM  adjoint_gradient       = -3.82541946068593E+00
(PID.TID 0000.0001)  ADM  finite-diff_grad       = -3.82541947183199E+00
(PID.TID 0000.0001) ====== End of gradient-check number   3 (ierr=  0) =======
(PID.TID 0000.0001) ====== Starts gradient-check number   4 (=ichknum) =======
 ph-test icomp, ncvarcomp, ichknum         1582      100450           4
 ph-grd _loc: bi, bj, icomptest, ichknum            1           1        1581           4
 ph-grd -->hit<--           23          24          20           1
(PID.TID 0000.0001) grdchk pos: i,j,k=   23   24   20 ; bi,bj=   1   1 ; iobc=  1 ; rec=   1
(PID.TID 0000.0001)  nRecords = 243 ; filePrec =  64 ; fileIter =      8640
(PID.TID 0000.0001)     nDims =   2 , dims:
(PID.TID 0000.0001)    1:  50   1  50
(PID.TID 0000.0001)    2: 100   1 100
(PID.TID 0000.0001)     nFlds =  11 , nFl3D =   8 , fields:
(PID.TID 0000.0001)  >Uvel    < >Vvel    < >Theta   < >Salt    < >GuNm1   < >GvNm1   < >GtNm1   < >GsNm1   < >EtaN    < >dEtaHdt < >EtaH    <
(PID.TID 0000.0001) missingVal=  1.00000000000000E+00 ; nTimRec =   1 , timeList:
(PID.TID 0000.0001)   1.555200000000E+07
(PID.TID 0000.0001) READ_MFLDS_3D_RL: read field: "Uvel    ", #   1 in fldList, rec=   1
(PID.TID 0000.0001) READ_MFLDS_3D_RL: read field: "Vvel    ", #   2 in fldList, rec=   2
(PID.TID 0000.0001) READ_MFLDS_3D_RL: read field: "Theta   ", #   3 in fldList, rec=   3
(PID.TID 0000.0001) READ_MFLDS_3D_RL: read field: "Salt    ", #   4 in fldList, rec=   4
(PID.TID 0000.0001) READ_MFLDS_3D_RL: read field: "GuNm1   ", #   5 in fldList, rec=   5
(PID.TID 0000.0001) READ_MFLDS_3D_RL: read field: "GvNm1   ", #   6 in fldList, rec=   6
(PID.TID 0000.0001) READ_MFLDS_3D_RL: read field: "GtNm1   ", #   7 in fldList, rec=   7
(PID.TID 0000.0001) READ_MFLDS_3D_RL: read field: "GsNm1   ", #   8 in fldList, rec=   8
(PID.TID 0000.0001) READ_MFLDS_3D_RL: read field: "EtaN    ", #   9 in fldList, rec= 241
(PID.TID 0000.0001) READ_MFLDS_3D_RL: read field: "dEtaHdt ", #  10 in fldList, rec= 242
(PID.TID 0000.0001) READ_MFLDS_3D_RL: read field: "EtaH    ", #  11 in fldList, rec= 243
(PID.TID 0000.0001) READ_MFLDS_CHECK: - normal end ; reset MFLDS file-name: pickup.0000008640
(PID.TID 0000.0001) // =======================================================
(PID.TID 0000.0001) // Model current state
(PID.TID 0000.0001) // =======================================================
(PID.TID 0000.0001) 
(PID.TID 0000.0001) SOLVE_FOR_PRESSURE: putPmEinXvector =    F
 cg2d: Sum(rhs),rhsMax =   7.02826685738955E-13  5.97860431289981E-02
 cg2d: Sum(rhs),rhsMax =   7.16871007000464E-13  5.85512011030280E-02
 cg2d: Sum(rhs),rhsMax =   7.20104531559684E-13  5.84775714098170E-02
 cg2d: Sum(rhs),rhsMax =   7.15663639461184E-13  5.84638541439740E-02
 cg2d: Sum(rhs),rhsMax =   7.19299619866831E-13  5.84151860904949E-02
 cg2d: Sum(rhs),rhsMax =   7.17356729573737E-13  5.83794364632708E-02
 cg2d: Sum(rhs),rhsMax =   7.18466952598362E-13  5.84375369173338E-02
 cg2d: Sum(rhs),rhsMax =   7.16982029302926E-13  5.85071209549631E-02
 cg2d: Sum(rhs),rhsMax =   7.18348991401996E-13  5.85886571726580E-02
 cg2d: Sum(rhs),rhsMax =   7.16051350158065E-13  5.86804222484052E-02
(PID.TID 0000.0001) Did not write pickup because writePickupAtEnd = FALSE
 --> objf_shelfice(bi,bj) =  0.000000000000000D+00
 --> objf_shifwflx(bi,bj) =  0.000000000000000D+00
 --> objf_shelfice(bi,bj) =  0.000000000000000D+00
 --> objf_shifwflx(bi,bj) =  0.000000000000000D+00
 --> objf_shelfice(bi,bj) =  0.000000000000000D+00
 --> objf_shifwflx(bi,bj) =  0.000000000000000D+00
 --> objf_shelfice(bi,bj) =  0.000000000000000D+00
 --> objf_shifwflx(bi,bj) =  0.000000000000000D+00
 --> objf_shelfice(bi,bj) =  0.000000000000000D+00
 --> objf_shifwflx(bi,bj) =  0.000000000000000D+00
 --> objf_shelfice(bi,bj) =  0.000000000000000D+00
 --> objf_shifwflx(bi,bj) =  0.000000000000000D+00
 --> objf_shelfice(bi,bj) =  0.000000000000000D+00
 --> objf_shifwflx(bi,bj) =  0.000000000000000D+00
 --> objf_shelfice(bi,bj) =  0.000000000000000D+00
 --> objf_shifwflx(bi,bj) =  0.000000000000000D+00
  early fc =  0.000000000000000D+00
 --> objf_test(bi,bj)   =  0.272349034915094D+05
 --> objf_tracer(bi,bj) =  0.000000000000000D+00
 --> objf_atl(bi,bj)    =  0.000000000000000D+00
 --> objf_test(bi,bj)   =  0.280685772353181D+05
 --> objf_tracer(bi,bj) =  0.000000000000000D+00
 --> objf_atl(bi,bj)    =  0.000000000000000D+00
 --> objf_test(bi,bj)   =  0.489344114032040D+05
 --> objf_tracer(bi,bj) =  0.000000000000000D+00
 --> objf_atl(bi,bj)    =  0.000000000000000D+00
 --> objf_test(bi,bj)   =  0.505652022127045D+05
 --> objf_tracer(bi,bj) =  0.000000000000000D+00
 --> objf_atl(bi,bj)    =  0.000000000000000D+00
 --> objf_test(bi,bj)   =  0.526343617737215D+05
 --> objf_tracer(bi,bj) =  0.000000000000000D+00
 --> objf_atl(bi,bj)    =  0.000000000000000D+00
 --> objf_test(bi,bj)   =  0.548257487504772D+05
 --> objf_tracer(bi,bj) =  0.000000000000000D+00
 --> objf_atl(bi,bj)    =  0.000000000000000D+00
 --> objf_test(bi,bj)   =  0.526324781251786D+05
 --> objf_tracer(bi,bj) =  0.000000000000000D+00
 --> objf_atl(bi,bj)    =  0.000000000000000D+00
 --> objf_test(bi,bj)   =  0.548254981144614D+05
 --> objf_tracer(bi,bj) =  0.000000000000000D+00
 --> objf_atl(bi,bj)    =  0.000000000000000D+00
  local fc =  0.369721181106575D+06
 global fc =  0.369721181106575D+06
(PID.TID 0000.0001) grdchk perturb(+)fc: fcpertplus  =  3.69721181106575E+05
(PID.TID 0000.0001)  nRecords = 243 ; filePrec =  64 ; fileIter =      8640
(PID.TID 0000.0001)     nDims =   2 , dims:
(PID.TID 0000.0001)    1:  50   1  50
(PID.TID 0000.0001)    2: 100   1 100
(PID.TID 0000.0001)     nFlds =  11 , nFl3D =   8 , fields:
(PID.TID 0000.0001)  >Uvel    < >Vvel    < >Theta   < >Salt    < >GuNm1   < >GvNm1   < >GtNm1   < >GsNm1   < >EtaN    < >dEtaHdt < >EtaH    <
(PID.TID 0000.0001) missingVal=  1.00000000000000E+00 ; nTimRec =   1 , timeList:
(PID.TID 0000.0001)   1.555200000000E+07
(PID.TID 0000.0001) READ_MFLDS_3D_RL: read field: "Uvel    ", #   1 in fldList, rec=   1
(PID.TID 0000.0001) READ_MFLDS_3D_RL: read field: "Vvel    ", #   2 in fldList, rec=   2
(PID.TID 0000.0001) READ_MFLDS_3D_RL: read field: "Theta   ", #   3 in fldList, rec=   3
(PID.TID 0000.0001) READ_MFLDS_3D_RL: read field: "Salt    ", #   4 in fldList, rec=   4
(PID.TID 0000.0001) READ_MFLDS_3D_RL: read field: "GuNm1   ", #   5 in fldList, rec=   5
(PID.TID 0000.0001) READ_MFLDS_3D_RL: read field: "GvNm1   ", #   6 in fldList, rec=   6
(PID.TID 0000.0001) READ_MFLDS_3D_RL: read field: "GtNm1   ", #   7 in fldList, rec=   7
(PID.TID 0000.0001) READ_MFLDS_3D_RL: read field: "GsNm1   ", #   8 in fldList, rec=   8
(PID.TID 0000.0001) READ_MFLDS_3D_RL: read field: "EtaN    ", #   9 in fldList, rec= 241
(PID.TID 0000.0001) READ_MFLDS_3D_RL: read field: "dEtaHdt ", #  10 in fldList, rec= 242
(PID.TID 0000.0001) READ_MFLDS_3D_RL: read field: "EtaH    ", #  11 in fldList, rec= 243
(PID.TID 0000.0001) READ_MFLDS_CHECK: - normal end ; reset MFLDS file-name: pickup.0000008640
(PID.TID 0000.0001) // =======================================================
(PID.TID 0000.0001) // Model current state
(PID.TID 0000.0001) // =======================================================
(PID.TID 0000.0001) 
(PID.TID 0000.0001) SOLVE_FOR_PRESSURE: putPmEinXvector =    F
 cg2d: Sum(rhs),rhsMax =   7.02660152285262E-13  5.97860431289981E-02
 cg2d: Sum(rhs),rhsMax =   7.15996706368571E-13  5.85512021072832E-02
 cg2d: Sum(rhs),rhsMax =   7.15288939190373E-13  5.84775722338260E-02
 cg2d: Sum(rhs),rhsMax =   7.15288939190373E-13  5.84638541951284E-02
 cg2d: Sum(rhs),rhsMax =   7.16510184517460E-13  5.84151857936393E-02
 cg2d: Sum(rhs),rhsMax =   7.17939596661665E-13  5.83794365930367E-02
 cg2d: Sum(rhs),rhsMax =   7.19820036909624E-13  5.84375372244168E-02
 cg2d: Sum(rhs),rhsMax =   7.19840853591336E-13  5.85071213669605E-02
 cg2d: Sum(rhs),rhsMax =   7.14293207915162E-13  5.85886576736902E-02
 cg2d: Sum(rhs),rhsMax =   7.16488500474011E-13  5.86804228898805E-02
(PID.TID 0000.0001) Did not write pickup because writePickupAtEnd = FALSE
 --> objf_shelfice(bi,bj) =  0.000000000000000D+00
 --> objf_shifwflx(bi,bj) =  0.000000000000000D+00
 --> objf_shelfice(bi,bj) =  0.000000000000000D+00
 --> objf_shifwflx(bi,bj) =  0.000000000000000D+00
 --> objf_shelfice(bi,bj) =  0.000000000000000D+00
 --> objf_shifwflx(bi,bj) =  0.000000000000000D+00
 --> objf_shelfice(bi,bj) =  0.000000000000000D+00
 --> objf_shifwflx(bi,bj) =  0.000000000000000D+00
 --> objf_shelfice(bi,bj) =  0.000000000000000D+00
 --> objf_shifwflx(bi,bj) =  0.000000000000000D+00
 --> objf_shelfice(bi,bj) =  0.000000000000000D+00
 --> objf_shifwflx(bi,bj) =  0.000000000000000D+00
 --> objf_shelfice(bi,bj) =  0.000000000000000D+00
 --> objf_shifwflx(bi,bj) =  0.000000000000000D+00
 --> objf_shelfice(bi,bj) =  0.000000000000000D+00
 --> objf_shifwflx(bi,bj) =  0.000000000000000D+00
  early fc =  0.000000000000000D+00
 --> objf_test(bi,bj)   =  0.272349799925066D+05
 --> objf_tracer(bi,bj) =  0.000000000000000D+00
 --> objf_atl(bi,bj)    =  0.000000000000000D+00
 --> objf_test(bi,bj)   =  0.280685772374943D+05
 --> objf_tracer(bi,bj) =  0.000000000000000D+00
 --> objf_atl(bi,bj)    =  0.000000000000000D+00
 --> objf_test(bi,bj)   =  0.489344114035260D+05
 --> objf_tracer(bi,bj) =  0.000000000000000D+00
 --> objf_atl(bi,bj)    =  0.000000000000000D+00
 --> objf_test(bi,bj)   =  0.505652022128929D+05
 --> objf_tracer(bi,bj) =  0.000000000000000D+00
 --> objf_atl(bi,bj)    =  0.000000000000000D+00
 --> objf_test(bi,bj)   =  0.526343617737258D+05
 --> objf_tracer(bi,bj) =  0.000000000000000D+00
 --> objf_atl(bi,bj)    =  0.000000000000000D+00
 --> objf_test(bi,bj)   =  0.548257487504745D+05
 --> objf_tracer(bi,bj) =  0.000000000000000D+00
 --> objf_atl(bi,bj)    =  0.000000000000000D+00
 --> objf_test(bi,bj)   =  0.526324781251847D+05
 --> objf_tracer(bi,bj) =  0.000000000000000D+00
 --> objf_atl(bi,bj)    =  0.000000000000000D+00
 --> objf_test(bi,bj)   =  0.548254981144632D+05
 --> objf_tracer(bi,bj) =  0.000000000000000D+00
 --> objf_atl(bi,bj)    =  0.000000000000000D+00
  local fc =  0.369721257610268D+06
 global fc =  0.369721257610268D+06
(PID.TID 0000.0001) grdchk perturb(-)fc: fcpertminus =  3.69721257610268E+05
grad-res -------------------------------
 grad-res     0    4   23   24   20    1    1    1   3.69721219277E+05  3.69721181107E+05  3.69721257610E+05
 grad-res     0    4    4 1582    0    1    1    1  -3.82518464828E+00 -3.82518465922E+00 -2.85839929504E-09
(PID.TID 0000.0001)  ADM  ref_cost_function      =  3.69721219277340E+05
(PID.TID 0000.0001)  ADM  adjoint_gradient       = -3.82518464828358E+00
(PID.TID 0000.0001)  ADM  finite-diff_grad       = -3.82518465921748E+00
(PID.TID 0000.0001) ====== End of gradient-check number   4 (ierr=  0) =======
(PID.TID 0000.0001) ====== Starts gradient-check number   5 (=ichknum) =======
 ph-test icomp, ncvarcomp, ichknum         1583      100450           5
 ph-grd _loc: bi, bj, icomptest, ichknum            1           1        1582           5
 ph-grd -->hit<--           24          24          20           1
(PID.TID 0000.0001) grdchk pos: i,j,k=   24   24   20 ; bi,bj=   1   1 ; iobc=  1 ; rec=   1
(PID.TID 0000.0001)  nRecords = 243 ; filePrec =  64 ; fileIter =      8640
(PID.TID 0000.0001)     nDims =   2 , dims:
(PID.TID 0000.0001)    1:  50   1  50
(PID.TID 0000.0001)    2: 100   1 100
(PID.TID 0000.0001)     nFlds =  11 , nFl3D =   8 , fields:
(PID.TID 0000.0001)  >Uvel    < >Vvel    < >Theta   < >Salt    < >GuNm1   < >GvNm1   < >GtNm1   < >GsNm1   < >EtaN    < >dEtaHdt < >EtaH    <
(PID.TID 0000.0001) missingVal=  1.00000000000000E+00 ; nTimRec =   1 , timeList:
(PID.TID 0000.0001)   1.555200000000E+07
(PID.TID 0000.0001) READ_MFLDS_3D_RL: read field: "Uvel    ", #   1 in fldList, rec=   1
(PID.TID 0000.0001) READ_MFLDS_3D_RL: read field: "Vvel    ", #   2 in fldList, rec=   2
(PID.TID 0000.0001) READ_MFLDS_3D_RL: read field: "Theta   ", #   3 in fldList, rec=   3
(PID.TID 0000.0001) READ_MFLDS_3D_RL: read field: "Salt    ", #   4 in fldList, rec=   4
(PID.TID 0000.0001) READ_MFLDS_3D_RL: read field: "GuNm1   ", #   5 in fldList, rec=   5
(PID.TID 0000.0001) READ_MFLDS_3D_RL: read field: "GvNm1   ", #   6 in fldList, rec=   6
(PID.TID 0000.0001) READ_MFLDS_3D_RL: read field: "GtNm1   ", #   7 in fldList, rec=   7
(PID.TID 0000.0001) READ_MFLDS_3D_RL: read field: "GsNm1   ", #   8 in fldList, rec=   8
(PID.TID 0000.0001) READ_MFLDS_3D_RL: read field: "EtaN    ", #   9 in fldList, rec= 241
(PID.TID 0000.0001) READ_MFLDS_3D_RL: read field: "dEtaHdt ", #  10 in fldList, rec= 242
(PID.TID 0000.0001) READ_MFLDS_3D_RL: read field: "EtaH    ", #  11 in fldList, rec= 243
(PID.TID 0000.0001) READ_MFLDS_CHECK: - normal end ; reset MFLDS file-name: pickup.0000008640
(PID.TID 0000.0001) // =======================================================
(PID.TID 0000.0001) // Model current state
(PID.TID 0000.0001) // =======================================================
(PID.TID 0000.0001) 
(PID.TID 0000.0001) SOLVE_FOR_PRESSURE: putPmEinXvector =    F
 cg2d: Sum(rhs),rhsMax =   7.02660152285262E-13  5.97860431289981E-02
 cg2d: Sum(rhs),rhsMax =   7.17342851785929E-13  5.85512011332844E-02
 cg2d: Sum(rhs),rhsMax =   7.17981230025089E-13  5.84775714014571E-02
 cg2d: Sum(rhs),rhsMax =   7.19826975803528E-13  5.84638540918749E-02
 cg2d: Sum(rhs),rhsMax =   7.21034343342808E-13  5.84151860192910E-02
 cg2d: Sum(rhs),rhsMax =   7.17370607361545E-13  5.83794363809628E-02
 cg2d: Sum(rhs),rhsMax =   7.18550219325209E-13  5.84375368161888E-02
 cg2d: Sum(rhs),rhsMax =   7.14785869382339E-13  5.85071208320955E-02
 cg2d: Sum(rhs),rhsMax =   7.16225689867400E-13  5.85886570289791E-02
 cg2d: Sum(rhs),rhsMax =   7.15927317429532E-13  5.86804220855193E-02
(PID.TID 0000.0001) Did not write pickup because writePickupAtEnd = FALSE
 --> objf_shelfice(bi,bj) =  0.000000000000000D+00
 --> objf_shifwflx(bi,bj) =  0.000000000000000D+00
 --> objf_shelfice(bi,bj) =  0.000000000000000D+00
 --> objf_shifwflx(bi,bj) =  0.000000000000000D+00
 --> objf_shelfice(bi,bj) =  0.000000000000000D+00
 --> objf_shifwflx(bi,bj) =  0.000000000000000D+00
 --> objf_shelfice(bi,bj) =  0.000000000000000D+00
 --> objf_shifwflx(bi,bj) =  0.000000000000000D+00
 --> objf_shelfice(bi,bj) =  0.000000000000000D+00
 --> objf_shifwflx(bi,bj) =  0.000000000000000D+00
 --> objf_shelfice(bi,bj) =  0.000000000000000D+00
 --> objf_shifwflx(bi,bj) =  0.000000000000000D+00
 --> objf_shelfice(bi,bj) =  0.000000000000000D+00
 --> objf_shifwflx(bi,bj) =  0.000000000000000D+00
 --> objf_shelfice(bi,bj) =  0.000000000000000D+00
 --> objf_shifwflx(bi,bj) =  0.000000000000000D+00
  early fc =  0.000000000000000D+00
 --> objf_test(bi,bj)   =  0.272349034952793D+05
 --> objf_tracer(bi,bj) =  0.000000000000000D+00
 --> objf_atl(bi,bj)    =  0.000000000000000D+00
 --> objf_test(bi,bj)   =  0.280685772331484D+05
 --> objf_tracer(bi,bj) =  0.000000000000000D+00
 --> objf_atl(bi,bj)    =  0.000000000000000D+00
 --> objf_test(bi,bj)   =  0.489344114034989D+05
 --> objf_tracer(bi,bj) =  0.000000000000000D+00
 --> objf_atl(bi,bj)    =  0.000000000000000D+00
 --> objf_test(bi,bj)   =  0.505652022123875D+05
 --> objf_tracer(bi,bj) =  0.000000000000000D+00
 --> objf_atl(bi,bj)    =  0.000000000000000D+00
 --> objf_test(bi,bj)   =  0.526343617737217D+05
 --> objf_tracer(bi,bj) =  0.000000000000000D+00
 --> objf_atl(bi,bj)    =  0.000000000000000D+00
 --> objf_test(bi,bj)   =  0.548257487504773D+05
 --> objf_tracer(bi,bj) =  0.000000000000000D+00
 --> objf_atl(bi,bj)    =  0.000000000000000D+00
 --> objf_test(bi,bj)   =  0.526324781251790D+05
 --> objf_tracer(bi,bj) =  0.000000000000000D+00
 --> objf_atl(bi,bj)    =  0.000000000000000D+00
 --> objf_test(bi,bj)   =  0.548254981144616D+05
 --> objf_tracer(bi,bj) =  0.000000000000000D+00
 --> objf_atl(bi,bj)    =  0.000000000000000D+00
  local fc =  0.369721181108153D+06
 global fc =  0.369721181108153D+06
(PID.TID 0000.0001) grdchk perturb(+)fc: fcpertplus  =  3.69721181108153E+05
(PID.TID 0000.0001)  nRecords = 243 ; filePrec =  64 ; fileIter =      8640
(PID.TID 0000.0001)     nDims =   2 , dims:
(PID.TID 0000.0001)    1:  50   1  50
(PID.TID 0000.0001)    2: 100   1 100
(PID.TID 0000.0001)     nFlds =  11 , nFl3D =   8 , fields:
(PID.TID 0000.0001)  >Uvel    < >Vvel    < >Theta   < >Salt    < >GuNm1   < >GvNm1   < >GtNm1   < >GsNm1   < >EtaN    < >dEtaHdt < >EtaH    <
(PID.TID 0000.0001) missingVal=  1.00000000000000E+00 ; nTimRec =   1 , timeList:
(PID.TID 0000.0001)   1.555200000000E+07
(PID.TID 0000.0001) READ_MFLDS_3D_RL: read field: "Uvel    ", #   1 in fldList, rec=   1
(PID.TID 0000.0001) READ_MFLDS_3D_RL: read field: "Vvel    ", #   2 in fldList, rec=   2
(PID.TID 0000.0001) READ_MFLDS_3D_RL: read field: "Theta   ", #   3 in fldList, rec=   3
(PID.TID 0000.0001) READ_MFLDS_3D_RL: read field: "Salt    ", #   4 in fldList, rec=   4
(PID.TID 0000.0001) READ_MFLDS_3D_RL: read field: "GuNm1   ", #   5 in fldList, rec=   5
(PID.TID 0000.0001) READ_MFLDS_3D_RL: read field: "GvNm1   ", #   6 in fldList, rec=   6
(PID.TID 0000.0001) READ_MFLDS_3D_RL: read field: "GtNm1   ", #   7 in fldList, rec=   7
(PID.TID 0000.0001) READ_MFLDS_3D_RL: read field: "GsNm1   ", #   8 in fldList, rec=   8
(PID.TID 0000.0001) READ_MFLDS_3D_RL: read field: "EtaN    ", #   9 in fldList, rec= 241
(PID.TID 0000.0001) READ_MFLDS_3D_RL: read field: "dEtaHdt ", #  10 in fldList, rec= 242
(PID.TID 0000.0001) READ_MFLDS_3D_RL: read field: "EtaH    ", #  11 in fldList, rec= 243
(PID.TID 0000.0001) READ_MFLDS_CHECK: - normal end ; reset MFLDS file-name: pickup.0000008640
(PID.TID 0000.0001) // =======================================================
(PID.TID 0000.0001) // Model current state
(PID.TID 0000.0001) // =======================================================
(PID.TID 0000.0001) 
(PID.TID 0000.0001) SOLVE_FOR_PRESSURE: putPmEinXvector =    F
 cg2d: Sum(rhs),rhsMax =   7.02882196890187E-13  5.97860431289981E-02
 cg2d: Sum(rhs),rhsMax =   7.19160841988753E-13  5.85512020771620E-02
 cg2d: Sum(rhs),rhsMax =   7.19591053410795E-13  5.84775722420080E-02
 cg2d: Sum(rhs),rhsMax =   7.17911841086050E-13  5.84638542469084E-02
 cg2d: Sum(rhs),rhsMax =   7.22755189030977E-13  5.84151858647119E-02
 cg2d: Sum(rhs),rhsMax =   7.20423720679264E-13  5.83794366751123E-02
 cg2d: Sum(rhs),rhsMax =   7.15219550251334E-13  5.84375373251134E-02
 cg2d: Sum(rhs),rhsMax =   7.12152559145807E-13  5.85071214890800E-02
 cg2d: Sum(rhs),rhsMax =   7.16843251424848E-13  5.85886578168486E-02
 cg2d: Sum(rhs),rhsMax =   7.16962079982952E-13  5.86804230523172E-02
(PID.TID 0000.0001) Did not write pickup because writePickupAtEnd = FALSE
 --> objf_shelfice(bi,bj) =  0.000000000000000D+00
 --> objf_shifwflx(bi,bj) =  0.000000000000000D+00
 --> objf_shelfice(bi,bj) =  0.000000000000000D+00
 --> objf_shifwflx(bi,bj) =  0.000000000000000D+00
 --> objf_shelfice(bi,bj) =  0.000000000000000D+00
 --> objf_shifwflx(bi,bj) =  0.000000000000000D+00
 --> objf_shelfice(bi,bj) =  0.000000000000000D+00
 --> objf_shifwflx(bi,bj) =  0.000000000000000D+00
 --> objf_shelfice(bi,bj) =  0.000000000000000D+00
 --> objf_shifwflx(bi,bj) =  0.000000000000000D+00
 --> objf_shelfice(bi,bj) =  0.000000000000000D+00
 --> objf_shifwflx(bi,bj) =  0.000000000000000D+00
 --> objf_shelfice(bi,bj) =  0.000000000000000D+00
 --> objf_shifwflx(bi,bj) =  0.000000000000000D+00
 --> objf_shelfice(bi,bj) =  0.000000000000000D+00
 --> objf_shifwflx(bi,bj) =  0.000000000000000D+00
  early fc =  0.000000000000000D+00
 --> objf_test(bi,bj)   =  0.272349799886885D+05
 --> objf_tracer(bi,bj) =  0.000000000000000D+00
 --> objf_atl(bi,bj)    =  0.000000000000000D+00
 --> objf_test(bi,bj)   =  0.280685772397121D+05
 --> objf_tracer(bi,bj) =  0.000000000000000D+00
 --> objf_atl(bi,bj)    =  0.000000000000000D+00
 --> objf_test(bi,bj)   =  0.489344114032322D+05
 --> objf_tracer(bi,bj) =  0.000000000000000D+00
 --> objf_atl(bi,bj)    =  0.000000000000000D+00
 --> objf_test(bi,bj)   =  0.505652022132089D+05
 --> objf_tracer(bi,bj) =  0.000000000000000D+00
 --> objf_atl(bi,bj)    =  0.000000000000000D+00
 --> objf_test(bi,bj)   =  0.526343617737255D+05
 --> objf_tracer(bi,bj) =  0.000000000000000D+00
 --> objf_atl(bi,bj)    =  0.000000000000000D+00
 --> objf_test(bi,bj)   =  0.548257487504745D+05
 --> objf_tracer(bi,bj) =  0.000000000000000D+00
 --> objf_atl(bi,bj)    =  0.000000000000000D+00
 --> objf_test(bi,bj)   =  0.526324781251843D+05
 --> objf_tracer(bi,bj) =  0.000000000000000D+00
 --> objf_atl(bi,bj)    =  0.000000000000000D+00
 --> objf_test(bi,bj)   =  0.548254981144628D+05
 --> objf_tracer(bi,bj) =  0.000000000000000D+00
 --> objf_atl(bi,bj)    =  0.000000000000000D+00
  local fc =  0.369721257608689D+06
 global fc =  0.369721257608689D+06
(PID.TID 0000.0001) grdchk perturb(-)fc: fcpertminus =  3.69721257608689E+05
grad-res -------------------------------
 grad-res     0    5   24   24   20    1    1    1   3.69721219277E+05  3.69721181108E+05  3.69721257609E+05
 grad-res     0    5    5 1583    0    1    1    1  -3.82502674851E+00 -3.82502676512E+00 -4.34034874708E-09
(PID.TID 0000.0001)  ADM  ref_cost_function      =  3.69721219277340E+05
(PID.TID 0000.0001)  ADM  adjoint_gradient       = -3.82502674851454E+00
(PID.TID 0000.0001)  ADM  finite-diff_grad       = -3.82502676511649E+00
(PID.TID 0000.0001) ====== End of gradient-check number   5 (ierr=  0) =======
(PID.TID 0000.0001) 
(PID.TID 0000.0001) // =======================================================
(PID.TID 0000.0001) // Gradient check results  >>> START <<<
(PID.TID 0000.0001) // =======================================================
(PID.TID 0000.0001) 
(PID.TID 0000.0001)  EPS =   1.000000E-02
(PID.TID 0000.0001) 
(PID.TID 0000.0001) grdchk output h.p:  Id Itile Jtile LAYER   bi   bj   X(Id)           X(Id)+/-EPS
(PID.TID 0000.0001) grdchk output h.c:  Id  FC                   FC1                  FC2
(PID.TID 0000.0001) grdchk output h.g:  Id     FC1-FC2/(2*EPS)      ADJ GRAD(FC)         1-FDGRD/ADGRD
(PID.TID 0000.0001) 
(PID.TID 0000.0001) grdchk output (p):   1    20    24    20    1    1   0.000000000E+00 -1.000000000E-02
(PID.TID 0000.0001) grdchk output (c):   1  3.6972121927734E+05  3.6972118109520E+05  3.6972125762165E+05
(PID.TID 0000.0001) grdchk output (g):   1    -3.8263225345872E+00 -3.8263225191839E+00 -4.0256145084072E-09
(PID.TID 0000.0001) 
(PID.TID 0000.0001) grdchk output (p):   2    21    24    20    1    1   0.000000000E+00 -1.000000000E-02
(PID.TID 0000.0001) grdchk output (c):   2  3.6972121927734E+05  3.6972118110063E+05  3.6972125761621E+05
(PID.TID 0000.0001) grdchk output (g):   2    -3.8257793727098E+00 -3.8257793701250E+00 -6.7562355710038E-10
(PID.TID 0000.0001) 
(PID.TID 0000.0001) grdchk output (p):   3    22    24    20    1    1   0.000000000E+00 -1.000000000E-02
(PID.TID 0000.0001) grdchk output (c):   3  3.6972121927734E+05  3.6972118110423E+05  3.6972125761262E+05
(PID.TID 0000.0001) grdchk output (g):   3    -3.8254194718320E+00 -3.8254194606859E+00 -2.9136848489486E-09
(PID.TID 0000.0001) 
(PID.TID 0000.0001) grdchk output (p):   4    23    24    20    1    1   0.000000000E+00 -1.000000000E-02
(PID.TID 0000.0001) grdchk output (c):   4  3.6972121927734E+05  3.6972118110657E+05  3.6972125761027E+05
(PID.TID 0000.0001) grdchk output (g):   4    -3.8251846592175E+00 -3.8251846482836E+00 -2.8583992950360E-09
(PID.TID 0000.0001) 
(PID.TID 0000.0001) grdchk output (p):   5    24    24    20    1    1   0.000000000E+00 -1.000000000E-02
(PID.TID 0000.0001) grdchk output (c):   5  3.6972121927734E+05  3.6972118110815E+05  3.6972125760869E+05
(PID.TID 0000.0001) grdchk output (g):   5    -3.8250267651165E+00 -3.8250267485145E+00 -4.3403487470783E-09
(PID.TID 0000.0001) 
(PID.TID 0000.0001) grdchk  summary  :  RMS of    5 ratios =  3.2298815004990E-09
(PID.TID 0000.0001) 
(PID.TID 0000.0001) // =======================================================
(PID.TID 0000.0001) // Gradient check results  >>> END <<<
(PID.TID 0000.0001) // =======================================================
(PID.TID 0000.0001) 
(PID.TID 0000.0001)   Seconds in section "ALL                    [THE_MODEL_MAIN]":
(PID.TID 0000.0001)           User time:   402.19000000000000
(PID.TID 0000.0001)         System time:  0.89000000000000001
(PID.TID 0000.0001)     Wall clock time:   404.02250194549561
(PID.TID 0000.0001)          No. starts:           1
(PID.TID 0000.0001)           No. stops:           1
(PID.TID 0000.0001)   Seconds in section "INITIALISE_FIXED       [THE_MODEL_MAIN]":
(PID.TID 0000.0001)           User time:  0.41000000000000003
(PID.TID 0000.0001)         System time:  4.00000000000000008E-002
(PID.TID 0000.0001)     Wall clock time:  0.46817207336425781
(PID.TID 0000.0001)          No. starts:           1
(PID.TID 0000.0001)           No. stops:           1
(PID.TID 0000.0001)   Seconds in section "ADTHE_MAIN_LOOP          [ADJOINT RUN]":
(PID.TID 0000.0001)           User time:   164.84000000000000
(PID.TID 0000.0001)         System time:  0.78000000000000003
(PID.TID 0000.0001)     Wall clock time:   166.02460908889771
(PID.TID 0000.0001)          No. starts:           1
(PID.TID 0000.0001)           No. stops:           1
(PID.TID 0000.0001)   Seconds in section "FORWARD_STEP        [MAIN_DO_LOOP]":
(PID.TID 0000.0001)           User time:   266.54000000000002
(PID.TID 0000.0001)         System time:  3.00000000000000266E-002
(PID.TID 0000.0001)     Wall clock time:   267.16684484481812
(PID.TID 0000.0001)          No. starts:         120
(PID.TID 0000.0001)           No. stops:         120
(PID.TID 0000.0001)   Seconds in section "UPDATE_SURF_DR      [FORWARD_STEP]":
(PID.TID 0000.0001)           User time:  0.27000000000009550
(PID.TID 0000.0001)         System time:   0.0000000000000000
(PID.TID 0000.0001)     Wall clock time:  0.27515149116516113
(PID.TID 0000.0001)          No. starts:         240
(PID.TID 0000.0001)           No. stops:         240
(PID.TID 0000.0001)   Seconds in section "LOAD_FIELDS_DRIVER  [FORWARD_STEP]":
(PID.TID 0000.0001)           User time:   0.0000000000000000
(PID.TID 0000.0001)         System time:   0.0000000000000000
(PID.TID 0000.0001)     Wall clock time:  3.44133377075195313E-003
(PID.TID 0000.0001)          No. starts:         120
(PID.TID 0000.0001)           No. stops:         120
(PID.TID 0000.0001)   Seconds in section "EXTERNAL_FLDS_LOAD [LOAD_FLDS_DRIVER]":
(PID.TID 0000.0001)           User time:   0.0000000000000000
(PID.TID 0000.0001)         System time:   0.0000000000000000
(PID.TID 0000.0001)     Wall clock time:  1.38187408447265625E-003
(PID.TID 0000.0001)          No. starts:         140
(PID.TID 0000.0001)           No. stops:         140
(PID.TID 0000.0001)   Seconds in section "DO_ATMOSPHERIC_PHYS [FORWARD_STEP]":
(PID.TID 0000.0001)           User time:   0.0000000000000000
(PID.TID 0000.0001)         System time:   0.0000000000000000
(PID.TID 0000.0001)     Wall clock time:  1.10292434692382813E-003
(PID.TID 0000.0001)          No. starts:         120
(PID.TID 0000.0001)           No. stops:         120
(PID.TID 0000.0001)   Seconds in section "DO_OCEANIC_PHYS     [FORWARD_STEP]":
(PID.TID 0000.0001)           User time:   6.1699999999997317
(PID.TID 0000.0001)         System time:   0.0000000000000000
(PID.TID 0000.0001)     Wall clock time:   6.1705625057220459
(PID.TID 0000.0001)          No. starts:         120
(PID.TID 0000.0001)           No. stops:         120
(PID.TID 0000.0001)   Seconds in section "SHELFICE_THERMODYNAMICS [DO_OCEANIC_PHYS]":
(PID.TID 0000.0001)           User time:  0.79000000000002046
(PID.TID 0000.0001)         System time:   0.0000000000000000
(PID.TID 0000.0001)     Wall clock time:  0.80295658111572266
(PID.TID 0000.0001)          No. starts:         130
(PID.TID 0000.0001)           No. stops:         130
(PID.TID 0000.0001)   Seconds in section "DYNAMICS            [FORWARD_STEP]":
(PID.TID 0000.0001)           User time:   101.43000000000052
(PID.TID 0000.0001)         System time:   0.0000000000000000
(PID.TID 0000.0001)     Wall clock time:   101.67174172401428
(PID.TID 0000.0001)          No. starts:         120
(PID.TID 0000.0001)           No. stops:         120
(PID.TID 0000.0001)   Seconds in section "SOLVE_FOR_PRESSURE  [FORWARD_STEP]":
(PID.TID 0000.0001)           User time:   53.269999999999925
(PID.TID 0000.0001)         System time:   0.0000000000000000
(PID.TID 0000.0001)     Wall clock time:   53.415977716445923
(PID.TID 0000.0001)          No. starts:         120
(PID.TID 0000.0001)           No. stops:         120
(PID.TID 0000.0001)   Seconds in section "MOM_CORRECTION_STEP [FORWARD_STEP]":
(PID.TID 0000.0001)           User time:   2.3699999999993224
(PID.TID 0000.0001)         System time:  1.00000000000000089E-002
(PID.TID 0000.0001)     Wall clock time:   2.3584790229797363
(PID.TID 0000.0001)          No. starts:         120
(PID.TID 0000.0001)           No. stops:         120
(PID.TID 0000.0001)   Seconds in section "INTEGR_CONTINUITY   [FORWARD_STEP]":
(PID.TID 0000.0001)           User time:   6.2300000000003024
(PID.TID 0000.0001)         System time:   0.0000000000000000
(PID.TID 0000.0001)     Wall clock time:   6.2614924907684326
(PID.TID 0000.0001)          No. starts:         120
(PID.TID 0000.0001)           No. stops:         120
(PID.TID 0000.0001)   Seconds in section "CALC_SURF_DR      [FORWARD_STEP]":
(PID.TID 0000.0001)           User time:  0.27999999999997272
(PID.TID 0000.0001)         System time:   0.0000000000000000
(PID.TID 0000.0001)     Wall clock time:  0.27197122573852539
(PID.TID 0000.0001)          No. starts:         120
(PID.TID 0000.0001)           No. stops:         120
(PID.TID 0000.0001)   Seconds in section "BLOCKING_EXCHANGES  [FORWARD_STEP]":
(PID.TID 0000.0001)           User time:   3.0900000000003160
(PID.TID 0000.0001)         System time:   0.0000000000000000
(PID.TID 0000.0001)     Wall clock time:   3.1113021373748779
(PID.TID 0000.0001)          No. starts:         240
(PID.TID 0000.0001)           No. stops:         240
(PID.TID 0000.0001)   Seconds in section "THERMODYNAMICS      [FORWARD_STEP]":
(PID.TID 0000.0001)           User time:   70.960000000000036
(PID.TID 0000.0001)         System time:   0.0000000000000000
(PID.TID 0000.0001)     Wall clock time:   71.077745914459229
(PID.TID 0000.0001)          No. starts:         120
(PID.TID 0000.0001)           No. stops:         120
(PID.TID 0000.0001)   Seconds in section "TRC_CORRECTION_STEP [FORWARD_STEP]":
(PID.TID 0000.0001)           User time:   14.360000000000127
(PID.TID 0000.0001)         System time:   0.0000000000000000
(PID.TID 0000.0001)     Wall clock time:   14.398115634918213
(PID.TID 0000.0001)          No. starts:         120
(PID.TID 0000.0001)           No. stops:         120
(PID.TID 0000.0001)   Seconds in section "MONITOR             [FORWARD_STEP]":
(PID.TID 0000.0001)           User time:   2.4600000000000364
(PID.TID 0000.0001)         System time:   0.0000000000000000
(PID.TID 0000.0001)     Wall clock time:   2.4594554901123047
(PID.TID 0000.0001)          No. starts:         120
(PID.TID 0000.0001)           No. stops:         120
(PID.TID 0000.0001)   Seconds in section "COST_TILE           [FORWARD_STEP]":
(PID.TID 0000.0001)           User time:   5.3899999999996453
(PID.TID 0000.0001)         System time:   0.0000000000000000
(PID.TID 0000.0001)     Wall clock time:   5.4321458339691162
(PID.TID 0000.0001)          No. starts:         120
(PID.TID 0000.0001)           No. stops:         120
(PID.TID 0000.0001)   Seconds in section "DO_THE_MODEL_IO     [FORWARD_STEP]":
(PID.TID 0000.0001)           User time:  6.99999999999931788E-002
(PID.TID 0000.0001)         System time:  1.00000000000000089E-002
(PID.TID 0000.0001)     Wall clock time:  7.58817195892333984E-002
(PID.TID 0000.0001)          No. starts:         120
(PID.TID 0000.0001)           No. stops:         120
(PID.TID 0000.0001)   Seconds in section "DO_WRITE_PICKUP     [FORWARD_STEP]":
(PID.TID 0000.0001)           User time:  0.14999999999997726
(PID.TID 0000.0001)         System time:  1.00000000000000089E-002
(PID.TID 0000.0001)     Wall clock time:  0.15908885002136230
(PID.TID 0000.0001)          No. starts:         120
(PID.TID 0000.0001)           No. stops:         120
(PID.TID 0000.0001)   Seconds in section "GRDCHK_MAIN         [THE_MODEL_MAIN]":
(PID.TID 0000.0001)           User time:   236.94000000000000
(PID.TID 0000.0001)         System time:  6.99999999999999512E-002
(PID.TID 0000.0001)     Wall clock time:   237.52966284751892
(PID.TID 0000.0001)          No. starts:           1
(PID.TID 0000.0001)           No. stops:           1
(PID.TID 0000.0001)   Seconds in section "INITIALISE_VARIA    [THE_MAIN_LOOP]":
(PID.TID 0000.0001)           User time:   3.9800000000001887
(PID.TID 0000.0001)         System time:  5.99999999999999423E-002
(PID.TID 0000.0001)     Wall clock time:   4.0345041751861572
(PID.TID 0000.0001)          No. starts:          10
(PID.TID 0000.0001)           No. stops:          10
(PID.TID 0000.0001)   Seconds in section "MAIN LOOP           [THE_MAIN_LOOP]":
(PID.TID 0000.0001)           User time:   232.42000000000013
(PID.TID 0000.0001)         System time:   0.0000000000000000
(PID.TID 0000.0001)     Wall clock time:   232.95117998123169
(PID.TID 0000.0001)          No. starts:          10
(PID.TID 0000.0001)           No. stops:          10
(PID.TID 0000.0001)   Seconds in section "MAIN_DO_LOOP        [THE_MAIN_LOOP]":
(PID.TID 0000.0001)           User time:   219.91000000000014
(PID.TID 0000.0001)         System time:   0.0000000000000000
(PID.TID 0000.0001)     Wall clock time:   220.38917875289917
(PID.TID 0000.0001)          No. starts:         100
(PID.TID 0000.0001)           No. stops:         100
(PID.TID 0000.0001)   Seconds in section "COST_FINAL         [ADJOINT SPIN-DOWN]":
(PID.TID 0000.0001)           User time:  6.99999999999931788E-002
(PID.TID 0000.0001)         System time:   0.0000000000000000
(PID.TID 0000.0001)     Wall clock time:  8.19778442382812500E-002
(PID.TID 0000.0001)          No. starts:          10
(PID.TID 0000.0001)           No. stops:          10
(PID.TID 0000.0001) // ======================================================
(PID.TID 0000.0001) // Tile <-> Tile communication statistics
(PID.TID 0000.0001) // ======================================================
(PID.TID 0000.0001) // o Tile number: 000001
(PID.TID 0000.0001) //         No. X exchanges =              0
(PID.TID 0000.0001) //            Max. X spins =              0
(PID.TID 0000.0001) //            Min. X spins =     1000000000
(PID.TID 0000.0001) //          Total. X spins =              0
(PID.TID 0000.0001) //            Avg. X spins =       0.00E+00
(PID.TID 0000.0001) //         No. Y exchanges =              0
(PID.TID 0000.0001) //            Max. Y spins =              0
(PID.TID 0000.0001) //            Min. Y spins =     1000000000
(PID.TID 0000.0001) //          Total. Y spins =              0
(PID.TID 0000.0001) //            Avg. Y spins =       0.00E+00
(PID.TID 0000.0001) // o Tile number: 000002
(PID.TID 0000.0001) //         No. X exchanges =              0
(PID.TID 0000.0001) //            Max. X spins =              0
(PID.TID 0000.0001) //            Min. X spins =     1000000000
(PID.TID 0000.0001) //          Total. X spins =              0
(PID.TID 0000.0001) //            Avg. X spins =       0.00E+00
(PID.TID 0000.0001) //         No. Y exchanges =              0
(PID.TID 0000.0001) //            Max. Y spins =              0
(PID.TID 0000.0001) //            Min. Y spins =     1000000000
(PID.TID 0000.0001) //          Total. Y spins =              0
(PID.TID 0000.0001) //            Avg. Y spins =       0.00E+00
(PID.TID 0000.0001) // o Tile number: 000003
(PID.TID 0000.0001) //         No. X exchanges =              0
(PID.TID 0000.0001) //            Max. X spins =              0
(PID.TID 0000.0001) //            Min. X spins =     1000000000
(PID.TID 0000.0001) //          Total. X spins =              0
(PID.TID 0000.0001) //            Avg. X spins =       0.00E+00
(PID.TID 0000.0001) //         No. Y exchanges =              0
(PID.TID 0000.0001) //            Max. Y spins =              0
(PID.TID 0000.0001) //            Min. Y spins =     1000000000
(PID.TID 0000.0001) //          Total. Y spins =              0
(PID.TID 0000.0001) //            Avg. Y spins =       0.00E+00
(PID.TID 0000.0001) // o Tile number: 000004
(PID.TID 0000.0001) //         No. X exchanges =              0
(PID.TID 0000.0001) //            Max. X spins =              0
(PID.TID 0000.0001) //            Min. X spins =     1000000000
(PID.TID 0000.0001) //          Total. X spins =              0
(PID.TID 0000.0001) //            Avg. X spins =       0.00E+00
(PID.TID 0000.0001) //         No. Y exchanges =              0
(PID.TID 0000.0001) //            Max. Y spins =              0
(PID.TID 0000.0001) //            Min. Y spins =     1000000000
(PID.TID 0000.0001) //          Total. Y spins =              0
(PID.TID 0000.0001) //            Avg. Y spins =       0.00E+00
(PID.TID 0000.0001) // o Tile number: 000005
(PID.TID 0000.0001) //         No. X exchanges =              0
(PID.TID 0000.0001) //            Max. X spins =              0
(PID.TID 0000.0001) //            Min. X spins =     1000000000
(PID.TID 0000.0001) //          Total. X spins =              0
(PID.TID 0000.0001) //            Avg. X spins =       0.00E+00
(PID.TID 0000.0001) //         No. Y exchanges =              0
(PID.TID 0000.0001) //            Max. Y spins =              0
(PID.TID 0000.0001) //            Min. Y spins =     1000000000
(PID.TID 0000.0001) //          Total. Y spins =              0
(PID.TID 0000.0001) //            Avg. Y spins =       0.00E+00
(PID.TID 0000.0001) // o Tile number: 000006
(PID.TID 0000.0001) //         No. X exchanges =              0
(PID.TID 0000.0001) //            Max. X spins =              0
(PID.TID 0000.0001) //            Min. X spins =     1000000000
(PID.TID 0000.0001) //          Total. X spins =              0
(PID.TID 0000.0001) //            Avg. X spins =       0.00E+00
(PID.TID 0000.0001) //         No. Y exchanges =              0
(PID.TID 0000.0001) //            Max. Y spins =              0
(PID.TID 0000.0001) //            Min. Y spins =     1000000000
(PID.TID 0000.0001) //          Total. Y spins =              0
(PID.TID 0000.0001) //            Avg. Y spins =       0.00E+00
(PID.TID 0000.0001) // o Tile number: 000007
(PID.TID 0000.0001) //         No. X exchanges =              0
(PID.TID 0000.0001) //            Max. X spins =              0
(PID.TID 0000.0001) //            Min. X spins =     1000000000
(PID.TID 0000.0001) //          Total. X spins =              0
(PID.TID 0000.0001) //            Avg. X spins =       0.00E+00
(PID.TID 0000.0001) //         No. Y exchanges =              0
(PID.TID 0000.0001) //            Max. Y spins =              0
(PID.TID 0000.0001) //            Min. Y spins =     1000000000
(PID.TID 0000.0001) //          Total. Y spins =              0
(PID.TID 0000.0001) //            Avg. Y spins =       0.00E+00
(PID.TID 0000.0001) // o Tile number: 000008
(PID.TID 0000.0001) //         No. X exchanges =              0
(PID.TID 0000.0001) //            Max. X spins =              0
(PID.TID 0000.0001) //            Min. X spins =     1000000000
(PID.TID 0000.0001) //          Total. X spins =              0
(PID.TID 0000.0001) //            Avg. X spins =       0.00E+00
(PID.TID 0000.0001) //         No. Y exchanges =              0
(PID.TID 0000.0001) //            Max. Y spins =              0
(PID.TID 0000.0001) //            Min. Y spins =     1000000000
(PID.TID 0000.0001) //          Total. Y spins =              0
(PID.TID 0000.0001) //            Avg. Y spins =       0.00E+00
(PID.TID 0000.0001) // o Thread number: 000001
(PID.TID 0000.0001) //            No. barriers =         185866
(PID.TID 0000.0001) //      Max. barrier spins =              1
(PID.TID 0000.0001) //      Min. barrier spins =              1
(PID.TID 0000.0001) //     Total barrier spins =         185866
(PID.TID 0000.0001) //      Avg. barrier spins =       1.00E+00
PROGRAM MAIN: Execution ended Normally
