(PID.TID 0000.0001) 
(PID.TID 0000.0001) // ======================================================
(PID.TID 0000.0001) //                      MITgcm UV
(PID.TID 0000.0001) //                      =========
(PID.TID 0000.0001) // ======================================================
(PID.TID 0000.0001) // execution environment starting up...
(PID.TID 0000.0001) 
(PID.TID 0000.0001) // MITgcmUV version:  checkpoint59h
(PID.TID 0000.0001) // Build user:        mlosch
(PID.TID 0000.0001) // Build host:        csysl4
(PID.TID 0000.0001) // Build date:        Tue Oct  9 08:12:09 CEST 2007
(PID.TID 0000.0001) 
(PID.TID 0000.0001) // =======================================================
(PID.TID 0000.0001) // Execution Environment parameter file "eedata"
(PID.TID 0000.0001) // =======================================================
(PID.TID 0000.0001) ># Example "eedata" file
(PID.TID 0000.0001) ># Lines beginning "#" are comments
(PID.TID 0000.0001) ># nTx - No. threads per process in X
(PID.TID 0000.0001) ># nTy - No. threads per process in Y
(PID.TID 0000.0001) > &EEPARMS
(PID.TID 0000.0001) > &
(PID.TID 0000.0001) ># Note: Some systems use & as the
(PID.TID 0000.0001) ># namelist terminator. Other systems
(PID.TID 0000.0001) ># use a / character (as shown here).
(PID.TID 0000.0001) 
(PID.TID 0000.0001) // =======================================================
(PID.TID 0000.0001) // Computational Grid Specification ( see files "SIZE.h" )
(PID.TID 0000.0001) //                                  ( and "eedata"       )
(PID.TID 0000.0001) // =======================================================
(PID.TID 0000.0001)      nPx =    1 ; /* No. processes in X */
(PID.TID 0000.0001)      nPy =    1 ; /* No. processes in Y */
(PID.TID 0000.0001)      nSx =    1 ; /* No. tiles in X per process */
(PID.TID 0000.0001)      nSy =    2 ; /* No. tiles in Y per process */
(PID.TID 0000.0001)      sNx =   50 ; /* Tile size in X */
(PID.TID 0000.0001)      sNy =   50 ; /* Tile size in Y */
(PID.TID 0000.0001)      OLx =    3 ; /* Tile overlap distance in X */
(PID.TID 0000.0001)      OLy =    3 ; /* Tile overlap distance in Y */
(PID.TID 0000.0001)      nTx =    1 ; /* No. threads in X per process */
(PID.TID 0000.0001)      nTy =    1 ; /* No. threads in Y per process */
(PID.TID 0000.0001)       Nr =   30 ; /* No. levels in the vertical   */
(PID.TID 0000.0001)       nX =   50 ; /* Total domain size in X ( = nPx*nSx*sNx ) */
(PID.TID 0000.0001)       nY =  100 ; /* Total domain size in Y ( = nPy*nSy*sNy ) */
(PID.TID 0000.0001)   nTiles =    2 ; /* Total no. tiles per process ( = nSx*nSy ) */
(PID.TID 0000.0001)   nProcs =    1 ; /* Total no. processes ( = nPx*nPy ) */
(PID.TID 0000.0001) nThreads =    1 ; /* Total no. threads per process ( = nTx*nTy ) */
(PID.TID 0000.0001) usingMPI =    F ; /* Flag used to control whether MPI is in use */
(PID.TID 0000.0001)                   /*  note: To execute a program with MPI calls */
(PID.TID 0000.0001)                   /*  it must be launched appropriately e.g     */
(PID.TID 0000.0001)                   /*  "mpirun -np 64 ......"                    */
(PID.TID 0000.0001) useCoupler=   F ; /* Flag used to control communications with */
(PID.TID 0000.0001)                   /*  other model components, through a coupler */
(PID.TID 0000.0001) 
(PID.TID 0000.0001) // ======================================================
(PID.TID 0000.0001) // Mapping of tiles to threads
(PID.TID 0000.0001) // ======================================================
(PID.TID 0000.0001) // -o- Thread   1, tiles (   1:   1,   1:   2)
(PID.TID 0000.0001) 
(PID.TID 0000.0001) // ======================================================
(PID.TID 0000.0001) // Tile <-> Tile connectvity table
(PID.TID 0000.0001) // ======================================================
(PID.TID 0000.0001) // Tile number: 000001 (process no. = 000001)
(PID.TID 0000.0001) //        WEST: Tile = 000001, Process = 000001, Comm = put
(PID.TID 0000.0001) //                bi = 000001, bj = 000001
(PID.TID 0000.0001) //        EAST: Tile = 000001, Process = 000001, Comm = put
(PID.TID 0000.0001) //                bi = 000001, bj = 000001
(PID.TID 0000.0001) //       SOUTH: Tile = 000002, Process = 000001, Comm = put
(PID.TID 0000.0001) //                bi = 000001, bj = 000002
(PID.TID 0000.0001) //       NORTH: Tile = 000002, Process = 000001, Comm = put
(PID.TID 0000.0001) //                bi = 000001, bj = 000002
(PID.TID 0000.0001) // Tile number: 000002 (process no. = 000001)
(PID.TID 0000.0001) //        WEST: Tile = 000002, Process = 000001, Comm = put
(PID.TID 0000.0001) //                bi = 000001, bj = 000002
(PID.TID 0000.0001) //        EAST: Tile = 000002, Process = 000001, Comm = put
(PID.TID 0000.0001) //                bi = 000001, bj = 000002
(PID.TID 0000.0001) //       SOUTH: Tile = 000001, Process = 000001, Comm = put
(PID.TID 0000.0001) //                bi = 000001, bj = 000001
(PID.TID 0000.0001) //       NORTH: Tile = 000001, Process = 000001, Comm = put
(PID.TID 0000.0001) //                bi = 000001, bj = 000001
(PID.TID 0000.0001) 
(PID.TID 0000.0001) // =======================================================
(PID.TID 0000.0001) // Model parameter file "data"
(PID.TID 0000.0001) // =======================================================
(PID.TID 0000.0001) ># ====================
(PID.TID 0000.0001) ># | Model parameters |
(PID.TID 0000.0001) ># ====================
(PID.TID 0000.0001) >#
(PID.TID 0000.0001) ># Continuous equation parameters
(PID.TID 0000.0001) > &PARM01
(PID.TID 0000.0001) > Tref = 30*-1.9,
(PID.TID 0000.0001) > Sref = 30*34.4,
(PID.TID 0000.0001) > viscAz=1.E-3,
(PID.TID 0000.0001) > viscAh=600.0,
(PID.TID 0000.0001) > no_slip_sides=.FALSE.,
(PID.TID 0000.0001) > diffKhT=100.0,
(PID.TID 0000.0001) > diffKzT=5.E-5,
(PID.TID 0000.0001) > diffKhS=100.0,
(PID.TID 0000.0001) > diffKzS=5.E-5,
(PID.TID 0000.0001) > bottomDragQuadratic=2.5E-3,
(PID.TID 0000.0001) > eosType='JMD95Z',
(PID.TID 0000.0001) > HeatCapacity_cp = 3974.0,
(PID.TID 0000.0001) > rhoConst=1030.,
(PID.TID 0000.0001) > rhoNil=1030.,
(PID.TID 0000.0001) > gravity=9.81,
(PID.TID 0000.0001) > gBaro=9.81,
(PID.TID 0000.0001) > convertFW2Salt = 33.4,
(PID.TID 0000.0001) > rigidLid=.FALSE.,
(PID.TID 0000.0001) > implicitFreeSurface=.TRUE.,
(PID.TID 0000.0001) > exactConserv=.true.,
(PID.TID 0000.0001) > hFacMin=0.05,
(PID.TID 0000.0001) > nonHydrostatic=.false.,
(PID.TID 0000.0001) > readBinaryPrec=64,
(PID.TID 0000.0001) > useCDScheme = .true.,
(PID.TID 0000.0001) > &
(PID.TID 0000.0001) >
(PID.TID 0000.0001) ># Elliptic solver parameters
(PID.TID 0000.0001) > &PARM02
(PID.TID 0000.0001) > cg2dMaxIters=1000,
(PID.TID 0000.0001) > cg2dTargetResidual=1.E-13,
(PID.TID 0000.0001) > cg3dMaxIters=400,
(PID.TID 0000.0001) > cg3dTargetResidual=1.E-13,
(PID.TID 0000.0001) > &
(PID.TID 0000.0001) >
(PID.TID 0000.0001) ># Time stepping parameters
(PID.TID 0000.0001) > &PARM03
(PID.TID 0000.0001) > niter0=0,
(PID.TID 0000.0001) > nTimeSteps=20,
(PID.TID 0000.0001) > deltaT=1800.0,
(PID.TID 0000.0001) > abEps=0.1,
(PID.TID 0000.0001) > cAdjFreq = -1.,
(PID.TID 0000.0001) > tauCD = 400000.,
(PID.TID 0000.0001) > pChkptFreq=0.0,
(PID.TID 0000.0001) > chkptFreq=0.0,
(PID.TID 0000.0001) > dumpFreq=0.0,
(PID.TID 0000.0001) > taveFreq=0.0,
(PID.TID 0000.0001) > monitorFreq=1.,
(PID.TID 0000.0001) > &
(PID.TID 0000.0001) >
(PID.TID 0000.0001) ># Gridding parameters
(PID.TID 0000.0001) > &PARM04
(PID.TID 0000.0001) > usingCartesianGrid=.FALSE.,
(PID.TID 0000.0001) > usingSphericalPolarGrid=.TRUE.,
(PID.TID 0000.0001) > phiMin = -80.0,
(PID.TID 0000.0001) > delX=50*0.3,
(PID.TID 0000.0001) > delY=100*0.1,
(PID.TID 0000.0001) > delZ=30*30.0,
(PID.TID 0000.0001) > &
(PID.TID 0000.0001) >
(PID.TID 0000.0001) ># Input datasets
(PID.TID 0000.0001) > &PARM05
(PID.TID 0000.0001) > bathyFile='bathy.box',
(PID.TID 0000.0001) > shelfIceFile='icetopo.exp1',
(PID.TID 0000.0001) > &
(PID.TID 0000.0001) 
(PID.TID 0000.0001) S/R INI_PARMS ; starts to read PARM01
(PID.TID 0000.0001) S/R INI_PARMS ; read PARM01 : OK
(PID.TID 0000.0001) S/R INI_PARMS ; starts to read PARM02
(PID.TID 0000.0001) S/R INI_PARMS ; read PARM02 : OK
(PID.TID 0000.0001) S/R INI_PARMS ; starts to read PARM03
(PID.TID 0000.0001) S/R INI_PARMS ; read PARM03 : OK
(PID.TID 0000.0001) S/R INI_PARMS ; starts to read PARM04
(PID.TID 0000.0001) S/R INI_PARMS ; read PARM04 : OK
(PID.TID 0000.0001) S/R INI_PARMS ; starts to read PARM05
(PID.TID 0000.0001) S/R INI_PARMS ; read PARM05 : OK
(PID.TID 0000.0001)  PACKAGES_BOOT: opening data.pkg
(PID.TID 0000.0001)  OPEN_COPY_DATA_FILE: opening file data.pkg
(PID.TID 0000.0001) // =======================================================
(PID.TID 0000.0001) // Parameter file "data.pkg"
(PID.TID 0000.0001) // =======================================================
(PID.TID 0000.0001) ># Packages
(PID.TID 0000.0001) > &PACKAGES
(PID.TID 0000.0001) > useMNC=.TRUE.,
(PID.TID 0000.0001) > useShelfIce=.true.,
(PID.TID 0000.0001) > &
(PID.TID 0000.0001) 
(PID.TID 0000.0001)  PACKAGES_BOOT: finished reading data.pkg
(PID.TID 0000.0001)  MNC_READPARMS: opening file 'data.mnc'
(PID.TID 0000.0001)  OPEN_COPY_DATA_FILE: opening file data.mnc
(PID.TID 0000.0001) // =======================================================
(PID.TID 0000.0001) // Parameter file "data.mnc"
(PID.TID 0000.0001) // =======================================================
(PID.TID 0000.0001) ># Example "data.mnc" file
(PID.TID 0000.0001) ># Lines beginning "#" are comments
(PID.TID 0000.0001) > &MNC_01
(PID.TID 0000.0001) ># mnc_echo_gvtypes=.FALSE.,
(PID.TID 0000.0001) ># mnc_use_indir=.FALSE.,
(PID.TID 0000.0001) > mnc_use_outdir=.TRUE.,
(PID.TID 0000.0001) > mnc_outdir_str='mnc_test_',
(PID.TID 0000.0001) >#mnc_outdir_date=.TRUE.,
(PID.TID 0000.0001) > monitor_mnc=.FALSE.,
(PID.TID 0000.0001) > timeave_mnc=.TRUE.,
(PID.TID 0000.0001) > snapshot_mnc=.TRUE.,
(PID.TID 0000.0001) ># pickup_write_mnc=.TRUE.,
(PID.TID 0000.0001) > &
(PID.TID 0000.0001) ># Note: Some systems use & as the
(PID.TID 0000.0001) ># namelist terminator. Other systems
(PID.TID 0000.0001) ># use a / character (as shown here).
(PID.TID 0000.0001) 
(PID.TID 0000.0001)  MNC_READPARMS: finished reading data.mnc
(PID.TID 0000.0001)  SHELFICE_READPARMS: opening data.shelfice
(PID.TID 0000.0001)  OPEN_COPY_DATA_FILE: opening file data.shelfice
(PID.TID 0000.0001) // =======================================================
(PID.TID 0000.0001) // Parameter file "data.shelfice"
(PID.TID 0000.0001) // =======================================================
(PID.TID 0000.0001) ># ===================================
(PID.TID 0000.0001) ># | Parameters for SHELFICE package |
(PID.TID 0000.0001) ># ===================================
(PID.TID 0000.0001) > &SHELFICE_PARM01
(PID.TID 0000.0001) > SHELFICEconserve = .TRUE.,
(PID.TID 0000.0001) > SHELFICEboundaryLayer = .TRUE.,
(PID.TID 0000.0001) > SHELFICEloadAnomalyFile = 'phi0surf.exp1.jmd95z',
(PID.TID 0000.0001) > no_slip_shelfice = .false.,
(PID.TID 0000.0001) > SHELFICEwriteState = .TRUE.,
(PID.TID 0000.0001) > &
(PID.TID 0000.0001) 
(PID.TID 0000.0001)  SHELFICE_READPARMS: finished reading data.shelfice
(PID.TID 0000.0001) SET_PARMS: done
(PID.TID 0000.0001) Enter INI_VERTICAL_GRID: setInterFDr=    T ; setCenterDr=    F
(PID.TID 0000.0001) %MON XC_max                       =   1.4850000000000E+01
(PID.TID 0000.0001) %MON XC_min                       =   1.5000000000000E-01
(PID.TID 0000.0001) %MON XC_mean                      =   7.5000000000000E+00
(PID.TID 0000.0001) %MON XC_sd                        =   4.3292609068985E+00
(PID.TID 0000.0001) %MON XG_max                       =   1.4700000000000E+01
(PID.TID 0000.0001) %MON XG_min                       =   1.1102230246252E-16
(PID.TID 0000.0001) %MON XG_mean                      =   7.3500000000000E+00
(PID.TID 0000.0001) %MON XG_sd                        =   4.3292609068985E+00
(PID.TID 0000.0001) %MON DXC_max                      =   1.1380125394806E+04
(PID.TID 0000.0001) %MON DXC_min                      =   5.8203914905589E+03
(PID.TID 0000.0001) %MON DXC_mean                     =   8.6215028627206E+03
(PID.TID 0000.0001) %MON DXC_sd                       =   1.6219001271572E+03
(PID.TID 0000.0001) %MON DXF_max                      =   1.1380125394806E+04
(PID.TID 0000.0001) %MON DXF_min                      =   5.8203914905589E+03
(PID.TID 0000.0001) %MON DXF_mean                     =   8.6215028627206E+03
(PID.TID 0000.0001) %MON DXF_sd                       =   1.6219001271572E+03
(PID.TID 0000.0001) %MON DXG_max                      =   1.1352761512017E+04
(PID.TID 0000.0001) %MON DXG_min                      =   5.7917296935586E+03
(PID.TID 0000.0001) %MON DXG_mean                     =   8.5934208253080E+03
(PID.TID 0000.0001) %MON DXG_sd                       =   1.6222785520817E+03
(PID.TID 0000.0001) %MON DXV_max                      =   1.1352761512017E+04
(PID.TID 0000.0001) %MON DXV_min                      =   5.7917296935586E+03
(PID.TID 0000.0001) %MON DXV_mean                     =   8.5934208253080E+03
(PID.TID 0000.0001) %MON DXV_sd                       =   1.6222785520817E+03
(PID.TID 0000.0001) %MON YC_max                       =  -7.0050000000001E+01
(PID.TID 0000.0001) %MON YC_min                       =  -7.9950000000000E+01
(PID.TID 0000.0001) %MON YC_mean                      =  -7.5000000000000E+01
(PID.TID 0000.0001) %MON YC_sd                        =   2.8866070047720E+00
(PID.TID 0000.0001) %MON YG_max                       =  -7.0100000000001E+01
(PID.TID 0000.0001) %MON YG_min                       =  -8.0000000000000E+01
(PID.TID 0000.0001) %MON YG_mean                      =  -7.5050000000000E+01
(PID.TID 0000.0001) %MON YG_sd                        =   2.8866070047720E+00
(PID.TID 0000.0001) %MON DYC_max                      =   1.1117747335204E+04
(PID.TID 0000.0001) %MON DYC_min                      =   1.1117747335204E+04
(PID.TID 0000.0001) %MON DYC_mean                     =   1.1117747335203E+04
(PID.TID 0000.0001) %MON DYC_sd                       =   6.0754246078432E-10
(PID.TID 0000.0001) %MON DYF_max                      =   1.1117747335204E+04
(PID.TID 0000.0001) %MON DYF_min                      =   1.1117747335204E+04
(PID.TID 0000.0001) %MON DYF_mean                     =   1.1117747335203E+04
(PID.TID 0000.0001) %MON DYF_sd                       =   6.0754246078432E-10
(PID.TID 0000.0001) %MON DYG_max                      =   1.1117747335204E+04
(PID.TID 0000.0001) %MON DYG_min                      =   1.1117747335204E+04
(PID.TID 0000.0001) %MON DYG_mean                     =   1.1117747335203E+04
(PID.TID 0000.0001) %MON DYG_sd                       =   6.0754246078432E-10
(PID.TID 0000.0001) %MON DYU_max                      =   1.1117747335204E+04
(PID.TID 0000.0001) %MON DYU_min                      =   1.1117747335204E+04
(PID.TID 0000.0001) %MON DYU_mean                     =   1.1117747335203E+04
(PID.TID 0000.0001) %MON DYU_sd                       =   6.0754246078432E-10
(PID.TID 0000.0001) %MON RA_max                       =   1.2652134272379E+08
(PID.TID 0000.0001) %MON RA_min                       =   6.4709633770803E+07
(PID.TID 0000.0001) %MON RA_mean                      =   9.5851678311588E+07
(PID.TID 0000.0001) %MON RA_sd                        =   1.8031873527991E+07
(PID.TID 0000.0001) %MON RAW_max                      =   1.2652134272379E+08
(PID.TID 0000.0001) %MON RAW_min                      =   6.4709633770803E+07
(PID.TID 0000.0001) %MON RAW_mean                     =   9.5851678311588E+07
(PID.TID 0000.0001) %MON RAW_sd                       =   1.8031873527991E+07
(PID.TID 0000.0001) %MON RAS_max                      =   1.2621711802744E+08
(PID.TID 0000.0001) %MON RAS_min                      =   6.4390979194019E+07
(PID.TID 0000.0001) %MON RAS_mean                     =   9.5539469354603E+07
(PID.TID 0000.0001) %MON RAS_sd                       =   1.8036080760153E+07
(PID.TID 0000.0001) %MON RAZ_max                      =   1.2621711802744E+08
(PID.TID 0000.0001) %MON RAZ_min                      =   6.4390979194019E+07
(PID.TID 0000.0001) %MON RAZ_mean                     =   9.5539469354603E+07
(PID.TID 0000.0001) %MON RAZ_sd                       =   1.8036080760153E+07
(PID.TID 0000.0001) %MON AngleCS_max                  =   1.0000000000000E+00
(PID.TID 0000.0001) %MON AngleCS_min                  =   1.0000000000000E+00
(PID.TID 0000.0001) %MON AngleCS_mean                 =   1.0000000000000E+00
(PID.TID 0000.0001) %MON AngleCS_sd                   =   0.0000000000000E+00
(PID.TID 0000.0001) %MON AngleSN_max                  =   0.0000000000000E+00
(PID.TID 0000.0001) %MON AngleSN_min                  =   0.0000000000000E+00
(PID.TID 0000.0001) %MON AngleSN_mean                 =   0.0000000000000E+00
(PID.TID 0000.0001) %MON AngleSN_sd                   =   0.0000000000000E+00
(PID.TID 0000.0001)  MDS_READ_FIELD: opening global file: bathy.box
(PID.TID 0000.0001)  MDS_READ_FIELD: opening global file: icetopo.exp1
(PID.TID 0000.0001) // =======================================================
(PID.TID 0000.0001) // Field Model R_low (ini_masks_etc) at iteration          1
(PID.TID 0000.0001) // CMIN =         -9.000000000000000E+02
(PID.TID 0000.0001) // CMAX =         -9.000000000000000E+02
(PID.TID 0000.0001) // CINT =          0.000000000000000E+00
(PID.TID 0000.0001) // SYMBOLS (CMIN->CMAX): -abcdefghijklmnopqrstuvwxyz+
(PID.TID 0000.0001) //                  0.0: .
(PID.TID 0000.0001) // RANGE I (Lo:Hi:Step):(  -2:  53:   1)
(PID.TID 0000.0001) // RANGE J (Lo:Hi:Step):( 103:  -2:  -1)
(PID.TID 0000.0001) // RANGE K (Lo:Hi:Step):(   1:   1:   1)
(PID.TID 0000.0001) // =======================================================
(PID.TID 0000.0001) // =======================================================
(PID.TID 0000.0001) // END OF FIELD                                          =
(PID.TID 0000.0001) // =======================================================
(PID.TID 0000.0001) 
(PID.TID 0000.0001) // =======================================================
(PID.TID 0000.0001) // Field Model Ro_surf (ini_masks_etc) at iteration          1
(PID.TID 0000.0001) // CMIN =         -6.812500000000010E+02
(PID.TID 0000.0001) // CMAX =         -2.000000000000000E+02
(PID.TID 0000.0001) // CINT =          1.782407407407411E+01
(PID.TID 0000.0001) // SYMBOLS (CMIN->CMAX): -abcdefghijklmnopqrstuvwxyz+
(PID.TID 0000.0001) //                  0.0: .
(PID.TID 0000.0001) // RANGE I (Lo:Hi:Step):(  -2:  53:   1)
(PID.TID 0000.0001) // RANGE J (Lo:Hi:Step):( 103:  -2:  -1)
(PID.TID 0000.0001) // RANGE K (Lo:Hi:Step):(   1:   1:   1)
(PID.TID 0000.0001) // =======================================================
(PID.TID 0000.0001) K =   1
(PID.TID 0000.0001) //                I=7       I=17      I=27      I=37      I=47
(PID.TID 0000.0001) // |--J--|210123456|890123456|890123456|890123456|890123456|890123
(PID.TID 0000.0001) //    103 aaa.aaaaaaaaaaaaaaaaaaaaaaaaaaaaaaaaaaaaaaaaaaaaaaaaa.aa
(PID.TID 0000.0001) //    102 ---.-------------------------------------------------.--
(PID.TID 0000.0001) //    101 ........................................................
(PID.TID 0000.0001) //    100 +++.+++++++++++++++++++++++++++++++++++++++++++++++++.++
(PID.TID 0000.0001) //     99 +++.+++++++++++++++++++++++++++++++++++++++++++++++++.++
(PID.TID 0000.0001) //     98 +++.+++++++++++++++++++++++++++++++++++++++++++++++++.++
(PID.TID 0000.0001) //     97 +++.+++++++++++++++++++++++++++++++++++++++++++++++++.++
(PID.TID 0000.0001) //     96 +++.+++++++++++++++++++++++++++++++++++++++++++++++++.++
(PID.TID 0000.0001) //     95 +++.+++++++++++++++++++++++++++++++++++++++++++++++++.++
(PID.TID 0000.0001) //     94 +++.+++++++++++++++++++++++++++++++++++++++++++++++++.++
(PID.TID 0000.0001) //     93 +++.+++++++++++++++++++++++++++++++++++++++++++++++++.++
(PID.TID 0000.0001) //     92 +++.+++++++++++++++++++++++++++++++++++++++++++++++++.++
(PID.TID 0000.0001) //     91 +++.+++++++++++++++++++++++++++++++++++++++++++++++++.++
(PID.TID 0000.0001) //     90 +++.+++++++++++++++++++++++++++++++++++++++++++++++++.++
(PID.TID 0000.0001) //     89 +++.+++++++++++++++++++++++++++++++++++++++++++++++++.++
(PID.TID 0000.0001) //     88 +++.+++++++++++++++++++++++++++++++++++++++++++++++++.++
(PID.TID 0000.0001) //     87 +++.+++++++++++++++++++++++++++++++++++++++++++++++++.++
(PID.TID 0000.0001) //     86 +++.+++++++++++++++++++++++++++++++++++++++++++++++++.++
(PID.TID 0000.0001) //     85 +++.+++++++++++++++++++++++++++++++++++++++++++++++++.++
(PID.TID 0000.0001) //     84 +++.+++++++++++++++++++++++++++++++++++++++++++++++++.++
(PID.TID 0000.0001) //     83 +++.+++++++++++++++++++++++++++++++++++++++++++++++++.++
(PID.TID 0000.0001) //     82 +++.+++++++++++++++++++++++++++++++++++++++++++++++++.++
(PID.TID 0000.0001) //     81 +++.+++++++++++++++++++++++++++++++++++++++++++++++++.++
(PID.TID 0000.0001) //     80 +++.+++++++++++++++++++++++++++++++++++++++++++++++++.++
(PID.TID 0000.0001) //     79 +++.+++++++++++++++++++++++++++++++++++++++++++++++++.++
(PID.TID 0000.0001) //     78 +++.+++++++++++++++++++++++++++++++++++++++++++++++++.++
(PID.TID 0000.0001) //     77 +++.+++++++++++++++++++++++++++++++++++++++++++++++++.++
(PID.TID 0000.0001) //     76 +++.+++++++++++++++++++++++++++++++++++++++++++++++++.++
(PID.TID 0000.0001) //     75 +++.+++++++++++++++++++++++++++++++++++++++++++++++++.++
(PID.TID 0000.0001) //     74 +++.+++++++++++++++++++++++++++++++++++++++++++++++++.++
(PID.TID 0000.0001) //     73 +++.+++++++++++++++++++++++++++++++++++++++++++++++++.++
(PID.TID 0000.0001) //     72 +++.+++++++++++++++++++++++++++++++++++++++++++++++++.++
(PID.TID 0000.0001) //     71 +++.+++++++++++++++++++++++++++++++++++++++++++++++++.++
(PID.TID 0000.0001) //     70 +++.+++++++++++++++++++++++++++++++++++++++++++++++++.++
(PID.TID 0000.0001) //     69 +++.+++++++++++++++++++++++++++++++++++++++++++++++++.++
(PID.TID 0000.0001) //     68 +++.+++++++++++++++++++++++++++++++++++++++++++++++++.++
(PID.TID 0000.0001) //     67 +++.+++++++++++++++++++++++++++++++++++++++++++++++++.++
(PID.TID 0000.0001) //     66 +++.+++++++++++++++++++++++++++++++++++++++++++++++++.++
(PID.TID 0000.0001) //     65 +++.+++++++++++++++++++++++++++++++++++++++++++++++++.++
(PID.TID 0000.0001) //     64 +++.+++++++++++++++++++++++++++++++++++++++++++++++++.++
(PID.TID 0000.0001) //     63 +++.+++++++++++++++++++++++++++++++++++++++++++++++++.++
(PID.TID 0000.0001) //     62 +++.+++++++++++++++++++++++++++++++++++++++++++++++++.++
(PID.TID 0000.0001) //     61 +++.+++++++++++++++++++++++++++++++++++++++++++++++++.++
(PID.TID 0000.0001) //     60 +++.+++++++++++++++++++++++++++++++++++++++++++++++++.++
(PID.TID 0000.0001) //     59 +++.+++++++++++++++++++++++++++++++++++++++++++++++++.++
(PID.TID 0000.0001) //     58 +++.+++++++++++++++++++++++++++++++++++++++++++++++++.++
(PID.TID 0000.0001) //     57 +++.+++++++++++++++++++++++++++++++++++++++++++++++++.++
(PID.TID 0000.0001) //     56 +++.+++++++++++++++++++++++++++++++++++++++++++++++++.++
(PID.TID 0000.0001) //     55 +++.+++++++++++++++++++++++++++++++++++++++++++++++++.++
(PID.TID 0000.0001) //     54 +++.+++++++++++++++++++++++++++++++++++++++++++++++++.++
(PID.TID 0000.0001) //     53 +++.+++++++++++++++++++++++++++++++++++++++++++++++++.++
(PID.TID 0000.0001) //     52 +++.+++++++++++++++++++++++++++++++++++++++++++++++++.++
(PID.TID 0000.0001) //     51 +++.+++++++++++++++++++++++++++++++++++++++++++++++++.++
(PID.TID 0000.0001) //     50 +++.+++++++++++++++++++++++++++++++++++++++++++++++++.++
(PID.TID 0000.0001) //     49 +++.+++++++++++++++++++++++++++++++++++++++++++++++++.++
(PID.TID 0000.0001) //     48 +++.+++++++++++++++++++++++++++++++++++++++++++++++++.++
(PID.TID 0000.0001) //     53 +++.+++++++++++++++++++++++++++++++++++++++++++++++++.++
(PID.TID 0000.0001) //     52 +++.+++++++++++++++++++++++++++++++++++++++++++++++++.++
(PID.TID 0000.0001) //     51 +++.+++++++++++++++++++++++++++++++++++++++++++++++++.++
(PID.TID 0000.0001) //     50 +++.+++++++++++++++++++++++++++++++++++++++++++++++++.++
(PID.TID 0000.0001) //     49 +++.+++++++++++++++++++++++++++++++++++++++++++++++++.++
(PID.TID 0000.0001) //     48 +++.+++++++++++++++++++++++++++++++++++++++++++++++++.++
(PID.TID 0000.0001) //     47 +++.+++++++++++++++++++++++++++++++++++++++++++++++++.++
(PID.TID 0000.0001) //     46 +++.+++++++++++++++++++++++++++++++++++++++++++++++++.++
(PID.TID 0000.0001) //     45 +++.+++++++++++++++++++++++++++++++++++++++++++++++++.++
(PID.TID 0000.0001) //     44 +++.+++++++++++++++++++++++++++++++++++++++++++++++++.++
(PID.TID 0000.0001) //     43 +++.+++++++++++++++++++++++++++++++++++++++++++++++++.++
(PID.TID 0000.0001) //     42 +++.+++++++++++++++++++++++++++++++++++++++++++++++++.++
(PID.TID 0000.0001) //     41 +++.+++++++++++++++++++++++++++++++++++++++++++++++++.++
(PID.TID 0000.0001) //     40 +++.+++++++++++++++++++++++++++++++++++++++++++++++++.++
(PID.TID 0000.0001) //     39 zzz.zzzzzzzzzzzzzzzzzzzzzzzzzzzzzzzzzzzzzzzzzzzzzzzzz.zz
(PID.TID 0000.0001) //     38 yyy.yyyyyyyyyyyyyyyyyyyyyyyyyyyyyyyyyyyyyyyyyyyyyyyyy.yy
(PID.TID 0000.0001) //     37 yyy.yyyyyyyyyyyyyyyyyyyyyyyyyyyyyyyyyyyyyyyyyyyyyyyyy.yy
(PID.TID 0000.0001) //     36 xxx.xxxxxxxxxxxxxxxxxxxxxxxxxxxxxxxxxxxxxxxxxxxxxxxxx.xx
(PID.TID 0000.0001) //     35 www.wwwwwwwwwwwwwwwwwwwwwwwwwwwwwwwwwwwwwwwwwwwwwwwww.ww
(PID.TID 0000.0001) //     34 vvv.vvvvvvvvvvvvvvvvvvvvvvvvvvvvvvvvvvvvvvvvvvvvvvvvv.vv
(PID.TID 0000.0001) //     33 vvv.vvvvvvvvvvvvvvvvvvvvvvvvvvvvvvvvvvvvvvvvvvvvvvvvv.vv
(PID.TID 0000.0001) //     32 uuu.uuuuuuuuuuuuuuuuuuuuuuuuuuuuuuuuuuuuuuuuuuuuuuuuu.uu
(PID.TID 0000.0001) //     31 ttt.ttttttttttttttttttttttttttttttttttttttttttttttttt.tt
(PID.TID 0000.0001) //     30 ttt.ttttttttttttttttttttttttttttttttttttttttttttttttt.tt
(PID.TID 0000.0001) //     29 sss.sssssssssssssssssssssssssssssssssssssssssssssssss.ss
(PID.TID 0000.0001) //     28 rrr.rrrrrrrrrrrrrrrrrrrrrrrrrrrrrrrrrrrrrrrrrrrrrrrrr.rr
(PID.TID 0000.0001) //     27 rrr.rrrrrrrrrrrrrrrrrrrrrrrrrrrrrrrrrrrrrrrrrrrrrrrrr.rr
(PID.TID 0000.0001) //     26 qqq.qqqqqqqqqqqqqqqqqqqqqqqqqqqqqqqqqqqqqqqqqqqqqqqqq.qq
(PID.TID 0000.0001) //     25 ppp.ppppppppppppppppppppppppppppppppppppppppppppppppp.pp
(PID.TID 0000.0001) //     24 ooo.ooooooooooooooooooooooooooooooooooooooooooooooooo.oo
(PID.TID 0000.0001) //     23 ooo.ooooooooooooooooooooooooooooooooooooooooooooooooo.oo
(PID.TID 0000.0001) //     22 nnn.nnnnnnnnnnnnnnnnnnnnnnnnnnnnnnnnnnnnnnnnnnnnnnnnn.nn
(PID.TID 0000.0001) //     21 mmm.mmmmmmmmmmmmmmmmmmmmmmmmmmmmmmmmmmmmmmmmmmmmmmmmm.mm
(PID.TID 0000.0001) //     20 mmm.mmmmmmmmmmmmmmmmmmmmmmmmmmmmmmmmmmmmmmmmmmmmmmmmm.mm
(PID.TID 0000.0001) //     19 lll.lllllllllllllllllllllllllllllllllllllllllllllllll.ll
(PID.TID 0000.0001) //     18 kkk.kkkkkkkkkkkkkkkkkkkkkkkkkkkkkkkkkkkkkkkkkkkkkkkkk.kk
(PID.TID 0000.0001) //     17 kkk.kkkkkkkkkkkkkkkkkkkkkkkkkkkkkkkkkkkkkkkkkkkkkkkkk.kk
(PID.TID 0000.0001) //     16 jjj.jjjjjjjjjjjjjjjjjjjjjjjjjjjjjjjjjjjjjjjjjjjjjjjjj.jj
(PID.TID 0000.0001) //     15 iii.iiiiiiiiiiiiiiiiiiiiiiiiiiiiiiiiiiiiiiiiiiiiiiiii.ii
(PID.TID 0000.0001) //     14 hhh.hhhhhhhhhhhhhhhhhhhhhhhhhhhhhhhhhhhhhhhhhhhhhhhhh.hh
(PID.TID 0000.0001) //     13 hhh.hhhhhhhhhhhhhhhhhhhhhhhhhhhhhhhhhhhhhhhhhhhhhhhhh.hh
(PID.TID 0000.0001) //     12 ggg.ggggggggggggggggggggggggggggggggggggggggggggggggg.gg
(PID.TID 0000.0001) //     11 fff.fffffffffffffffffffffffffffffffffffffffffffffffff.ff
(PID.TID 0000.0001) //     10 fff.fffffffffffffffffffffffffffffffffffffffffffffffff.ff
(PID.TID 0000.0001) //      9 eee.eeeeeeeeeeeeeeeeeeeeeeeeeeeeeeeeeeeeeeeeeeeeeeeee.ee
(PID.TID 0000.0001) //      8 ddd.ddddddddddddddddddddddddddddddddddddddddddddddddd.dd
(PID.TID 0000.0001) //      7 ddd.ddddddddddddddddddddddddddddddddddddddddddddddddd.dd
(PID.TID 0000.0001) //      6 ccc.ccccccccccccccccccccccccccccccccccccccccccccccccc.cc
(PID.TID 0000.0001) //      5 bbb.bbbbbbbbbbbbbbbbbbbbbbbbbbbbbbbbbbbbbbbbbbbbbbbbb.bb
(PID.TID 0000.0001) //      4 aaa.aaaaaaaaaaaaaaaaaaaaaaaaaaaaaaaaaaaaaaaaaaaaaaaaa.aa
(PID.TID 0000.0001) //      3 aaa.aaaaaaaaaaaaaaaaaaaaaaaaaaaaaaaaaaaaaaaaaaaaaaaaa.aa
(PID.TID 0000.0001) //      2 ---.-------------------------------------------------.--
(PID.TID 0000.0001) //      1 ........................................................
(PID.TID 0000.0001) //      0 +++.+++++++++++++++++++++++++++++++++++++++++++++++++.++
(PID.TID 0000.0001) //     -1 +++.+++++++++++++++++++++++++++++++++++++++++++++++++.++
(PID.TID 0000.0001) //     -2 +++.+++++++++++++++++++++++++++++++++++++++++++++++++.++
(PID.TID 0000.0001) // =======================================================
(PID.TID 0000.0001) // END OF FIELD                                          =
(PID.TID 0000.0001) // =======================================================
(PID.TID 0000.0001) 
(PID.TID 0000.0001) // =======================================================
(PID.TID 0000.0001) // Field hFacC at iteration          1
(PID.TID 0000.0001) // CMIN =          1.000000000000000E+32
(PID.TID 0000.0001) // CMAX =         -1.000000000000000E+32
(PID.TID 0000.0001) // CINT =          0.000000000000000E+00
(PID.TID 0000.0001) // SYMBOLS (CMIN->CMAX): -abcdefghijklmnopqrstuvwxyz+
(PID.TID 0000.0001) //                  0.0: .
(PID.TID 0000.0001) // RANGE I (Lo:Hi:Step):(  -2:  53:   1)
(PID.TID 0000.0001) // RANGE J (Lo:Hi:Step):( 103:  -2:  -1)
(PID.TID 0000.0001) // RANGE K (Lo:Hi:Step):(   1:   1:   1)
(PID.TID 0000.0001) // =======================================================
(PID.TID 0000.0001) // =======================================================
(PID.TID 0000.0001) // END OF FIELD                                          =
(PID.TID 0000.0001) // =======================================================
(PID.TID 0000.0001) 
(PID.TID 0000.0001) // =======================================================
(PID.TID 0000.0001) // Field hFacW at iteration          1
(PID.TID 0000.0001) // CMIN =          1.000000000000000E+32
(PID.TID 0000.0001) // CMAX =         -1.000000000000000E+32
(PID.TID 0000.0001) // CINT =          0.000000000000000E+00
(PID.TID 0000.0001) // SYMBOLS (CMIN->CMAX): -abcdefghijklmnopqrstuvwxyz+
(PID.TID 0000.0001) //                  0.0: .
(PID.TID 0000.0001) // RANGE I (Lo:Hi:Step):(  -2:  53:   1)
(PID.TID 0000.0001) // RANGE J (Lo:Hi:Step):( 103:  -2:  -1)
(PID.TID 0000.0001) // RANGE K (Lo:Hi:Step):(   1:   1:   1)
(PID.TID 0000.0001) // =======================================================
(PID.TID 0000.0001) // =======================================================
(PID.TID 0000.0001) // END OF FIELD                                          =
(PID.TID 0000.0001) // =======================================================
(PID.TID 0000.0001) 
(PID.TID 0000.0001) // =======================================================
(PID.TID 0000.0001) // Field hFacS at iteration          1
(PID.TID 0000.0001) // CMIN =          1.000000000000000E+32
(PID.TID 0000.0001) // CMAX =         -1.000000000000000E+32
(PID.TID 0000.0001) // CINT =          0.000000000000000E+00
(PID.TID 0000.0001) // SYMBOLS (CMIN->CMAX): -abcdefghijklmnopqrstuvwxyz+
(PID.TID 0000.0001) //                  0.0: .
(PID.TID 0000.0001) // RANGE I (Lo:Hi:Step):(  -2:  53:   1)
(PID.TID 0000.0001) // RANGE J (Lo:Hi:Step):( 103:  -2:  -1)
(PID.TID 0000.0001) // RANGE K (Lo:Hi:Step):(   1:   1:   1)
(PID.TID 0000.0001) // =======================================================
(PID.TID 0000.0001) // =======================================================
(PID.TID 0000.0001) // END OF FIELD                                          =
(PID.TID 0000.0001) // =======================================================
(PID.TID 0000.0001) 
(PID.TID 0000.0001) 
(PID.TID 0000.0001) // ===================================
(PID.TID 0000.0001) // GAD parameters :
(PID.TID 0000.0001) // ===================================
(PID.TID 0000.0001) tempAdvScheme =   /* Temp. Horiz.Advection scheme selector */
(PID.TID 0000.0001)                       2
(PID.TID 0000.0001)     ;
(PID.TID 0000.0001) tempVertAdvScheme =   /* Temp. Vert. Advection scheme selector */
(PID.TID 0000.0001)                       2
(PID.TID 0000.0001)     ;
(PID.TID 0000.0001) tempMultiDimAdvec =   /* use Muti-Dim Advec method for Temp */
(PID.TID 0000.0001)                   F
(PID.TID 0000.0001)     ;
(PID.TID 0000.0001) tempSOM_Advection = /* use 2nd Order Moment Advection for Temp */
(PID.TID 0000.0001)                   F
(PID.TID 0000.0001)     ;
(PID.TID 0000.0001) AdamsBashforthGt = /* apply Adams-Bashforth extrapolation on Gt */
(PID.TID 0000.0001)                   T
(PID.TID 0000.0001)     ;
(PID.TID 0000.0001) AdamsBashforth_T = /* apply Adams-Bashforth extrapolation on Temp */
(PID.TID 0000.0001)                   F
(PID.TID 0000.0001)     ;
(PID.TID 0000.0001) saltAdvScheme =   /* Salt. Horiz.advection scheme selector */
(PID.TID 0000.0001)                       2
(PID.TID 0000.0001)     ;
(PID.TID 0000.0001) saltVertAdvScheme =   /* Salt. Vert. Advection scheme selector */
(PID.TID 0000.0001)                       2
(PID.TID 0000.0001)     ;
(PID.TID 0000.0001) saltMultiDimAdvec =   /* use Muti-Dim Advec method for Salt */
(PID.TID 0000.0001)                   F
(PID.TID 0000.0001)     ;
(PID.TID 0000.0001) saltSOM_Advection = /* use 2nd Order Moment Advection for Salt */
(PID.TID 0000.0001)                   F
(PID.TID 0000.0001)     ;
(PID.TID 0000.0001) AdamsBashforthGs = /* apply Adams-Bashforth extrapolation on Gs */
(PID.TID 0000.0001)                   T
(PID.TID 0000.0001)     ;
(PID.TID 0000.0001) AdamsBashforth_S = /* apply Adams-Bashforth extrapolation on Salt */
(PID.TID 0000.0001)                   F
(PID.TID 0000.0001)     ;
(PID.TID 0000.0001) // ===================================
(PID.TID 0000.0001)  MDS_READ_FIELD: opening global file: phi0surf.exp1.jmd95z
(PID.TID 0000.0001) GAD_CHECK: #define ALLOW_GENERIC_ADVDIFF
(PID.TID 0000.0001) SHELFICE_CHECK: #define ALLOW_SHELFICE
(PID.TID 0000.0001) %MON fCori_max                    =  -1.3709057042516E-04
(PID.TID 0000.0001) %MON fCori_min                    =  -1.4360464034757E-04
(PID.TID 0000.0001) %MON fCori_mean                   =  -1.4069429304699E-04
(PID.TID 0000.0001) %MON fCori_sd                     =   1.9069739624987E-06
(PID.TID 0000.0001) %MON fCoriG_max                   =  -1.3713394327439E-04
(PID.TID 0000.0001) %MON fCoriG_min                   =  -1.4362679550910E-04
(PID.TID 0000.0001) %MON fCoriG_mean                  =  -1.4072713798624E-04
(PID.TID 0000.0001) %MON fCoriG_sd                    =   1.9008093726821E-06
(PID.TID 0000.0001) %MON fCoriCos_max                 =   4.9761447480159E-05
(PID.TID 0000.0001) %MON fCoriCos_min                 =   2.5450607565678E-05
(PID.TID 0000.0001) %MON fCoriCos_mean                =   3.7698922201606E-05
(PID.TID 0000.0001) %MON fCoriCos_sd                  =   7.0920218535054E-06
(PID.TID 0000.0001) INI_CG2D: CG2D normalisation factor =  1.0404366262810520E-03
(PID.TID 0000.0001) 
(PID.TID 0000.0001) CONFIG_CHECK: OK
(PID.TID 0000.0001) // =======================================================
(PID.TID 0000.0001) // Model configuration
(PID.TID 0000.0001) // =======================================================
(PID.TID 0000.0001) //
(PID.TID 0000.0001) // "Physical" paramters ( PARM01 in namelist )
(PID.TID 0000.0001) //
(PID.TID 0000.0001) buoyancyRelation = /* Type of relation to get Buoyancy */
(PID.TID 0000.0001)               'OCEANIC'
(PID.TID 0000.0001)     ;
(PID.TID 0000.0001) fluidIsAir  =  /* fluid major constituent is Air */
(PID.TID 0000.0001)                   F
(PID.TID 0000.0001)     ;
(PID.TID 0000.0001) fluidIsWater=  /* fluid major constituent is Water */
(PID.TID 0000.0001)                   T
(PID.TID 0000.0001)     ;
(PID.TID 0000.0001) usingPCoords =  /* use p (or p*) vertical coordinate */
(PID.TID 0000.0001)                   F
(PID.TID 0000.0001)     ;
(PID.TID 0000.0001) usingZCoords =  /* use z (or z*) vertical coordinate */
(PID.TID 0000.0001)                   T
(PID.TID 0000.0001)     ;
(PID.TID 0000.0001) tRef =   /* Reference temperature profile ( oC or K ) */
(PID.TID 0000.0001)    30 @ -1.900000000000000E+00              /* K =  1: 30 */
(PID.TID 0000.0001)     ;
(PID.TID 0000.0001) sRef =   /* Reference salinity profile ( psu ) */
(PID.TID 0000.0001)    30 @  3.440000000000000E+01              /* K =  1: 30 */
(PID.TID 0000.0001)     ;
(PID.TID 0000.0001) viscAh =   /* Lateral eddy viscosity ( m^2/s ) */
(PID.TID 0000.0001)                 6.000000000000000E+02
(PID.TID 0000.0001)     ;
(PID.TID 0000.0001) viscAhMax =   /* Maximum lateral eddy viscosity ( m^2/s ) */
(PID.TID 0000.0001)                 1.000000000000000E+21
(PID.TID 0000.0001)     ;
(PID.TID 0000.0001) viscAhGrid =   /* Grid dependent lateral eddy viscosity ( non-dim. ) */
(PID.TID 0000.0001)                 0.000000000000000E+00
(PID.TID 0000.0001)     ;
(PID.TID 0000.0001) useFullLeith =   /* Use Full Form of Leith Viscosity on/off flag*/
(PID.TID 0000.0001)                   F
(PID.TID 0000.0001)     ;
(PID.TID 0000.0001) useStrainTensionVisc =   /* Use StrainTension Form of Viscous Operator on/off flag*/
(PID.TID 0000.0001)                   F
(PID.TID 0000.0001)     ;
(PID.TID 0000.0001) useAreaViscLength =   /* Use area for visc length instead of geom. mean*/
(PID.TID 0000.0001)                   F
(PID.TID 0000.0001)     ;
(PID.TID 0000.0001) viscC2leith = /* Leith harmonic visc. factor (on grad(vort),non-dim.) */
(PID.TID 0000.0001)                 0.000000000000000E+00
(PID.TID 0000.0001)     ;
(PID.TID 0000.0001) viscC2leithD = /* Leith harmonic viscosity factor (on grad(div),non-dim.) */
(PID.TID 0000.0001)                 0.000000000000000E+00
(PID.TID 0000.0001)     ;
(PID.TID 0000.0001) viscC2smag =   /* Smagorinsky harmonic viscosity factor (non-dim.) */
(PID.TID 0000.0001)                 0.000000000000000E+00
(PID.TID 0000.0001)     ;
(PID.TID 0000.0001) viscA4 =   /* Lateral biharmonic viscosity ( m^4/s ) */
(PID.TID 0000.0001)                 0.000000000000000E+00
(PID.TID 0000.0001)     ;
(PID.TID 0000.0001) viscA4Max =   /* Maximum biharmonic viscosity ( m^2/s ) */
(PID.TID 0000.0001)                 1.000000000000000E+21
(PID.TID 0000.0001)     ;
(PID.TID 0000.0001) viscA4Grid =   /* Grid dependent biharmonic viscosity ( non-dim. ) */
(PID.TID 0000.0001)                 0.000000000000000E+00
(PID.TID 0000.0001)     ;
(PID.TID 0000.0001) viscC4leith = /* Leith biharm viscosity factor (on grad(vort), non-dim.) */
(PID.TID 0000.0001)                 0.000000000000000E+00
(PID.TID 0000.0001)     ;
(PID.TID 0000.0001) viscC4leithD = /* Leith biharm viscosity factor (on grad(div), non-dim.) */
(PID.TID 0000.0001)                 0.000000000000000E+00
(PID.TID 0000.0001)     ;
(PID.TID 0000.0001) viscC4Smag = /* Smagorinsky biharm viscosity factor (non-dim) */
(PID.TID 0000.0001)                 0.000000000000000E+00
(PID.TID 0000.0001)     ;
(PID.TID 0000.0001) no_slip_sides =  /* Viscous BCs: No-slip sides */
(PID.TID 0000.0001)                   F
(PID.TID 0000.0001)     ;
(PID.TID 0000.0001) sideDragFactor = /* side-drag scaling factor (non-dim) */
(PID.TID 0000.0001)                 2.000000000000000E+00
(PID.TID 0000.0001)     ;
(PID.TID 0000.0001) viscAr =   /* Vertical eddy viscosity ( units of r^2/s ) */
(PID.TID 0000.0001)                 1.000000000000000E-03
(PID.TID 0000.0001)     ;
(PID.TID 0000.0001) no_slip_bottom =  /* Viscous BCs: No-slip bottom */
(PID.TID 0000.0001)                   T
(PID.TID 0000.0001)     ;
(PID.TID 0000.0001) bottomDragLinear = /* linear bottom-drag coefficient ( 1/s ) */
(PID.TID 0000.0001)                 0.000000000000000E+00
(PID.TID 0000.0001)     ;
(PID.TID 0000.0001) bottomDragQuadratic = /* quadratic bottom-drag coeff. ( 1/m ) */
(PID.TID 0000.0001)                 2.500000000000000E-03
(PID.TID 0000.0001)     ;
(PID.TID 0000.0001) diffKhT =   /* Laplacian diffusion of heat laterally ( m^2/s ) */
(PID.TID 0000.0001)                 1.000000000000000E+02
(PID.TID 0000.0001)     ;
(PID.TID 0000.0001) diffK4T =   /* Bihaarmonic diffusion of heat laterally ( m^4/s ) */
(PID.TID 0000.0001)                 0.000000000000000E+00
(PID.TID 0000.0001)     ;
(PID.TID 0000.0001) diffKhS =   /* Laplacian diffusion of salt laterally ( m^2/s ) */
(PID.TID 0000.0001)                 1.000000000000000E+02
(PID.TID 0000.0001)     ;
(PID.TID 0000.0001) diffK4S =   /* Bihaarmonic diffusion of salt laterally ( m^4/s ) */
(PID.TID 0000.0001)                 0.000000000000000E+00
(PID.TID 0000.0001)     ;
(PID.TID 0000.0001) diffKrNrT = /* vertical profile of vertical diffusion of Temp ( m^2/s )*/
(PID.TID 0000.0001)    30 @  5.000000000000000E-05              /* K =  1: 30 */
(PID.TID 0000.0001)     ;
(PID.TID 0000.0001) diffKrNrS = /* vertical profile of vertical diffusion of Salt ( m^2/s )*/
(PID.TID 0000.0001)    30 @  5.000000000000000E-05              /* K =  1: 30 */
(PID.TID 0000.0001)     ;
(PID.TID 0000.0001) diffKrBL79surf =   /* Surface diffusion for Bryan and Lewis 1979 ( m^2/s ) */
(PID.TID 0000.0001)                 0.000000000000000E+00
(PID.TID 0000.0001)     ;
(PID.TID 0000.0001) diffKrBL79deep =   /* Deep diffusion for Bryan and Lewis 1979 ( m^2/s ) */
(PID.TID 0000.0001)                 0.000000000000000E+00
(PID.TID 0000.0001)     ;
(PID.TID 0000.0001) diffKrBL79scl =   /* Depth scale for Bryan and Lewis 1979 ( m ) */
(PID.TID 0000.0001)                 2.000000000000000E+02
(PID.TID 0000.0001)     ;
(PID.TID 0000.0001) diffKrBL79Ho =   /* Turning depth for Bryan and Lewis 1979 ( m ) */
(PID.TID 0000.0001)                -2.000000000000000E+03
(PID.TID 0000.0001)     ;
(PID.TID 0000.0001) ivdc_kappa = /* Implicit Vertical Diffusivity for Convection ( m^2/s ) */
(PID.TID 0000.0001)                 0.000000000000000E+00
(PID.TID 0000.0001)     ;
(PID.TID 0000.0001) hMixCriteria=  /* Criteria for mixed-layer diagnostic */
(PID.TID 0000.0001)                -8.000000000000000E-01
(PID.TID 0000.0001)     ;
(PID.TID 0000.0001) eosType =  /* Type of Equation of State */
(PID.TID 0000.0001)               'JMD95Z'
(PID.TID 0000.0001)     ;
(PID.TID 0000.0001) tAlpha =   /* Linear EOS thermal expansion coefficient ( 1/oC ) */
(PID.TID 0000.0001)                 1.234567000000000E+05
(PID.TID 0000.0001)     ;
(PID.TID 0000.0001) sBeta =   /* Linear EOS haline contraction coefficient ( 1/psu ) */
(PID.TID 0000.0001)                 1.234567000000000E+05
(PID.TID 0000.0001)     ;
(PID.TID 0000.0001) rhonil =   /* Reference density ( kg/m^3 ) */
(PID.TID 0000.0001)                 1.030000000000000E+03
(PID.TID 0000.0001)     ;
(PID.TID 0000.0001) rhoConst =   /* Reference density ( kg/m^3 ) */
(PID.TID 0000.0001)                 1.030000000000000E+03
(PID.TID 0000.0001)     ;
(PID.TID 0000.0001) rhoFacC = /* normalized Reference density @ cell-Center (-) */
(PID.TID 0000.0001)    30 @  1.000000000000000E+00              /* K =  1: 30 */
(PID.TID 0000.0001)     ;
(PID.TID 0000.0001) rhoFacF = /* normalized Reference density @ W-Interface (-) */
(PID.TID 0000.0001)    31 @  1.000000000000000E+00              /* K =  1: 31 */
(PID.TID 0000.0001)     ;
(PID.TID 0000.0001) rhoConstFresh =   /* Reference density ( kg/m^3 ) */
(PID.TID 0000.0001)                 1.030000000000000E+03
(PID.TID 0000.0001)     ;
(PID.TID 0000.0001) gravity =   /* Gravitational acceleration ( m/s^2 ) */
(PID.TID 0000.0001)                 9.810000000000000E+00
(PID.TID 0000.0001)     ;
(PID.TID 0000.0001) gBaro =   /* Barotropic gravity ( m/s^2 ) */
(PID.TID 0000.0001)                 9.810000000000000E+00
(PID.TID 0000.0001)     ;
(PID.TID 0000.0001) rotationPeriod =   /* Rotation Period ( s ) */
(PID.TID 0000.0001)                 8.616400000000000E+04
(PID.TID 0000.0001)     ;
(PID.TID 0000.0001) omega =   /* Angular velocity ( rad/s ) */
(PID.TID 0000.0001)                 7.292123516990375E-05
(PID.TID 0000.0001)     ;
(PID.TID 0000.0001) f0 =   /* Reference coriolis parameter ( 1/s ) */
(PID.TID 0000.0001)                 1.000000000000000E-04
(PID.TID 0000.0001)     ;
(PID.TID 0000.0001) beta =   /* Beta ( 1/(m.s) ) */
(PID.TID 0000.0001)                 9.999999999999999E-12
(PID.TID 0000.0001)     ;
(PID.TID 0000.0001) freeSurfFac =   /* Implicit free surface factor */
(PID.TID 0000.0001)                 1.000000000000000E+00
(PID.TID 0000.0001)     ;
(PID.TID 0000.0001) implicitFreeSurface =   /* Implicit free surface on/off flag */
(PID.TID 0000.0001)                   T
(PID.TID 0000.0001)     ;
(PID.TID 0000.0001) rigidLid =   /* Rigid lid on/off flag */
(PID.TID 0000.0001)                   F
(PID.TID 0000.0001)     ;
(PID.TID 0000.0001) implicSurfPress =   /* Surface Pressure implicit factor (0-1)*/
(PID.TID 0000.0001)                 1.000000000000000E+00
(PID.TID 0000.0001)     ;
(PID.TID 0000.0001) implicDiv2Dflow =   /* Barot. Flow Div. implicit factor (0-1)*/
(PID.TID 0000.0001)                 1.000000000000000E+00
(PID.TID 0000.0001)     ;
(PID.TID 0000.0001) exactConserv =   /* Exact Volume Conservation on/off flag*/
(PID.TID 0000.0001)                   T
(PID.TID 0000.0001)     ;
(PID.TID 0000.0001) linFSConserveTr =   /* Tracer correction for Lin Free Surface on/off flag*/
(PID.TID 0000.0001)                   F
(PID.TID 0000.0001)     ;
(PID.TID 0000.0001) uniformLin_PhiSurf =   /* use uniform Bo_surf on/off flag*/
(PID.TID 0000.0001)                   T
(PID.TID 0000.0001)     ;
(PID.TID 0000.0001) nonlinFreeSurf =   /* Non-linear Free Surf. options (-1,0,1,2,3)*/
(PID.TID 0000.0001)                       0
(PID.TID 0000.0001)     ;
(PID.TID 0000.0001)      -1,0= Off ; 1,2,3= On, 2=+rescale gU,gV, 3=+update cg2d solv.
(PID.TID 0000.0001) hFacInf =   /* lower threshold for hFac (nonlinFreeSurf only)*/
(PID.TID 0000.0001)                 2.000000000000000E-01
(PID.TID 0000.0001)     ;
(PID.TID 0000.0001) hFacSup =   /* upper threshold for hFac (nonlinFreeSurf only)*/
(PID.TID 0000.0001)                 2.000000000000000E+00
(PID.TID 0000.0001)     ;
(PID.TID 0000.0001) select_rStar =   /* r* Coordinate options (not yet implemented)*/
(PID.TID 0000.0001)                       0
(PID.TID 0000.0001)     ;
(PID.TID 0000.0001) useRealFreshWaterFlux =   /* Real Fresh Water Flux on/off flag*/
(PID.TID 0000.0001)                   F
(PID.TID 0000.0001)     ;
(PID.TID 0000.0001) convertFW2Salt = /* convert F.W. Flux to Salt Flux (-1=use local S)(ppt)*/
(PID.TID 0000.0001)                 3.340000000000000E+01
(PID.TID 0000.0001)     ;
(PID.TID 0000.0001) use3Dsolver = /* use 3-D pressure solver on/off flag */
(PID.TID 0000.0001)                   F
(PID.TID 0000.0001)     ;
(PID.TID 0000.0001) nonHydrostatic =  /* Non-Hydrostatic on/off flag */
(PID.TID 0000.0001)                   F
(PID.TID 0000.0001)     ;
(PID.TID 0000.0001) nh_Am2 = /* Non-Hydrostatic terms scaling factor */
(PID.TID 0000.0001)                 1.000000000000000E+00
(PID.TID 0000.0001)     ;
(PID.TID 0000.0001) quasiHydrostatic = /* Quasi-Hydrostatic on/off flag */
(PID.TID 0000.0001)                   F
(PID.TID 0000.0001)     ;
(PID.TID 0000.0001) momStepping =  /* Momentum equation on/off flag */
(PID.TID 0000.0001)                   T
(PID.TID 0000.0001)     ;
(PID.TID 0000.0001) vectorInvariantMomentum= /* Vector-Invariant Momentum on/off */
(PID.TID 0000.0001)                   F
(PID.TID 0000.0001)     ;
(PID.TID 0000.0001) momAdvection =  /* Momentum advection on/off flag */
(PID.TID 0000.0001)                   T
(PID.TID 0000.0001)     ;
(PID.TID 0000.0001) momViscosity =  /* Momentum viscosity on/off flag */
(PID.TID 0000.0001)                   T
(PID.TID 0000.0001)     ;
(PID.TID 0000.0001) momImplVertAdv =/* Momentum implicit vert. advection on/off*/
(PID.TID 0000.0001)                   F
(PID.TID 0000.0001)     ;
(PID.TID 0000.0001) implicitViscosity = /* Implicit viscosity on/off flag */
(PID.TID 0000.0001)                   F
(PID.TID 0000.0001)     ;
(PID.TID 0000.0001) metricTerms =  /* metric-Terms on/off flag */
(PID.TID 0000.0001)                   T
(PID.TID 0000.0001)     ;
(PID.TID 0000.0001) useNHMTerms = /* Non-Hydrostatic Metric-Terms on/off */
(PID.TID 0000.0001)                   F
(PID.TID 0000.0001)     ;
(PID.TID 0000.0001) useConstantF =  /* use Constant f0 Coriolis flag */
(PID.TID 0000.0001)                   F
(PID.TID 0000.0001)     ;
(PID.TID 0000.0001) useBetaPlaneF = /* use Beta-Plane Coriolis flag */
(PID.TID 0000.0001)                   F
(PID.TID 0000.0001)     ;
(PID.TID 0000.0001) useSphereF  =   /* use Spherical Coriolis flag */
(PID.TID 0000.0001)                   T
(PID.TID 0000.0001)     ;
(PID.TID 0000.0001) use3dCoriolis = /* 3-D Coriolis on/off flag */
(PID.TID 0000.0001)                   F
(PID.TID 0000.0001)     ;
(PID.TID 0000.0001) useCoriolis =  /* Coriolis on/off flag */
(PID.TID 0000.0001)                   T
(PID.TID 0000.0001)     ;
(PID.TID 0000.0001) useCDscheme =  /* CD scheme on/off flag */
(PID.TID 0000.0001)                   T
(PID.TID 0000.0001)     ;
(PID.TID 0000.0001) useJamartWetPoints= /* Coriolis WetPoints method flag */
(PID.TID 0000.0001)                   F
(PID.TID 0000.0001)     ;
(PID.TID 0000.0001) useJamartMomAdv= /* V.I. Non-linear terms Jamart flag */
(PID.TID 0000.0001)                   F
(PID.TID 0000.0001)     ;
(PID.TID 0000.0001) SadournyCoriolis= /* Sadourny Coriolis discr. flag */
(PID.TID 0000.0001)                   F
(PID.TID 0000.0001)     ;
(PID.TID 0000.0001) upwindVorticity= /* Upwind bias vorticity flag */
(PID.TID 0000.0001)                   F
(PID.TID 0000.0001)     ;
(PID.TID 0000.0001) useAbsVorticity= /* Work with f+zeta in Coriolis */
(PID.TID 0000.0001)                   F
(PID.TID 0000.0001)     ;
(PID.TID 0000.0001) highOrderVorticity= /* High order interp. of vort. flag */
(PID.TID 0000.0001)                   F
(PID.TID 0000.0001)     ;
(PID.TID 0000.0001) upwindShear= /* Upwind vertical Shear advection flag */
(PID.TID 0000.0001)                   F
(PID.TID 0000.0001)     ;
(PID.TID 0000.0001) selectKEscheme= /* Kinetic Energy scheme selector */
(PID.TID 0000.0001)                       0
(PID.TID 0000.0001)     ;
(PID.TID 0000.0001) momForcing =  /* Momentum forcing on/off flag */
(PID.TID 0000.0001)                   T
(PID.TID 0000.0001)     ;
(PID.TID 0000.0001) momPressureForcing =  /* Momentum pressure term on/off flag */
(PID.TID 0000.0001)                   T
(PID.TID 0000.0001)     ;
(PID.TID 0000.0001) implicitIntGravWave= /* Implicit Internal Gravity Wave flag */
(PID.TID 0000.0001)                   F
(PID.TID 0000.0001)     ;
(PID.TID 0000.0001) staggerTimeStep =   /* Stagger time stepping on/off flag */
(PID.TID 0000.0001)                   F
(PID.TID 0000.0001)     ;
(PID.TID 0000.0001) multiDimAdvection =   /* enable/disable Multi-Dim Advection */
(PID.TID 0000.0001)                   T
(PID.TID 0000.0001)     ;
(PID.TID 0000.0001) useMultiDimAdvec =   /* Multi-Dim Advection is/is-not used */
(PID.TID 0000.0001)                   F
(PID.TID 0000.0001)     ;
(PID.TID 0000.0001) implicitDiffusion =/* Implicit Diffusion on/off flag */
(PID.TID 0000.0001)                   F
(PID.TID 0000.0001)     ;
(PID.TID 0000.0001) tempStepping =  /* Temperature equation on/off flag */
(PID.TID 0000.0001)                   T
(PID.TID 0000.0001)     ;
(PID.TID 0000.0001) tempAdvection=  /* Temperature advection on/off flag */
(PID.TID 0000.0001)                   T
(PID.TID 0000.0001)     ;
(PID.TID 0000.0001) tempImplVertAdv =/* Temp. implicit vert. advection on/off */
(PID.TID 0000.0001)                   F
(PID.TID 0000.0001)     ;
(PID.TID 0000.0001) tempForcing  =  /* Temperature forcing on/off flag */
(PID.TID 0000.0001)                   T
(PID.TID 0000.0001)     ;
(PID.TID 0000.0001) saltStepping =  /* Salinity equation on/off flag */
(PID.TID 0000.0001)                   T
(PID.TID 0000.0001)     ;
(PID.TID 0000.0001) saltAdvection=  /* Salinity advection on/off flag */
(PID.TID 0000.0001)                   T
(PID.TID 0000.0001)     ;
(PID.TID 0000.0001) saltImplVertAdv =/* Sali. implicit vert. advection on/off */
(PID.TID 0000.0001)                   F
(PID.TID 0000.0001)     ;
(PID.TID 0000.0001) saltForcing  =  /* Salinity forcing on/off flag */
(PID.TID 0000.0001)                   T
(PID.TID 0000.0001)     ;
(PID.TID 0000.0001)  readBinaryPrec = /* Precision used for reading binary files */
(PID.TID 0000.0001)                      64
(PID.TID 0000.0001)     ;
(PID.TID 0000.0001) writeBinaryPrec = /* Precision used for writing binary files */
(PID.TID 0000.0001)                      32
(PID.TID 0000.0001)     ;
(PID.TID 0000.0001)  globalFiles = /* write "global" (=not per tile) files */
(PID.TID 0000.0001)                   F
(PID.TID 0000.0001)     ;
(PID.TID 0000.0001)  useSingleCpuIO = /* only master MPI process does I/O */
(PID.TID 0000.0001)                   F
(PID.TID 0000.0001)     ;
(PID.TID 0000.0001)  debugMode  =  /* Debug Mode on/off flag */
(PID.TID 0000.0001)                   F
(PID.TID 0000.0001)     ;
(PID.TID 0000.0001)    debLevA  =  /* 1rst level of debugging */
(PID.TID 0000.0001)                       1
(PID.TID 0000.0001)     ;
(PID.TID 0000.0001)    debLevB  =  /* 2nd  level of debugging */
(PID.TID 0000.0001)                       2
(PID.TID 0000.0001)     ;
(PID.TID 0000.0001)  debugLevel =  /* select debugging level */
(PID.TID 0000.0001)                       1
(PID.TID 0000.0001)     ;
(PID.TID 0000.0001) //
(PID.TID 0000.0001) // Elliptic solver(s) paramters ( PARM02 in namelist )
(PID.TID 0000.0001) //
(PID.TID 0000.0001) cg2dMaxIters =   /* Upper limit on 2d con. grad iterations  */
(PID.TID 0000.0001)                    1000
(PID.TID 0000.0001)     ;
(PID.TID 0000.0001) cg2dChkResFreq =   /* 2d con. grad convergence test frequency */
(PID.TID 0000.0001)                       1
(PID.TID 0000.0001)     ;
(PID.TID 0000.0001) cg2dTargetResidual =   /* 2d con. grad target residual  */
(PID.TID 0000.0001)                 1.000000000000000E-13
(PID.TID 0000.0001)     ;
(PID.TID 0000.0001) cg2dTargetResWunit =   /* CG2d target residual [W units] */
(PID.TID 0000.0001)                -1.000000000000000E+00
(PID.TID 0000.0001)     ;
(PID.TID 0000.0001) cg2dPreCondFreq =   /* Freq. for updating cg2d preconditioner */
(PID.TID 0000.0001)                       1
(PID.TID 0000.0001)     ;
(PID.TID 0000.0001) //
(PID.TID 0000.0001) // Time stepping paramters ( PARM03 in namelist )
(PID.TID 0000.0001) //
(PID.TID 0000.0001) nIter0 =   /* Run starting timestep number  */
(PID.TID 0000.0001)                       0
(PID.TID 0000.0001)     ;
(PID.TID 0000.0001) nTimeSteps =   /* Number of timesteps */
(PID.TID 0000.0001)                      20
(PID.TID 0000.0001)     ;
(PID.TID 0000.0001) deltaTmom =   /* Momentum equation timestep ( s ) */
(PID.TID 0000.0001)                 1.800000000000000E+03
(PID.TID 0000.0001)     ;
(PID.TID 0000.0001) deltaTfreesurf =   /* FreeSurface equation timestep ( s ) */
(PID.TID 0000.0001)                 1.800000000000000E+03
(PID.TID 0000.0001)     ;
(PID.TID 0000.0001) dTtracerLev =   /* Tracer equation timestep ( s ) */
(PID.TID 0000.0001)    30 @  1.800000000000000E+03              /* K =  1: 30 */
(PID.TID 0000.0001)     ;
(PID.TID 0000.0001) deltaTClock  =   /* Model clock timestep ( s ) */
(PID.TID 0000.0001)                 1.800000000000000E+03
(PID.TID 0000.0001)     ;
(PID.TID 0000.0001) cAdjFreq =   /* Convective adjustment interval ( s ) */
(PID.TID 0000.0001)                 1.800000000000000E+03
(PID.TID 0000.0001)     ;
(PID.TID 0000.0001) momForcingOutAB = /* =1: take Momentum Forcing out of Adams-Bash. stepping */
(PID.TID 0000.0001)                       0
(PID.TID 0000.0001)     ;
(PID.TID 0000.0001) tracForcingOutAB = /* =1: take T,S,pTr Forcing out of Adams-Bash. stepping */
(PID.TID 0000.0001)                       0
(PID.TID 0000.0001)     ;
(PID.TID 0000.0001) momDissip_In_AB = /* put Dissipation Tendency in Adams-Bash. stepping */
(PID.TID 0000.0001)                   T
(PID.TID 0000.0001)     ;
(PID.TID 0000.0001) doAB_onGtGs = /* apply AB on Tendencies (rather than on T,S)*/
(PID.TID 0000.0001)                   T
(PID.TID 0000.0001)     ;
(PID.TID 0000.0001) abEps =   /* Adams-Bashforth-2 stabilizing weight */
(PID.TID 0000.0001)                 1.000000000000000E-01
(PID.TID 0000.0001)     ;
(PID.TID 0000.0001) tauCD =   /* CD coupling time-scale ( s ) */
(PID.TID 0000.0001)                 4.000000000000000E+05
(PID.TID 0000.0001)     ;
(PID.TID 0000.0001) rCD =   /* Normalised CD coupling parameter */
(PID.TID 0000.0001)                 9.955000000000001E-01
(PID.TID 0000.0001)     ;
(PID.TID 0000.0001) baseTime =   /* Model base time ( s ). */
(PID.TID 0000.0001)                 0.000000000000000E+00
(PID.TID 0000.0001)     ;
(PID.TID 0000.0001) startTime =   /* Run start time ( s ). */
(PID.TID 0000.0001)                 0.000000000000000E+00
(PID.TID 0000.0001)     ;
(PID.TID 0000.0001) endTime =   /* Integration ending time ( s ). */
(PID.TID 0000.0001)                 3.600000000000000E+04
(PID.TID 0000.0001)     ;
(PID.TID 0000.0001) pChkPtFreq =   /* Permanent restart/checkpoint file interval ( s ). */
(PID.TID 0000.0001)                 0.000000000000000E+00
(PID.TID 0000.0001)     ;
(PID.TID 0000.0001) chkPtFreq =   /* Rolling restart/checkpoint file interval ( s ). */
(PID.TID 0000.0001)                 0.000000000000000E+00
(PID.TID 0000.0001)     ;
(PID.TID 0000.0001) pickup_write_mdsio =   /* Model IO flag. */
(PID.TID 0000.0001)                   F
(PID.TID 0000.0001)     ;
(PID.TID 0000.0001) pickup_read_mdsio =   /* Model IO flag. */
(PID.TID 0000.0001)                   F
(PID.TID 0000.0001)     ;
(PID.TID 0000.0001) pickup_write_mnc =   /* Model IO flag. */
(PID.TID 0000.0001)                   T
(PID.TID 0000.0001)     ;
(PID.TID 0000.0001) pickup_read_mnc =   /* Model IO flag. */
(PID.TID 0000.0001)                   T
(PID.TID 0000.0001)     ;
(PID.TID 0000.0001) pickup_write_immed =   /* Model IO flag. */
(PID.TID 0000.0001)                   F
(PID.TID 0000.0001)     ;
(PID.TID 0000.0001) dumpFreq =   /* Model state write out interval ( s ). */
(PID.TID 0000.0001)                 0.000000000000000E+00
(PID.TID 0000.0001)     ;
(PID.TID 0000.0001) dumpInitAndLast= /* write out Initial & Last iter. model state */
(PID.TID 0000.0001)                   T
(PID.TID 0000.0001)     ;
(PID.TID 0000.0001) snapshot_mdsio =   /* Model IO flag. */
(PID.TID 0000.0001)                   F
(PID.TID 0000.0001)     ;
(PID.TID 0000.0001) snapshot_mnc =   /* Model IO flag. */
(PID.TID 0000.0001)                   T
(PID.TID 0000.0001)     ;
(PID.TID 0000.0001) monitorFreq =   /* Monitor output interval ( s ). */
(PID.TID 0000.0001)                 1.000000000000000E+00
(PID.TID 0000.0001)     ;
(PID.TID 0000.0001) monitor_stdio =   /* Model IO flag. */
(PID.TID 0000.0001)                   T
(PID.TID 0000.0001)     ;
(PID.TID 0000.0001) monitor_mnc =   /* Model IO flag. */
(PID.TID 0000.0001)                   F
(PID.TID 0000.0001)     ;
(PID.TID 0000.0001) externForcingPeriod =   /* forcing period (s) */
(PID.TID 0000.0001)                 0.000000000000000E+00
(PID.TID 0000.0001)     ;
(PID.TID 0000.0001) externForcingCycle =   /* period of the cyle (s). */
(PID.TID 0000.0001)                 0.000000000000000E+00
(PID.TID 0000.0001)     ;
(PID.TID 0000.0001) tauThetaClimRelax =   /* relaxation time scale (s) */
(PID.TID 0000.0001)                 0.000000000000000E+00
(PID.TID 0000.0001)     ;
(PID.TID 0000.0001) tauSaltClimRelax =   /* relaxation time scale (s) */
(PID.TID 0000.0001)                 0.000000000000000E+00
(PID.TID 0000.0001)     ;
(PID.TID 0000.0001) latBandClimRelax =   /* max. Lat. where relaxation */
(PID.TID 0000.0001)                 1.800000000000000E+02
(PID.TID 0000.0001)     ;
(PID.TID 0000.0001) //
(PID.TID 0000.0001) // Gridding paramters ( PARM04 in namelist )
(PID.TID 0000.0001) //
(PID.TID 0000.0001) usingCartesianGrid = /* Cartesian coordinates flag ( True/False ) */
(PID.TID 0000.0001)                   F
(PID.TID 0000.0001)     ;
(PID.TID 0000.0001) usingCylindricalGrid = /* Cylindrical coordinates flag ( True/False ) */
(PID.TID 0000.0001)                   F
(PID.TID 0000.0001)     ;
(PID.TID 0000.0001) usingSphericalPolarGrid = /* Spherical coordinates flag ( True/False ) */
(PID.TID 0000.0001)                   T
(PID.TID 0000.0001)     ;
(PID.TID 0000.0001) usingCurvilinearGrid = /* Curvilinear coordinates flag ( True/False ) */
(PID.TID 0000.0001)                   F
(PID.TID 0000.0001)     ;
(PID.TID 0000.0001) Ro_SeaLevel = /* r(1) ( units of r ) */
(PID.TID 0000.0001)                 0.000000000000000E+00
(PID.TID 0000.0001)     ;
(PID.TID 0000.0001) rkSign =   /* index orientation relative to vertical coordinate */
(PID.TID 0000.0001)                -1.000000000000000E+00
(PID.TID 0000.0001)     ;
(PID.TID 0000.0001) gravitySign = /* gravity orientation relative to vertical coordinate */
(PID.TID 0000.0001)                -1.000000000000000E+00
(PID.TID 0000.0001)     ;
(PID.TID 0000.0001) mass2rUnit = /* convert mass per unit area [kg/m2] to r-units [m] */
(PID.TID 0000.0001)                 9.708737864077669E-04
(PID.TID 0000.0001)     ;
(PID.TID 0000.0001) rUnit2mass = /* convert r-units [m] to mass per unit area [kg/m2] */
(PID.TID 0000.0001)                 1.030000000000000E+03
(PID.TID 0000.0001)     ;
(PID.TID 0000.0001) drC =   /* C spacing ( units of r ) */
(PID.TID 0000.0001)                 1.500000000000000E+01,      /* K =  1 */
(PID.TID 0000.0001)    29 @  3.000000000000000E+01              /* K =  2: 30 */
(PID.TID 0000.0001)     ;
(PID.TID 0000.0001) drF =   /* W spacing ( units of r ) */
(PID.TID 0000.0001)    30 @  3.000000000000000E+01              /* K =  1: 30 */
(PID.TID 0000.0001)     ;
(PID.TID 0000.0001) delX =   /* U spacing ( m - cartesian, degrees - spherical ) */
(PID.TID 0000.0001)    50 @  3.000000000000000E-01              /* I =  1: 50 */
(PID.TID 0000.0001)     ;
(PID.TID 0000.0001) delY =   /* V spacing ( m - cartesian, degrees - spherical ) */
(PID.TID 0000.0001)   100 @  1.000000000000000E-01              /* J =  1:100 */
(PID.TID 0000.0001)     ;
(PID.TID 0000.0001) phiMin =    /* South edge (ignored - cartesian, degrees - spherical ) */
(PID.TID 0000.0001)                -8.000000000000000E+01
(PID.TID 0000.0001)     ;
(PID.TID 0000.0001) thetaMin =    /* West edge ( ignored - cartesian, degrees - spherical ) */
(PID.TID 0000.0001)                 0.000000000000000E+00
(PID.TID 0000.0001)     ;
(PID.TID 0000.0001) rSphere =  /* Radius ( ignored - cartesian, m - spherical ) */
(PID.TID 0000.0001)                 6.370000000000000E+06
(PID.TID 0000.0001)     ;
(PID.TID 0000.0001) deepAtmosphere = /* Deep/Shallow Atmosphere flag (True/False) */
(PID.TID 0000.0001)                   F
(PID.TID 0000.0001)     ;
(PID.TID 0000.0001) xcoord =   /* P-point X coord ( m - cartesian, degrees - spherical ) */
(PID.TID 0000.0001)                 1.500000000000001E-01,      /* I =  1 */
(PID.TID 0000.0001)                 4.500000000000001E-01,      /* I =  2 */
(PID.TID 0000.0001)                 7.500000000000002E-01,      /* I =  3 */
(PID.TID 0000.0001)                 1.050000000000000E+00,      /* I =  4 */
(PID.TID 0000.0001)                 1.350000000000000E+00,      /* I =  5 */
(PID.TID 0000.0001)                 1.650000000000000E+00,      /* I =  6 */
(PID.TID 0000.0001)                 1.950000000000000E+00,      /* I =  7 */
(PID.TID 0000.0001)                 2.250000000000000E+00,      /* I =  8 */
(PID.TID 0000.0001)                 2.550000000000000E+00,      /* I =  9 */
(PID.TID 0000.0001)                 2.850000000000000E+00,      /* I = 10 */
(PID.TID 0000.0001)                 3.149999999999999E+00,      /* I = 11 */
(PID.TID 0000.0001)                 3.449999999999999E+00,      /* I = 12 */
(PID.TID 0000.0001)                 3.749999999999999E+00,      /* I = 13 */
(PID.TID 0000.0001)                 4.049999999999999E+00,      /* I = 14 */
(PID.TID 0000.0001)                 4.350000000000000E+00,      /* I = 15 */
(PID.TID 0000.0001)                 4.649999999999999E+00,      /* I = 16 */
(PID.TID 0000.0001)                 4.949999999999999E+00,      /* I = 17 */
(PID.TID 0000.0001)                 5.249999999999998E+00,      /* I = 18 */
(PID.TID 0000.0001)                 5.549999999999999E+00,      /* I = 19 */
(PID.TID 0000.0001)                 5.849999999999998E+00,      /* I = 20 */
(PID.TID 0000.0001)                 6.149999999999999E+00,      /* I = 21 */
(PID.TID 0000.0001)                 6.449999999999998E+00,      /* I = 22 */
(PID.TID 0000.0001)                 6.749999999999998E+00,      /* I = 23 */
(PID.TID 0000.0001)                 7.049999999999997E+00,      /* I = 24 */
(PID.TID 0000.0001)                 7.349999999999997E+00,      /* I = 25 */
(PID.TID 0000.0001)                 7.649999999999997E+00,      /* I = 26 */
(PID.TID 0000.0001)                 7.949999999999998E+00,      /* I = 27 */
(PID.TID 0000.0001)                 8.249999999999998E+00,      /* I = 28 */
(PID.TID 0000.0001)                 8.549999999999999E+00,      /* I = 29 */
(PID.TID 0000.0001)                 8.850000000000000E+00,      /* I = 30 */
(PID.TID 0000.0001)                 9.150000000000000E+00,      /* I = 31 */
(PID.TID 0000.0001)                 9.450000000000001E+00,      /* I = 32 */
(PID.TID 0000.0001)                 9.750000000000002E+00,      /* I = 33 */
(PID.TID 0000.0001)                 1.005000000000000E+01,      /* I = 34 */
(PID.TID 0000.0001)                 1.035000000000000E+01,      /* I = 35 */
(PID.TID 0000.0001)                 1.065000000000000E+01,      /* I = 36 */
(PID.TID 0000.0001)                 1.095000000000001E+01,      /* I = 37 */
(PID.TID 0000.0001)                 1.125000000000001E+01,      /* I = 38 */
(PID.TID 0000.0001)                 1.155000000000000E+01,      /* I = 39 */
(PID.TID 0000.0001)                 1.185000000000001E+01,      /* I = 40 */
(PID.TID 0000.0001)                 1.215000000000001E+01,      /* I = 41 */
(PID.TID 0000.0001)                 1.245000000000001E+01,      /* I = 42 */
(PID.TID 0000.0001)                 1.275000000000001E+01,      /* I = 43 */
(PID.TID 0000.0001)                 1.305000000000001E+01,      /* I = 44 */
(PID.TID 0000.0001)                 1.335000000000001E+01,      /* I = 45 */
(PID.TID 0000.0001)                 1.365000000000001E+01,      /* I = 46 */
(PID.TID 0000.0001)                 1.395000000000001E+01,      /* I = 47 */
(PID.TID 0000.0001)                 1.425000000000001E+01,      /* I = 48 */
(PID.TID 0000.0001)                 1.455000000000001E+01,      /* I = 49 */
(PID.TID 0000.0001)                 1.485000000000001E+01       /* I = 50 */
(PID.TID 0000.0001)     ;
(PID.TID 0000.0001) ycoord =   /* P-point Y coord ( m - cartesian, degrees - spherical ) */
(PID.TID 0000.0001)                -7.995000000000000E+01,      /* J =  1 */
(PID.TID 0000.0001)                -7.985000000000001E+01,      /* J =  2 */
(PID.TID 0000.0001)                -7.975000000000001E+01,      /* J =  3 */
(PID.TID 0000.0001)                -7.965000000000002E+01,      /* J =  4 */
(PID.TID 0000.0001)                -7.955000000000003E+01,      /* J =  5 */
(PID.TID 0000.0001)                -7.945000000000003E+01,      /* J =  6 */
(PID.TID 0000.0001)                -7.935000000000004E+01,      /* J =  7 */
(PID.TID 0000.0001)                -7.925000000000004E+01,      /* J =  8 */
(PID.TID 0000.0001)                -7.915000000000005E+01,      /* J =  9 */
(PID.TID 0000.0001)                -7.905000000000005E+01,      /* J = 10 */
(PID.TID 0000.0001)                -7.895000000000006E+01,      /* J = 11 */
(PID.TID 0000.0001)                -7.885000000000007E+01,      /* J = 12 */
(PID.TID 0000.0001)                -7.875000000000007E+01,      /* J = 13 */
(PID.TID 0000.0001)                -7.865000000000008E+01,      /* J = 14 */
(PID.TID 0000.0001)                -7.855000000000008E+01,      /* J = 15 */
(PID.TID 0000.0001)                -7.845000000000009E+01,      /* J = 16 */
(PID.TID 0000.0001)                -7.835000000000009E+01,      /* J = 17 */
(PID.TID 0000.0001)                -7.825000000000010E+01,      /* J = 18 */
(PID.TID 0000.0001)                -7.815000000000011E+01,      /* J = 19 */
(PID.TID 0000.0001)                -7.805000000000011E+01,      /* J = 20 */
(PID.TID 0000.0001)                -7.795000000000012E+01,      /* J = 21 */
(PID.TID 0000.0001)                -7.785000000000012E+01,      /* J = 22 */
(PID.TID 0000.0001)                -7.775000000000013E+01,      /* J = 23 */
(PID.TID 0000.0001)                -7.765000000000013E+01,      /* J = 24 */
(PID.TID 0000.0001)                -7.755000000000014E+01,      /* J = 25 */
(PID.TID 0000.0001)                -7.745000000000014E+01,      /* J = 26 */
(PID.TID 0000.0001)                -7.735000000000015E+01,      /* J = 27 */
(PID.TID 0000.0001)                -7.725000000000016E+01,      /* J = 28 */
(PID.TID 0000.0001)                -7.715000000000016E+01,      /* J = 29 */
(PID.TID 0000.0001)                -7.705000000000017E+01,      /* J = 30 */
(PID.TID 0000.0001)                -7.695000000000017E+01,      /* J = 31 */
(PID.TID 0000.0001)                -7.685000000000018E+01,      /* J = 32 */
(PID.TID 0000.0001)                -7.675000000000018E+01,      /* J = 33 */
(PID.TID 0000.0001)                -7.665000000000019E+01,      /* J = 34 */
(PID.TID 0000.0001)                -7.655000000000020E+01,      /* J = 35 */
(PID.TID 0000.0001)                -7.645000000000020E+01,      /* J = 36 */
(PID.TID 0000.0001)                -7.635000000000021E+01,      /* J = 37 */
(PID.TID 0000.0001)                -7.625000000000021E+01,      /* J = 38 */
(PID.TID 0000.0001)                -7.615000000000022E+01,      /* J = 39 */
(PID.TID 0000.0001)                -7.605000000000022E+01,      /* J = 40 */
(PID.TID 0000.0001)                -7.595000000000023E+01,      /* J = 41 */
(PID.TID 0000.0001)                -7.585000000000024E+01,      /* J = 42 */
(PID.TID 0000.0001)                -7.575000000000024E+01,      /* J = 43 */
(PID.TID 0000.0001)                -7.565000000000025E+01,      /* J = 44 */
(PID.TID 0000.0001)                -7.555000000000025E+01,      /* J = 45 */
(PID.TID 0000.0001)                -7.545000000000026E+01,      /* J = 46 */
(PID.TID 0000.0001)                -7.535000000000026E+01,      /* J = 47 */
(PID.TID 0000.0001)                -7.525000000000027E+01,      /* J = 48 */
(PID.TID 0000.0001)                -7.515000000000028E+01,      /* J = 49 */
(PID.TID 0000.0001)                -7.505000000000028E+01,      /* J = 50 */
(PID.TID 0000.0001)                -7.495000000000029E+01,      /* J = 51 */
(PID.TID 0000.0001)                -7.485000000000029E+01,      /* J = 52 */
(PID.TID 0000.0001)                -7.475000000000030E+01,      /* J = 53 */
(PID.TID 0000.0001)                -7.465000000000030E+01,      /* J = 54 */
(PID.TID 0000.0001)                -7.455000000000031E+01,      /* J = 55 */
(PID.TID 0000.0001)                -7.445000000000032E+01,      /* J = 56 */
(PID.TID 0000.0001)                -7.435000000000032E+01,      /* J = 57 */
(PID.TID 0000.0001)                -7.425000000000033E+01,      /* J = 58 */
(PID.TID 0000.0001)                -7.415000000000033E+01,      /* J = 59 */
(PID.TID 0000.0001)                -7.405000000000034E+01,      /* J = 60 */
(PID.TID 0000.0001)                -7.395000000000034E+01,      /* J = 61 */
(PID.TID 0000.0001)                -7.385000000000035E+01,      /* J = 62 */
(PID.TID 0000.0001)                -7.375000000000036E+01,      /* J = 63 */
(PID.TID 0000.0001)                -7.365000000000036E+01,      /* J = 64 */
(PID.TID 0000.0001)                -7.355000000000037E+01,      /* J = 65 */
(PID.TID 0000.0001)                -7.345000000000037E+01,      /* J = 66 */
(PID.TID 0000.0001)                -7.335000000000038E+01,      /* J = 67 */
(PID.TID 0000.0001)                -7.325000000000038E+01,      /* J = 68 */
(PID.TID 0000.0001)                -7.315000000000039E+01,      /* J = 69 */
(PID.TID 0000.0001)                -7.305000000000040E+01,      /* J = 70 */
(PID.TID 0000.0001)                -7.295000000000040E+01,      /* J = 71 */
(PID.TID 0000.0001)                -7.285000000000041E+01,      /* J = 72 */
(PID.TID 0000.0001)                -7.275000000000041E+01,      /* J = 73 */
(PID.TID 0000.0001)                -7.265000000000042E+01,      /* J = 74 */
(PID.TID 0000.0001)                -7.255000000000042E+01,      /* J = 75 */
(PID.TID 0000.0001)                -7.245000000000043E+01,      /* J = 76 */
(PID.TID 0000.0001)                -7.235000000000043E+01,      /* J = 77 */
(PID.TID 0000.0001)                -7.225000000000044E+01,      /* J = 78 */
(PID.TID 0000.0001)                -7.215000000000045E+01,      /* J = 79 */
(PID.TID 0000.0001)                -7.205000000000045E+01,      /* J = 80 */
(PID.TID 0000.0001)                -7.195000000000046E+01,      /* J = 81 */
(PID.TID 0000.0001)                -7.185000000000046E+01,      /* J = 82 */
(PID.TID 0000.0001)                -7.175000000000047E+01,      /* J = 83 */
(PID.TID 0000.0001)                -7.165000000000047E+01,      /* J = 84 */
(PID.TID 0000.0001)                -7.155000000000048E+01,      /* J = 85 */
(PID.TID 0000.0001)                -7.145000000000049E+01,      /* J = 86 */
(PID.TID 0000.0001)                -7.135000000000049E+01,      /* J = 87 */
(PID.TID 0000.0001)                -7.125000000000050E+01,      /* J = 88 */
(PID.TID 0000.0001)                -7.115000000000050E+01,      /* J = 89 */
(PID.TID 0000.0001)                -7.105000000000051E+01,      /* J = 90 */
(PID.TID 0000.0001)                -7.095000000000051E+01,      /* J = 91 */
(PID.TID 0000.0001)                -7.085000000000052E+01,      /* J = 92 */
(PID.TID 0000.0001)                -7.075000000000053E+01,      /* J = 93 */
(PID.TID 0000.0001)                -7.065000000000053E+01,      /* J = 94 */
(PID.TID 0000.0001)                -7.055000000000054E+01,      /* J = 95 */
(PID.TID 0000.0001)                -7.045000000000054E+01,      /* J = 96 */
(PID.TID 0000.0001)                -7.035000000000055E+01,      /* J = 97 */
(PID.TID 0000.0001)                -7.025000000000055E+01,      /* J = 98 */
(PID.TID 0000.0001)                -7.015000000000056E+01,      /* J = 99 */
(PID.TID 0000.0001)                -7.005000000000057E+01       /* J =100 */
(PID.TID 0000.0001)     ;
(PID.TID 0000.0001) rcoord =   /* P-point R coordinate (  units of r ) */
(PID.TID 0000.0001)                -1.500000000000000E+01,      /* K =  1 */
(PID.TID 0000.0001)                -4.500000000000000E+01,      /* K =  2 */
(PID.TID 0000.0001)                -7.500000000000000E+01,      /* K =  3 */
(PID.TID 0000.0001)                -1.050000000000000E+02,      /* K =  4 */
(PID.TID 0000.0001)                -1.350000000000000E+02,      /* K =  5 */
(PID.TID 0000.0001)                -1.650000000000000E+02,      /* K =  6 */
(PID.TID 0000.0001)                -1.950000000000000E+02,      /* K =  7 */
(PID.TID 0000.0001)                -2.250000000000000E+02,      /* K =  8 */
(PID.TID 0000.0001)                -2.550000000000000E+02,      /* K =  9 */
(PID.TID 0000.0001)                -2.850000000000000E+02,      /* K = 10 */
(PID.TID 0000.0001)                -3.150000000000000E+02,      /* K = 11 */
(PID.TID 0000.0001)                -3.450000000000000E+02,      /* K = 12 */
(PID.TID 0000.0001)                -3.750000000000000E+02,      /* K = 13 */
(PID.TID 0000.0001)                -4.050000000000000E+02,      /* K = 14 */
(PID.TID 0000.0001)                -4.350000000000000E+02,      /* K = 15 */
(PID.TID 0000.0001)                -4.650000000000000E+02,      /* K = 16 */
(PID.TID 0000.0001)                -4.950000000000000E+02,      /* K = 17 */
(PID.TID 0000.0001)                -5.250000000000000E+02,      /* K = 18 */
(PID.TID 0000.0001)                -5.550000000000000E+02,      /* K = 19 */
(PID.TID 0000.0001)                -5.850000000000000E+02,      /* K = 20 */
(PID.TID 0000.0001)                -6.150000000000000E+02,      /* K = 21 */
(PID.TID 0000.0001)                -6.450000000000000E+02,      /* K = 22 */
(PID.TID 0000.0001)                -6.750000000000000E+02,      /* K = 23 */
(PID.TID 0000.0001)                -7.050000000000000E+02,      /* K = 24 */
(PID.TID 0000.0001)                -7.350000000000000E+02,      /* K = 25 */
(PID.TID 0000.0001)                -7.650000000000000E+02,      /* K = 26 */
(PID.TID 0000.0001)                -7.950000000000000E+02,      /* K = 27 */
(PID.TID 0000.0001)                -8.250000000000000E+02,      /* K = 28 */
(PID.TID 0000.0001)                -8.550000000000000E+02,      /* K = 29 */
(PID.TID 0000.0001)                -8.850000000000000E+02       /* K = 30 */
(PID.TID 0000.0001)     ;
(PID.TID 0000.0001) rF =   /* W-Interf. R coordinate (  units of r ) */
(PID.TID 0000.0001)                 0.000000000000000E+00,      /* K =  1 */
(PID.TID 0000.0001)                -3.000000000000000E+01,      /* K =  2 */
(PID.TID 0000.0001)                -6.000000000000000E+01,      /* K =  3 */
(PID.TID 0000.0001)                -9.000000000000000E+01,      /* K =  4 */
(PID.TID 0000.0001)                -1.200000000000000E+02,      /* K =  5 */
(PID.TID 0000.0001)                -1.500000000000000E+02,      /* K =  6 */
(PID.TID 0000.0001)                -1.800000000000000E+02,      /* K =  7 */
(PID.TID 0000.0001)                -2.100000000000000E+02,      /* K =  8 */
(PID.TID 0000.0001)                -2.400000000000000E+02,      /* K =  9 */
(PID.TID 0000.0001)                -2.700000000000000E+02,      /* K = 10 */
(PID.TID 0000.0001)                -3.000000000000000E+02,      /* K = 11 */
(PID.TID 0000.0001)                -3.300000000000000E+02,      /* K = 12 */
(PID.TID 0000.0001)                -3.600000000000000E+02,      /* K = 13 */
(PID.TID 0000.0001)                -3.900000000000000E+02,      /* K = 14 */
(PID.TID 0000.0001)                -4.200000000000000E+02,      /* K = 15 */
(PID.TID 0000.0001)                -4.500000000000000E+02,      /* K = 16 */
(PID.TID 0000.0001)                -4.800000000000000E+02,      /* K = 17 */
(PID.TID 0000.0001)                -5.100000000000000E+02,      /* K = 18 */
(PID.TID 0000.0001)                -5.400000000000000E+02,      /* K = 19 */
(PID.TID 0000.0001)                -5.700000000000000E+02,      /* K = 20 */
(PID.TID 0000.0001)                -6.000000000000000E+02,      /* K = 21 */
(PID.TID 0000.0001)                -6.300000000000000E+02,      /* K = 22 */
(PID.TID 0000.0001)                -6.600000000000000E+02,      /* K = 23 */
(PID.TID 0000.0001)                -6.900000000000000E+02,      /* K = 24 */
(PID.TID 0000.0001)                -7.200000000000000E+02,      /* K = 25 */
(PID.TID 0000.0001)                -7.500000000000000E+02,      /* K = 26 */
(PID.TID 0000.0001)                -7.800000000000000E+02,      /* K = 27 */
(PID.TID 0000.0001)                -8.100000000000000E+02,      /* K = 28 */
(PID.TID 0000.0001)                -8.400000000000000E+02,      /* K = 29 */
(PID.TID 0000.0001)                -8.700000000000000E+02,      /* K = 30 */
(PID.TID 0000.0001)                -9.000000000000000E+02       /* K = 31 */
(PID.TID 0000.0001)     ;
(PID.TID 0000.0001) deepFacC = /* deep-model grid factor @ cell-Center (-) */
(PID.TID 0000.0001)    30 @  1.000000000000000E+00              /* K =  1: 30 */
(PID.TID 0000.0001)     ;
(PID.TID 0000.0001) deepFacF = /* deep-model grid factor @ W-Interface (-) */
(PID.TID 0000.0001)    31 @  1.000000000000000E+00              /* K =  1: 31 */
(PID.TID 0000.0001)     ;
(PID.TID 0000.0001) rVel2wUnit = /* convert units: rVel -> wSpeed (=1 if z-coord)*/
(PID.TID 0000.0001)    31 @  1.000000000000000E+00              /* K =  1: 31 */
(PID.TID 0000.0001)     ;
(PID.TID 0000.0001) wUnit2rVel = /* convert units: wSpeed -> rVel (=1 if z-coord)*/
(PID.TID 0000.0001)    31 @  1.000000000000000E+00              /* K =  1: 31 */
(PID.TID 0000.0001)     ;
(PID.TID 0000.0001) dBdrRef = /* Vertical gradient of reference boyancy [(m/s/r)^2)] */
(PID.TID 0000.0001)    30 @  0.000000000000000E+00              /* K =  1: 30 */
(PID.TID 0000.0001)     ;
(PID.TID 0000.0001) dxF =  /* dxF(:,1,:,1) ( units: m ) */
(PID.TID 0000.0001)    50 @  5.820391490558872E+03              /* I =  1: 50 */
(PID.TID 0000.0001)     ;
(PID.TID 0000.0001) dxF =  /* dxF(1,:,1,:) ( units: m ) */
(PID.TID 0000.0001)                 5.820391490558872E+03,      /* J =  1 */
(PID.TID 0000.0001)                 5.877701765291692E+03,      /* J =  2 */
(PID.TID 0000.0001)                 5.934994135525598E+03,      /* J =  3 */
(PID.TID 0000.0001)                 5.992268426738092E+03,      /* J =  4 */
(PID.TID 0000.0001)                 6.049524464461751E+03,      /* J =  5 */
(PID.TID 0000.0001)                 6.106762074284755E+03,      /* J =  6 */
(PID.TID 0000.0001)                 6.163981081851418E+03,      /* J =  7 */
(PID.TID 0000.0001)                 6.221181312862721E+03,      /* J =  8 */
(PID.TID 0000.0001)                 6.278362593076839E+03,      /* J =  9 */
(PID.TID 0000.0001)                 6.335524748309675E+03,      /* J = 10 */
(PID.TID 0000.0001)                 6.392667604435392E+03,      /* J = 11 */
(PID.TID 0000.0001)                 6.449790987386939E+03,      /* J = 12 */
(PID.TID 0000.0001)                 6.506894723156589E+03,      /* J = 13 */
(PID.TID 0000.0001)                 6.563978637796454E+03,      /* J = 14 */
(PID.TID 0000.0001)                 6.621042557419033E+03,      /* J = 15 */
(PID.TID 0000.0001)                 6.678086308197730E+03,      /* J = 16 */
(PID.TID 0000.0001)                 6.735109716367390E+03,      /* J = 17 */
(PID.TID 0000.0001)                 6.792112608224819E+03,      /* J = 18 */
(PID.TID 0000.0001)                 6.849094810129332E+03,      /* J = 19 */
(PID.TID 0000.0001)                 6.906056148503244E+03,      /* J = 20 */
(PID.TID 0000.0001)                 6.962996449832446E+03,      /* J = 21 */
(PID.TID 0000.0001)                 7.019915540666910E+03,      /* J = 22 */
(PID.TID 0000.0001)                 7.076813247621209E+03,      /* J = 23 */
(PID.TID 0000.0001)                 7.133689397375063E+03,      /* J = 24 */
(PID.TID 0000.0001)                 7.190543816673855E+03,      /* J = 25 */
(PID.TID 0000.0001)                 7.247376332329164E+03,      /* J = 26 */
(PID.TID 0000.0001)                 7.304186771219292E+03,      /* J = 27 */
(PID.TID 0000.0001)                 7.360974960289787E+03,      /* J = 28 */
(PID.TID 0000.0001)                 7.417740726553981E+03,      /* J = 29 */
(PID.TID 0000.0001)                 7.474483897093503E+03,      /* J = 30 */
(PID.TID 0000.0001)                 7.531204299058815E+03,      /* J = 31 */
(PID.TID 0000.0001)                 7.587901759669735E+03,      /* J = 32 */
(PID.TID 0000.0001)                 7.644576106215967E+03,      /* J = 33 */
(PID.TID 0000.0001)                 7.701227166057623E+03,      /* J = 34 */
(PID.TID 0000.0001)                 7.757854766625747E+03,      /* J = 35 */
(PID.TID 0000.0001)                 7.814458735422849E+03,      /* J = 36 */
(PID.TID 0000.0001)                 7.871038900023425E+03,      /* J = 37 */
(PID.TID 0000.0001)                 7.927595088074479E+03,      /* J = 38 */
(PID.TID 0000.0001)                 7.984127127296055E+03,      /* J = 39 */
(PID.TID 0000.0001)                 8.040634845481757E+03,      /* J = 40 */
(PID.TID 0000.0001)                 8.097118070499275E+03,      /* J = 41 */
(PID.TID 0000.0001)                 8.153576630290919E+03,      /* J = 42 */
(PID.TID 0000.0001)                 8.210010352874109E+03,      /* J = 43 */
(PID.TID 0000.0001)                 8.266419066341947E+03,      /* J = 44 */
(PID.TID 0000.0001)                 8.322802598863705E+03,      /* J = 45 */
(PID.TID 0000.0001)                 8.379160778685373E+03,      /* J = 46 */
(PID.TID 0000.0001)                 8.435493434130152E+03,      /* J = 47 */
(PID.TID 0000.0001)                 8.491800393599013E+03,      /* J = 48 */
(PID.TID 0000.0001)                 8.548081485571185E+03,      /* J = 49 */
(PID.TID 0000.0001)                 8.604336538604706E+03,      /* J = 50 */
(PID.TID 0000.0001)                 8.660565381336924E+03,      /* J = 51 */
(PID.TID 0000.0001)                 8.716767842485036E+03,      /* J = 52 */
(PID.TID 0000.0001)                 8.772943750846600E+03,      /* J = 53 */
(PID.TID 0000.0001)                 8.829092935300054E+03,      /* J = 54 */
(PID.TID 0000.0001)                 8.885215224805244E+03,      /* J = 55 */
(PID.TID 0000.0001)                 8.941310448403947E+03,      /* J = 56 */
(PID.TID 0000.0001)                 8.997378435220378E+03,      /* J = 57 */
(PID.TID 0000.0001)                 9.053419014461731E+03,      /* J = 58 */
(PID.TID 0000.0001)                 9.109432015418679E+03,      /* J = 59 */
(PID.TID 0000.0001)                 9.165417267465908E+03,      /* J = 60 */
(PID.TID 0000.0001)                 9.221374600062631E+03,      /* J = 61 */
(PID.TID 0000.0001)                 9.277303842753110E+03,      /* J = 62 */
(PID.TID 0000.0001)                 9.333204825167171E+03,      /* J = 63 */
(PID.TID 0000.0001)                 9.389077377020727E+03,      /* J = 64 */
(PID.TID 0000.0001)                 9.444921328116297E+03,      /* J = 65 */
(PID.TID 0000.0001)                 9.500736508343525E+03,      /* J = 66 */
(PID.TID 0000.0001)                 9.556522747679681E+03,      /* J = 67 */
(PID.TID 0000.0001)                 9.612279876190212E+03,      /* J = 68 */
(PID.TID 0000.0001)                 9.668007724029234E+03,      /* J = 69 */
(PID.TID 0000.0001)                 9.723706121440056E+03,      /* J = 70 */
(PID.TID 0000.0001)                 9.779374898755706E+03,      /* J = 71 */
(PID.TID 0000.0001)                 9.835013886399427E+03,      /* J = 72 */
(PID.TID 0000.0001)                 9.890622914885218E+03,      /* J = 73 */
(PID.TID 0000.0001)                 9.946201814818334E+03,      /* J = 74 */
(PID.TID 0000.0001)                 1.000175041689580E+04,      /* J = 75 */
(PID.TID 0000.0001)                 1.005726855190695E+04,      /* J = 76 */
(PID.TID 0000.0001)                 1.011275605073392E+04,      /* J = 77 */
(PID.TID 0000.0001)                 1.016821274435215E+04,      /* J = 78 */
(PID.TID 0000.0001)                 1.022363846383095E+04,      /* J = 79 */
(PID.TID 0000.0001)                 1.027903304033395E+04,      /* J = 80 */
(PID.TID 0000.0001)                 1.033439630511968E+04,      /* J = 81 */
(PID.TID 0000.0001)                 1.038972808954202E+04,      /* J = 82 */
(PID.TID 0000.0001)                 1.044502822505077E+04,      /* J = 83 */
(PID.TID 0000.0001)                 1.050029654319212E+04,      /* J = 84 */
(PID.TID 0000.0001)                 1.055553287560919E+04,      /* J = 85 */
(PID.TID 0000.0001)                 1.061073705404253E+04,      /* J = 86 */
(PID.TID 0000.0001)                 1.066590891033064E+04,      /* J = 87 */
(PID.TID 0000.0001)                 1.072104827641048E+04,      /* J = 88 */
(PID.TID 0000.0001)                 1.077615498431797E+04,      /* J = 89 */
(PID.TID 0000.0001)                 1.083122886618854E+04,      /* J = 90 */
(PID.TID 0000.0001)                 1.088626975425758E+04,      /* J = 91 */
(PID.TID 0000.0001)                 1.094127748086099E+04,      /* J = 92 */
(PID.TID 0000.0001)                 1.099625187843571E+04,      /* J = 93 */
(PID.TID 0000.0001)                 1.105119277952020E+04,      /* J = 94 */
(PID.TID 0000.0001)                 1.110610001675492E+04,      /* J = 95 */
(PID.TID 0000.0001)                 1.116097342288293E+04,      /* J = 96 */
(PID.TID 0000.0001)                 1.121581283075030E+04,      /* J = 97 */
(PID.TID 0000.0001)                 1.127061807330668E+04,      /* J = 98 */
(PID.TID 0000.0001)                 1.132538898360582E+04,      /* J = 99 */
(PID.TID 0000.0001)                 1.138012539480601E+04       /* J =100 */
(PID.TID 0000.0001)     ;
(PID.TID 0000.0001) dyF =  /* dyF(:,1,:,1) ( units: m ) */
(PID.TID 0000.0001)    50 @  1.111774733520388E+04              /* I =  1: 50 */
(PID.TID 0000.0001)     ;
(PID.TID 0000.0001) dyF =  /* dyF(1,:,1,:) ( units: m ) */
(PID.TID 0000.0001)   100 @  1.111774733520388E+04              /* J =  1:100 */
(PID.TID 0000.0001)     ;
(PID.TID 0000.0001) dxG =  /* dxG(:,1,:,1) ( units: m ) */
(PID.TID 0000.0001)    50 @  5.791729693558576E+03              /* I =  1: 50 */
(PID.TID 0000.0001)     ;
(PID.TID 0000.0001) dxG =  /* dxG(1,:,1,:) ( units: m ) */
(PID.TID 0000.0001)                 5.791729693558576E+03,      /* J =  1 */
(PID.TID 0000.0001)                 5.849048855077854E+03,      /* J =  2 */
(PID.TID 0000.0001)                 5.906350199379949E+03,      /* J =  3 */
(PID.TID 0000.0001)                 5.963633551915032E+03,      /* J =  4 */
(PID.TID 0000.0001)                 6.020898738188074E+03,      /* J =  5 */
(PID.TID 0000.0001)                 6.078145583759388E+03,      /* J =  6 */
(PID.TID 0000.0001)                 6.135373914245153E+03,      /* J =  7 */
(PID.TID 0000.0001)                 6.192583555317951E+03,      /* J =  8 */
(PID.TID 0000.0001)                 6.249774332707294E+03,      /* J =  9 */
(PID.TID 0000.0001)                 6.306946072200154E+03,      /* J = 10 */
(PID.TID 0000.0001)                 6.364098599641497E+03,      /* J = 11 */
(PID.TID 0000.0001)                 6.421231740934816E+03,      /* J = 12 */
(PID.TID 0000.0001)                 6.478345322042654E+03,      /* J = 13 */
(PID.TID 0000.0001)                 6.535439168987135E+03,      /* J = 14 */
(PID.TID 0000.0001)                 6.592513107850500E+03,      /* J = 15 */
(PID.TID 0000.0001)                 6.649566964775637E+03,      /* J = 16 */
(PID.TID 0000.0001)                 6.706600565966598E+03,      /* J = 17 */
(PID.TID 0000.0001)                 6.763613737689147E+03,      /* J = 18 */
(PID.TID 0000.0001)                 6.820606306271281E+03,      /* J = 19 */
(PID.TID 0000.0001)                 6.877578098103740E+03,      /* J = 20 */
(PID.TID 0000.0001)                 6.934528939640570E+03,      /* J = 21 */
(PID.TID 0000.0001)                 6.991458657399629E+03,      /* J = 22 */
(PID.TID 0000.0001)                 7.048367077963129E+03,      /* J = 23 */
(PID.TID 0000.0001)                 7.105254027978149E+03,      /* J = 24 */
(PID.TID 0000.0001)                 7.162119334157175E+03,      /* J = 25 */
(PID.TID 0000.0001)                 7.218962823278620E+03,      /* J = 26 */
(PID.TID 0000.0001)                 7.275784322187360E+03,      /* J = 27 */
(PID.TID 0000.0001)                 7.332583657795253E+03,      /* J = 28 */
(PID.TID 0000.0001)                 7.389360657081677E+03,      /* J = 29 */
(PID.TID 0000.0001)                 7.446115147094042E+03,      /* J = 30 */
(PID.TID 0000.0001)                 7.502846954948329E+03,      /* J = 31 */
(PID.TID 0000.0001)                 7.559555907829611E+03,      /* J = 32 */
(PID.TID 0000.0001)                 7.616241832992587E+03,      /* J = 33 */
(PID.TID 0000.0001)                 7.672904557762095E+03,      /* J = 34 */
(PID.TID 0000.0001)                 7.729543909533650E+03,      /* J = 35 */
(PID.TID 0000.0001)                 7.786159715773963E+03,      /* J = 36 */
(PID.TID 0000.0001)                 7.842751804021470E+03,      /* J = 37 */
(PID.TID 0000.0001)                 7.899320001886857E+03,      /* J = 38 */
(PID.TID 0000.0001)                 7.955864137053582E+03,      /* J = 39 */
(PID.TID 0000.0001)                 8.012384037278402E+03,      /* J = 40 */
(PID.TID 0000.0001)                 8.068879530391900E+03,      /* J = 41 */
(PID.TID 0000.0001)                 8.125350444299005E+03,      /* J = 42 */
(PID.TID 0000.0001)                 8.181796606979530E+03,      /* J = 43 */
(PID.TID 0000.0001)                 8.238217846488658E+03,      /* J = 44 */
(PID.TID 0000.0001)                 8.294613990957514E+03,      /* J = 45 */
(PID.TID 0000.0001)                 8.350984868593665E+03,      /* J = 46 */
(PID.TID 0000.0001)                 8.407330307681643E+03,      /* J = 47 */
(PID.TID 0000.0001)                 8.463650136583461E+03,      /* J = 48 */
(PID.TID 0000.0001)                 8.519944183739159E+03,      /* J = 49 */
(PID.TID 0000.0001)                 8.576212277667308E+03,      /* J = 50 */
(PID.TID 0000.0001)                 8.632454246965530E+03,      /* J = 51 */
(PID.TID 0000.0001)                 8.688669920311038E+03,      /* J = 52 */
(PID.TID 0000.0001)                 8.744859126461139E+03,      /* J = 53 */
(PID.TID 0000.0001)                 8.801021694253765E+03,      /* J = 54 */
(PID.TID 0000.0001)                 8.857157452607997E+03,      /* J = 55 */
(PID.TID 0000.0001)                 8.913266230524581E+03,      /* J = 56 */
(PID.TID 0000.0001)                 8.969347857086450E+03,      /* J = 57 */
(PID.TID 0000.0001)                 9.025402161459237E+03,      /* J = 58 */
(PID.TID 0000.0001)                 9.081428972891812E+03,      /* J = 59 */
(PID.TID 0000.0001)                 9.137428120716793E+03,      /* J = 60 */
(PID.TID 0000.0001)                 9.193399434351066E+03,      /* J = 61 */
(PID.TID 0000.0001)                 9.249342743296300E+03,      /* J = 62 */
(PID.TID 0000.0001)                 9.305257877139473E+03,      /* J = 63 */
(PID.TID 0000.0001)                 9.361144665553391E+03,      /* J = 64 */
(PID.TID 0000.0001)                 9.417002938297206E+03,      /* J = 65 */
(PID.TID 0000.0001)                 9.472832525216931E+03,      /* J = 66 */
(PID.TID 0000.0001)                 9.528633256245968E+03,      /* J = 67 */
(PID.TID 0000.0001)                 9.584404961405600E+03,      /* J = 68 */
(PID.TID 0000.0001)                 9.640147470805550E+03,      /* J = 69 */
(PID.TID 0000.0001)                 9.695860614644464E+03,      /* J = 70 */
(PID.TID 0000.0001)                 9.751544223210447E+03,      /* J = 71 */
(PID.TID 0000.0001)                 9.807198126881565E+03,      /* J = 72 */
(PID.TID 0000.0001)                 9.862822156126382E+03,      /* J = 73 */
(PID.TID 0000.0001)                 9.918416141504455E+03,      /* J = 74 */
(PID.TID 0000.0001)                 9.973979913666863E+03,      /* J = 75 */
(PID.TID 0000.0001)                 1.002951330335672E+04,      /* J = 76 */
(PID.TID 0000.0001)                 1.008501614140969E+04,      /* J = 77 */
(PID.TID 0000.0001)                 1.014048825875450E+04,      /* J = 78 */
(PID.TID 0000.0001)                 1.019592948641347E+04,      /* J = 79 */
(PID.TID 0000.0001)                 1.025133965550300E+04,      /* J = 80 */
(PID.TID 0000.0001)                 1.030671859723410E+04,      /* J = 81 */
(PID.TID 0000.0001)                 1.036206614291292E+04,      /* J = 82 */
(PID.TID 0000.0001)                 1.041738212394122E+04,      /* J = 83 */
(PID.TID 0000.0001)                 1.047266637181695E+04,      /* J = 84 */
(PID.TID 0000.0001)                 1.052791871813469E+04,      /* J = 85 */
(PID.TID 0000.0001)                 1.058313899458622E+04,      /* J = 86 */
(PID.TID 0000.0001)                 1.063832703296099E+04,      /* J = 87 */
(PID.TID 0000.0001)                 1.069348266514667E+04,      /* J = 88 */
(PID.TID 0000.0001)                 1.074860572312964E+04,      /* J = 89 */
(PID.TID 0000.0001)                 1.080369603899551E+04,      /* J = 90 */
(PID.TID 0000.0001)                 1.085875344492962E+04,      /* J = 91 */
(PID.TID 0000.0001)                 1.091377777321755E+04,      /* J = 92 */
(PID.TID 0000.0001)                 1.096876885624567E+04,      /* J = 93 */
(PID.TID 0000.0001)                 1.102372652650160E+04,      /* J = 94 */
(PID.TID 0000.0001)                 1.107865061657475E+04,      /* J = 95 */
(PID.TID 0000.0001)                 1.113354095915680E+04,      /* J = 96 */
(PID.TID 0000.0001)                 1.118839738704227E+04,      /* J = 97 */
(PID.TID 0000.0001)                 1.124321973312895E+04,      /* J = 98 */
(PID.TID 0000.0001)                 1.129800783041847E+04,      /* J = 99 */
(PID.TID 0000.0001)                 1.135276151201679E+04       /* J =100 */
(PID.TID 0000.0001)     ;
(PID.TID 0000.0001) dyG =  /* dyG(:,1,:,1) ( units: m ) */
(PID.TID 0000.0001)    50 @  1.111774733520388E+04              /* I =  1: 50 */
(PID.TID 0000.0001)     ;
(PID.TID 0000.0001) dyG =  /* dyG(1,:,1,:) ( units: m ) */
(PID.TID 0000.0001)   100 @  1.111774733520388E+04              /* J =  1:100 */
(PID.TID 0000.0001)     ;
(PID.TID 0000.0001) dxC =  /* dxC(:,1,:,1) ( units: m ) */
(PID.TID 0000.0001)    50 @  5.820391490558872E+03              /* I =  1: 50 */
(PID.TID 0000.0001)     ;
(PID.TID 0000.0001) dxC =  /* dxC(1,:,1,:) ( units: m ) */
(PID.TID 0000.0001)                 5.820391490558872E+03,      /* J =  1 */
(PID.TID 0000.0001)                 5.877701765291692E+03,      /* J =  2 */
(PID.TID 0000.0001)                 5.934994135525598E+03,      /* J =  3 */
(PID.TID 0000.0001)                 5.992268426738092E+03,      /* J =  4 */
(PID.TID 0000.0001)                 6.049524464461751E+03,      /* J =  5 */
(PID.TID 0000.0001)                 6.106762074284755E+03,      /* J =  6 */
(PID.TID 0000.0001)                 6.163981081851418E+03,      /* J =  7 */
(PID.TID 0000.0001)                 6.221181312862721E+03,      /* J =  8 */
(PID.TID 0000.0001)                 6.278362593076839E+03,      /* J =  9 */
(PID.TID 0000.0001)                 6.335524748309675E+03,      /* J = 10 */
(PID.TID 0000.0001)                 6.392667604435392E+03,      /* J = 11 */
(PID.TID 0000.0001)                 6.449790987386939E+03,      /* J = 12 */
(PID.TID 0000.0001)                 6.506894723156589E+03,      /* J = 13 */
(PID.TID 0000.0001)                 6.563978637796454E+03,      /* J = 14 */
(PID.TID 0000.0001)                 6.621042557419033E+03,      /* J = 15 */
(PID.TID 0000.0001)                 6.678086308197730E+03,      /* J = 16 */
(PID.TID 0000.0001)                 6.735109716367390E+03,      /* J = 17 */
(PID.TID 0000.0001)                 6.792112608224819E+03,      /* J = 18 */
(PID.TID 0000.0001)                 6.849094810129332E+03,      /* J = 19 */
(PID.TID 0000.0001)                 6.906056148503244E+03,      /* J = 20 */
(PID.TID 0000.0001)                 6.962996449832446E+03,      /* J = 21 */
(PID.TID 0000.0001)                 7.019915540666910E+03,      /* J = 22 */
(PID.TID 0000.0001)                 7.076813247621209E+03,      /* J = 23 */
(PID.TID 0000.0001)                 7.133689397375063E+03,      /* J = 24 */
(PID.TID 0000.0001)                 7.190543816673855E+03,      /* J = 25 */
(PID.TID 0000.0001)                 7.247376332329164E+03,      /* J = 26 */
(PID.TID 0000.0001)                 7.304186771219292E+03,      /* J = 27 */
(PID.TID 0000.0001)                 7.360974960289787E+03,      /* J = 28 */
(PID.TID 0000.0001)                 7.417740726553981E+03,      /* J = 29 */
(PID.TID 0000.0001)                 7.474483897093503E+03,      /* J = 30 */
(PID.TID 0000.0001)                 7.531204299058815E+03,      /* J = 31 */
(PID.TID 0000.0001)                 7.587901759669735E+03,      /* J = 32 */
(PID.TID 0000.0001)                 7.644576106215967E+03,      /* J = 33 */
(PID.TID 0000.0001)                 7.701227166057623E+03,      /* J = 34 */
(PID.TID 0000.0001)                 7.757854766625747E+03,      /* J = 35 */
(PID.TID 0000.0001)                 7.814458735422849E+03,      /* J = 36 */
(PID.TID 0000.0001)                 7.871038900023425E+03,      /* J = 37 */
(PID.TID 0000.0001)                 7.927595088074479E+03,      /* J = 38 */
(PID.TID 0000.0001)                 7.984127127296055E+03,      /* J = 39 */
(PID.TID 0000.0001)                 8.040634845481757E+03,      /* J = 40 */
(PID.TID 0000.0001)                 8.097118070499275E+03,      /* J = 41 */
(PID.TID 0000.0001)                 8.153576630290919E+03,      /* J = 42 */
(PID.TID 0000.0001)                 8.210010352874109E+03,      /* J = 43 */
(PID.TID 0000.0001)                 8.266419066341947E+03,      /* J = 44 */
(PID.TID 0000.0001)                 8.322802598863705E+03,      /* J = 45 */
(PID.TID 0000.0001)                 8.379160778685373E+03,      /* J = 46 */
(PID.TID 0000.0001)                 8.435493434130152E+03,      /* J = 47 */
(PID.TID 0000.0001)                 8.491800393599013E+03,      /* J = 48 */
(PID.TID 0000.0001)                 8.548081485571185E+03,      /* J = 49 */
(PID.TID 0000.0001)                 8.604336538604706E+03,      /* J = 50 */
(PID.TID 0000.0001)                 8.660565381336924E+03,      /* J = 51 */
(PID.TID 0000.0001)                 8.716767842485036E+03,      /* J = 52 */
(PID.TID 0000.0001)                 8.772943750846600E+03,      /* J = 53 */
(PID.TID 0000.0001)                 8.829092935300054E+03,      /* J = 54 */
(PID.TID 0000.0001)                 8.885215224805244E+03,      /* J = 55 */
(PID.TID 0000.0001)                 8.941310448403947E+03,      /* J = 56 */
(PID.TID 0000.0001)                 8.997378435220378E+03,      /* J = 57 */
(PID.TID 0000.0001)                 9.053419014461731E+03,      /* J = 58 */
(PID.TID 0000.0001)                 9.109432015418679E+03,      /* J = 59 */
(PID.TID 0000.0001)                 9.165417267465908E+03,      /* J = 60 */
(PID.TID 0000.0001)                 9.221374600062631E+03,      /* J = 61 */
(PID.TID 0000.0001)                 9.277303842753110E+03,      /* J = 62 */
(PID.TID 0000.0001)                 9.333204825167171E+03,      /* J = 63 */
(PID.TID 0000.0001)                 9.389077377020727E+03,      /* J = 64 */
(PID.TID 0000.0001)                 9.444921328116297E+03,      /* J = 65 */
(PID.TID 0000.0001)                 9.500736508343525E+03,      /* J = 66 */
(PID.TID 0000.0001)                 9.556522747679681E+03,      /* J = 67 */
(PID.TID 0000.0001)                 9.612279876190212E+03,      /* J = 68 */
(PID.TID 0000.0001)                 9.668007724029234E+03,      /* J = 69 */
(PID.TID 0000.0001)                 9.723706121440056E+03,      /* J = 70 */
(PID.TID 0000.0001)                 9.779374898755706E+03,      /* J = 71 */
(PID.TID 0000.0001)                 9.835013886399427E+03,      /* J = 72 */
(PID.TID 0000.0001)                 9.890622914885218E+03,      /* J = 73 */
(PID.TID 0000.0001)                 9.946201814818334E+03,      /* J = 74 */
(PID.TID 0000.0001)                 1.000175041689580E+04,      /* J = 75 */
(PID.TID 0000.0001)                 1.005726855190695E+04,      /* J = 76 */
(PID.TID 0000.0001)                 1.011275605073392E+04,      /* J = 77 */
(PID.TID 0000.0001)                 1.016821274435215E+04,      /* J = 78 */
(PID.TID 0000.0001)                 1.022363846383095E+04,      /* J = 79 */
(PID.TID 0000.0001)                 1.027903304033395E+04,      /* J = 80 */
(PID.TID 0000.0001)                 1.033439630511968E+04,      /* J = 81 */
(PID.TID 0000.0001)                 1.038972808954202E+04,      /* J = 82 */
(PID.TID 0000.0001)                 1.044502822505077E+04,      /* J = 83 */
(PID.TID 0000.0001)                 1.050029654319212E+04,      /* J = 84 */
(PID.TID 0000.0001)                 1.055553287560919E+04,      /* J = 85 */
(PID.TID 0000.0001)                 1.061073705404253E+04,      /* J = 86 */
(PID.TID 0000.0001)                 1.066590891033064E+04,      /* J = 87 */
(PID.TID 0000.0001)                 1.072104827641048E+04,      /* J = 88 */
(PID.TID 0000.0001)                 1.077615498431797E+04,      /* J = 89 */
(PID.TID 0000.0001)                 1.083122886618854E+04,      /* J = 90 */
(PID.TID 0000.0001)                 1.088626975425758E+04,      /* J = 91 */
(PID.TID 0000.0001)                 1.094127748086099E+04,      /* J = 92 */
(PID.TID 0000.0001)                 1.099625187843571E+04,      /* J = 93 */
(PID.TID 0000.0001)                 1.105119277952020E+04,      /* J = 94 */
(PID.TID 0000.0001)                 1.110610001675492E+04,      /* J = 95 */
(PID.TID 0000.0001)                 1.116097342288293E+04,      /* J = 96 */
(PID.TID 0000.0001)                 1.121581283075030E+04,      /* J = 97 */
(PID.TID 0000.0001)                 1.127061807330668E+04,      /* J = 98 */
(PID.TID 0000.0001)                 1.132538898360582E+04,      /* J = 99 */
(PID.TID 0000.0001)                 1.138012539480601E+04       /* J =100 */
(PID.TID 0000.0001)     ;
(PID.TID 0000.0001) dyC =  /* dyC(:,1,:,1) ( units: m ) */
(PID.TID 0000.0001)    50 @  1.111774733520388E+04              /* I =  1: 50 */
(PID.TID 0000.0001)     ;
(PID.TID 0000.0001) dyC =  /* dyC(1,:,1,:) ( units: m ) */
(PID.TID 0000.0001)   100 @  1.111774733520388E+04              /* J =  1:100 */
(PID.TID 0000.0001)     ;
(PID.TID 0000.0001) dxV =  /* dxV(:,1,:,1) ( units: m ) */
(PID.TID 0000.0001)    50 @  5.791729693558576E+03              /* I =  1: 50 */
(PID.TID 0000.0001)     ;
(PID.TID 0000.0001) dxV =  /* dxV(1,:,1,:) ( units: m ) */
(PID.TID 0000.0001)                 5.791729693558576E+03,      /* J =  1 */
(PID.TID 0000.0001)                 5.849048855077854E+03,      /* J =  2 */
(PID.TID 0000.0001)                 5.906350199379949E+03,      /* J =  3 */
(PID.TID 0000.0001)                 5.963633551915032E+03,      /* J =  4 */
(PID.TID 0000.0001)                 6.020898738188074E+03,      /* J =  5 */
(PID.TID 0000.0001)                 6.078145583759388E+03,      /* J =  6 */
(PID.TID 0000.0001)                 6.135373914245153E+03,      /* J =  7 */
(PID.TID 0000.0001)                 6.192583555317951E+03,      /* J =  8 */
(PID.TID 0000.0001)                 6.249774332707294E+03,      /* J =  9 */
(PID.TID 0000.0001)                 6.306946072200154E+03,      /* J = 10 */
(PID.TID 0000.0001)                 6.364098599641497E+03,      /* J = 11 */
(PID.TID 0000.0001)                 6.421231740934816E+03,      /* J = 12 */
(PID.TID 0000.0001)                 6.478345322042654E+03,      /* J = 13 */
(PID.TID 0000.0001)                 6.535439168987135E+03,      /* J = 14 */
(PID.TID 0000.0001)                 6.592513107850500E+03,      /* J = 15 */
(PID.TID 0000.0001)                 6.649566964775637E+03,      /* J = 16 */
(PID.TID 0000.0001)                 6.706600565966598E+03,      /* J = 17 */
(PID.TID 0000.0001)                 6.763613737689147E+03,      /* J = 18 */
(PID.TID 0000.0001)                 6.820606306271281E+03,      /* J = 19 */
(PID.TID 0000.0001)                 6.877578098103740E+03,      /* J = 20 */
(PID.TID 0000.0001)                 6.934528939640570E+03,      /* J = 21 */
(PID.TID 0000.0001)                 6.991458657399629E+03,      /* J = 22 */
(PID.TID 0000.0001)                 7.048367077963129E+03,      /* J = 23 */
(PID.TID 0000.0001)                 7.105254027978149E+03,      /* J = 24 */
(PID.TID 0000.0001)                 7.162119334157175E+03,      /* J = 25 */
(PID.TID 0000.0001)                 7.218962823278620E+03,      /* J = 26 */
(PID.TID 0000.0001)                 7.275784322187360E+03,      /* J = 27 */
(PID.TID 0000.0001)                 7.332583657795253E+03,      /* J = 28 */
(PID.TID 0000.0001)                 7.389360657081677E+03,      /* J = 29 */
(PID.TID 0000.0001)                 7.446115147094042E+03,      /* J = 30 */
(PID.TID 0000.0001)                 7.502846954948329E+03,      /* J = 31 */
(PID.TID 0000.0001)                 7.559555907829611E+03,      /* J = 32 */
(PID.TID 0000.0001)                 7.616241832992587E+03,      /* J = 33 */
(PID.TID 0000.0001)                 7.672904557762095E+03,      /* J = 34 */
(PID.TID 0000.0001)                 7.729543909533650E+03,      /* J = 35 */
(PID.TID 0000.0001)                 7.786159715773963E+03,      /* J = 36 */
(PID.TID 0000.0001)                 7.842751804021470E+03,      /* J = 37 */
(PID.TID 0000.0001)                 7.899320001886857E+03,      /* J = 38 */
(PID.TID 0000.0001)                 7.955864137053582E+03,      /* J = 39 */
(PID.TID 0000.0001)                 8.012384037278402E+03,      /* J = 40 */
(PID.TID 0000.0001)                 8.068879530391900E+03,      /* J = 41 */
(PID.TID 0000.0001)                 8.125350444299005E+03,      /* J = 42 */
(PID.TID 0000.0001)                 8.181796606979530E+03,      /* J = 43 */
(PID.TID 0000.0001)                 8.238217846488658E+03,      /* J = 44 */
(PID.TID 0000.0001)                 8.294613990957514E+03,      /* J = 45 */
(PID.TID 0000.0001)                 8.350984868593665E+03,      /* J = 46 */
(PID.TID 0000.0001)                 8.407330307681643E+03,      /* J = 47 */
(PID.TID 0000.0001)                 8.463650136583461E+03,      /* J = 48 */
(PID.TID 0000.0001)                 8.519944183739159E+03,      /* J = 49 */
(PID.TID 0000.0001)                 8.576212277667308E+03,      /* J = 50 */
(PID.TID 0000.0001)                 8.632454246965530E+03,      /* J = 51 */
(PID.TID 0000.0001)                 8.688669920311038E+03,      /* J = 52 */
(PID.TID 0000.0001)                 8.744859126461139E+03,      /* J = 53 */
(PID.TID 0000.0001)                 8.801021694253765E+03,      /* J = 54 */
(PID.TID 0000.0001)                 8.857157452607997E+03,      /* J = 55 */
(PID.TID 0000.0001)                 8.913266230524581E+03,      /* J = 56 */
(PID.TID 0000.0001)                 8.969347857086450E+03,      /* J = 57 */
(PID.TID 0000.0001)                 9.025402161459237E+03,      /* J = 58 */
(PID.TID 0000.0001)                 9.081428972891812E+03,      /* J = 59 */
(PID.TID 0000.0001)                 9.137428120716793E+03,      /* J = 60 */
(PID.TID 0000.0001)                 9.193399434351066E+03,      /* J = 61 */
(PID.TID 0000.0001)                 9.249342743296300E+03,      /* J = 62 */
(PID.TID 0000.0001)                 9.305257877139473E+03,      /* J = 63 */
(PID.TID 0000.0001)                 9.361144665553391E+03,      /* J = 64 */
(PID.TID 0000.0001)                 9.417002938297206E+03,      /* J = 65 */
(PID.TID 0000.0001)                 9.472832525216931E+03,      /* J = 66 */
(PID.TID 0000.0001)                 9.528633256245968E+03,      /* J = 67 */
(PID.TID 0000.0001)                 9.584404961405600E+03,      /* J = 68 */
(PID.TID 0000.0001)                 9.640147470805550E+03,      /* J = 69 */
(PID.TID 0000.0001)                 9.695860614644464E+03,      /* J = 70 */
(PID.TID 0000.0001)                 9.751544223210447E+03,      /* J = 71 */
(PID.TID 0000.0001)                 9.807198126881565E+03,      /* J = 72 */
(PID.TID 0000.0001)                 9.862822156126382E+03,      /* J = 73 */
(PID.TID 0000.0001)                 9.918416141504455E+03,      /* J = 74 */
(PID.TID 0000.0001)                 9.973979913666863E+03,      /* J = 75 */
(PID.TID 0000.0001)                 1.002951330335672E+04,      /* J = 76 */
(PID.TID 0000.0001)                 1.008501614140969E+04,      /* J = 77 */
(PID.TID 0000.0001)                 1.014048825875450E+04,      /* J = 78 */
(PID.TID 0000.0001)                 1.019592948641347E+04,      /* J = 79 */
(PID.TID 0000.0001)                 1.025133965550300E+04,      /* J = 80 */
(PID.TID 0000.0001)                 1.030671859723410E+04,      /* J = 81 */
(PID.TID 0000.0001)                 1.036206614291292E+04,      /* J = 82 */
(PID.TID 0000.0001)                 1.041738212394122E+04,      /* J = 83 */
(PID.TID 0000.0001)                 1.047266637181695E+04,      /* J = 84 */
(PID.TID 0000.0001)                 1.052791871813469E+04,      /* J = 85 */
(PID.TID 0000.0001)                 1.058313899458622E+04,      /* J = 86 */
(PID.TID 0000.0001)                 1.063832703296099E+04,      /* J = 87 */
(PID.TID 0000.0001)                 1.069348266514667E+04,      /* J = 88 */
(PID.TID 0000.0001)                 1.074860572312964E+04,      /* J = 89 */
(PID.TID 0000.0001)                 1.080369603899551E+04,      /* J = 90 */
(PID.TID 0000.0001)                 1.085875344492962E+04,      /* J = 91 */
(PID.TID 0000.0001)                 1.091377777321755E+04,      /* J = 92 */
(PID.TID 0000.0001)                 1.096876885624567E+04,      /* J = 93 */
(PID.TID 0000.0001)                 1.102372652650160E+04,      /* J = 94 */
(PID.TID 0000.0001)                 1.107865061657475E+04,      /* J = 95 */
(PID.TID 0000.0001)                 1.113354095915680E+04,      /* J = 96 */
(PID.TID 0000.0001)                 1.118839738704227E+04,      /* J = 97 */
(PID.TID 0000.0001)                 1.124321973312895E+04,      /* J = 98 */
(PID.TID 0000.0001)                 1.129800783041847E+04,      /* J = 99 */
(PID.TID 0000.0001)                 1.135276151201679E+04       /* J =100 */
(PID.TID 0000.0001)     ;
(PID.TID 0000.0001) dyU =  /* dyU(:,1,:,1) ( units: m ) */
(PID.TID 0000.0001)    50 @  1.111774733520388E+04              /* I =  1: 50 */
(PID.TID 0000.0001)     ;
(PID.TID 0000.0001) dyU =  /* dyU(1,:,1,:) ( units: m ) */
(PID.TID 0000.0001)   100 @  1.111774733520388E+04              /* J =  1:100 */
(PID.TID 0000.0001)     ;
(PID.TID 0000.0001) rA  =  /* rA (:,1,:,1) ( units: m^2 ) */
(PID.TID 0000.0001)    50 @  6.470963377080289E+07              /* I =  1: 50 */
(PID.TID 0000.0001)     ;
(PID.TID 0000.0001) rA  =  /* rA (1,:,1,:) ( units: m^2 ) */
(PID.TID 0000.0001)                 6.470963377080289E+07,      /* J =  1 */
(PID.TID 0000.0001)                 6.534679484410104E+07,      /* J =  2 */
(PID.TID 0000.0001)                 6.598375685977945E+07,      /* J =  3 */
(PID.TID 0000.0001)                 6.662051787745729E+07,      /* J =  4 */
(PID.TID 0000.0001)                 6.725707595748492E+07,      /* J =  5 */
(PID.TID 0000.0001)                 6.789342916077879E+07,      /* J =  6 */
(PID.TID 0000.0001)                 6.852957554896304E+07,      /* J =  7 */
(PID.TID 0000.0001)                 6.916551318413351E+07,      /* J =  8 */
(PID.TID 0000.0001)                 6.980124012916450E+07,      /* J =  9 */
(PID.TID 0000.0001)                 7.043675444751994E+07,      /* J = 10 */
(PID.TID 0000.0001)                 7.107205420332426E+07,      /* J = 11 */
(PID.TID 0000.0001)                 7.170713746129155E+07,      /* J = 12 */
(PID.TID 0000.0001)                 7.234200228686719E+07,      /* J = 13 */
(PID.TID 0000.0001)                 7.297664674622770E+07,      /* J = 14 */
(PID.TID 0000.0001)                 7.361106890599781E+07,      /* J = 15 */
(PID.TID 0000.0001)                 7.424526683372219E+07,      /* J = 16 */
(PID.TID 0000.0001)                 7.487923859746441E+07,      /* J = 17 */
(PID.TID 0000.0001)                 7.551298226611364E+07,      /* J = 18 */
(PID.TID 0000.0001)                 7.614649590905435E+07,      /* J = 19 */
(PID.TID 0000.0001)                 7.677977759659100E+07,      /* J = 20 */
(PID.TID 0000.0001)                 7.741282539961770E+07,      /* J = 21 */
(PID.TID 0000.0001)                 7.804563738973619E+07,      /* J = 22 */
(PID.TID 0000.0001)                 7.867821163932665E+07,      /* J = 23 */
(PID.TID 0000.0001)                 7.931054622142966E+07,      /* J = 24 */
(PID.TID 0000.0001)                 7.994263920984067E+07,      /* J = 25 */
(PID.TID 0000.0001)                 8.057448867913349E+07,      /* J = 26 */
(PID.TID 0000.0001)                 8.120609270456599E+07,      /* J = 27 */
(PID.TID 0000.0001)                 8.183744936212724E+07,      /* J = 28 */
(PID.TID 0000.0001)                 8.246855672863193E+07,      /* J = 29 */
(PID.TID 0000.0001)                 8.309941288162594E+07,      /* J = 30 */
(PID.TID 0000.0001)                 8.373001589938636E+07,      /* J = 31 */
(PID.TID 0000.0001)                 8.436036386101587E+07,      /* J = 32 */
(PID.TID 0000.0001)                 8.499045484630123E+07,      /* J = 33 */
(PID.TID 0000.0001)                 8.562028693597265E+07,      /* J = 34 */
(PID.TID 0000.0001)                 8.624985821137366E+07,      /* J = 35 */
(PID.TID 0000.0001)                 8.687916675476770E+07,      /* J = 36 */
(PID.TID 0000.0001)                 8.750821064912586E+07,      /* J = 37 */
(PID.TID 0000.0001)                 8.813698797831558E+07,      /* J = 38 */
(PID.TID 0000.0001)                 8.876549682695904E+07,      /* J = 39 */
(PID.TID 0000.0001)                 8.939373528048050E+07,      /* J = 40 */
(PID.TID 0000.0001)                 9.002170142522410E+07,      /* J = 41 */
(PID.TID 0000.0001)                 9.064939334821798E+07,      /* J = 42 */
(PID.TID 0000.0001)                 9.127680913743389E+07,      /* J = 43 */
(PID.TID 0000.0001)                 9.190394688169266E+07,      /* J = 44 */
(PID.TID 0000.0001)                 9.253080467056999E+07,      /* J = 45 */
(PID.TID 0000.0001)                 9.315738059456144E+07,      /* J = 46 */
(PID.TID 0000.0001)                 9.378367274503537E+07,      /* J = 47 */
(PID.TID 0000.0001)                 9.440967921416211E+07,      /* J = 48 */
(PID.TID 0000.0001)                 9.503539809503193E+07,      /* J = 49 */
(PID.TID 0000.0001)                 9.566082748163140E+07,      /* J = 50 */
(PID.TID 0000.0001)                 9.628596546870193E+07,      /* J = 51 */
(PID.TID 0000.0001)                 9.691081015209354E+07,      /* J = 52 */
(PID.TID 0000.0001)                 9.753535962826957E+07,      /* J = 53 */
(PID.TID 0000.0001)                 9.815961199489628E+07,      /* J = 54 */
(PID.TID 0000.0001)                 9.878356535030043E+07,      /* J = 55 */
(PID.TID 0000.0001)                 9.940721779379947E+07,      /* J = 56 */
(PID.TID 0000.0001)                 1.000305674257251E+08,      /* J = 57 */
(PID.TID 0000.0001)                 1.006536123471403E+08,      /* J = 58 */
(PID.TID 0000.0001)                 1.012763506602401E+08,      /* J = 59 */
(PID.TID 0000.0001)                 1.018987804679982E+08,      /* J = 60 */
(PID.TID 0000.0001)                 1.025208998744024E+08,      /* J = 61 */
(PID.TID 0000.0001)                 1.031427069843603E+08,      /* J = 62 */
(PID.TID 0000.0001)                 1.037641999037469E+08,      /* J = 63 */
(PID.TID 0000.0001)                 1.043853767394042E+08,      /* J = 64 */
(PID.TID 0000.0001)                 1.050062355990467E+08,      /* J = 65 */
(PID.TID 0000.0001)                 1.056267745915686E+08,      /* J = 66 */
(PID.TID 0000.0001)                 1.062469918265245E+08,      /* J = 67 */
(PID.TID 0000.0001)                 1.068668854147899E+08,      /* J = 68 */
(PID.TID 0000.0001)                 1.074864534679241E+08,      /* J = 69 */
(PID.TID 0000.0001)                 1.081056940987605E+08,      /* J = 70 */
(PID.TID 0000.0001)                 1.087246054208165E+08,      /* J = 71 */
(PID.TID 0000.0001)                 1.093431855489537E+08,      /* J = 72 */
(PID.TID 0000.0001)                 1.099614325987181E+08,      /* J = 73 */
(PID.TID 0000.0001)                 1.105793446869293E+08,      /* J = 74 */
(PID.TID 0000.0001)                 1.111969199312560E+08,      /* J = 75 */
(PID.TID 0000.0001)                 1.118141564504991E+08,      /* J = 76 */
(PID.TID 0000.0001)                 1.124310523644033E+08,      /* J = 77 */
(PID.TID 0000.0001)                 1.130476057938687E+08,      /* J = 78 */
(PID.TID 0000.0001)                 1.136638148606683E+08,      /* J = 79 */
(PID.TID 0000.0001)                 1.142796776878255E+08,      /* J = 80 */
(PID.TID 0000.0001)                 1.148951923992126E+08,      /* J = 81 */
(PID.TID 0000.0001)                 1.155103571199756E+08,      /* J = 82 */
(PID.TID 0000.0001)                 1.161251699761098E+08,      /* J = 83 */
(PID.TID 0000.0001)                 1.167396290948606E+08,      /* J = 84 */
(PID.TID 0000.0001)                 1.173537326044641E+08,      /* J = 85 */
(PID.TID 0000.0001)                 1.179674786342178E+08,      /* J = 86 */
(PID.TID 0000.0001)                 1.185808653145988E+08,      /* J = 87 */
(PID.TID 0000.0001)                 1.191938907770982E+08,      /* J = 88 */
(PID.TID 0000.0001)                 1.198065531543159E+08,      /* J = 89 */
(PID.TID 0000.0001)                 1.204188505800075E+08,      /* J = 90 */
(PID.TID 0000.0001)                 1.210307811890137E+08,      /* J = 91 */
(PID.TID 0000.0001)                 1.216423431172366E+08,      /* J = 92 */
(PID.TID 0000.0001)                 1.222535345018050E+08,      /* J = 93 */
(PID.TID 0000.0001)                 1.228643534808854E+08,      /* J = 94 */
(PID.TID 0000.0001)                 1.234747981938710E+08,      /* J = 95 */
(PID.TID 0000.0001)                 1.240848667811927E+08,      /* J = 96 */
(PID.TID 0000.0001)                 1.246945573844846E+08,      /* J = 97 */
(PID.TID 0000.0001)                 1.253038681465364E+08,      /* J = 98 */
(PID.TID 0000.0001)                 1.259127972112936E+08,      /* J = 99 */
(PID.TID 0000.0001)                 1.265213427237870E+08       /* J =100 */
(PID.TID 0000.0001)     ;
(PID.TID 0000.0001) rAw =  /* rAw(:,1,:,1) ( units: m^2 ) */
(PID.TID 0000.0001)    50 @  6.470963377080289E+07              /* I =  1: 50 */
(PID.TID 0000.0001)     ;
(PID.TID 0000.0001) rAw =  /* rAw(1,:,1,:) ( units: m^2 ) */
(PID.TID 0000.0001)                 6.470963377080289E+07,      /* J =  1 */
(PID.TID 0000.0001)                 6.534679484410104E+07,      /* J =  2 */
(PID.TID 0000.0001)                 6.598375685977945E+07,      /* J =  3 */
(PID.TID 0000.0001)                 6.662051787745729E+07,      /* J =  4 */
(PID.TID 0000.0001)                 6.725707595748492E+07,      /* J =  5 */
(PID.TID 0000.0001)                 6.789342916077879E+07,      /* J =  6 */
(PID.TID 0000.0001)                 6.852957554896304E+07,      /* J =  7 */
(PID.TID 0000.0001)                 6.916551318413351E+07,      /* J =  8 */
(PID.TID 0000.0001)                 6.980124012916450E+07,      /* J =  9 */
(PID.TID 0000.0001)                 7.043675444751994E+07,      /* J = 10 */
(PID.TID 0000.0001)                 7.107205420332426E+07,      /* J = 11 */
(PID.TID 0000.0001)                 7.170713746129155E+07,      /* J = 12 */
(PID.TID 0000.0001)                 7.234200228686719E+07,      /* J = 13 */
(PID.TID 0000.0001)                 7.297664674622770E+07,      /* J = 14 */
(PID.TID 0000.0001)                 7.361106890599781E+07,      /* J = 15 */
(PID.TID 0000.0001)                 7.424526683372219E+07,      /* J = 16 */
(PID.TID 0000.0001)                 7.487923859746441E+07,      /* J = 17 */
(PID.TID 0000.0001)                 7.551298226611364E+07,      /* J = 18 */
(PID.TID 0000.0001)                 7.614649590905435E+07,      /* J = 19 */
(PID.TID 0000.0001)                 7.677977759659100E+07,      /* J = 20 */
(PID.TID 0000.0001)                 7.741282539961770E+07,      /* J = 21 */
(PID.TID 0000.0001)                 7.804563738973619E+07,      /* J = 22 */
(PID.TID 0000.0001)                 7.867821163932665E+07,      /* J = 23 */
(PID.TID 0000.0001)                 7.931054622142966E+07,      /* J = 24 */
(PID.TID 0000.0001)                 7.994263920984067E+07,      /* J = 25 */
(PID.TID 0000.0001)                 8.057448867913349E+07,      /* J = 26 */
(PID.TID 0000.0001)                 8.120609270456599E+07,      /* J = 27 */
(PID.TID 0000.0001)                 8.183744936212724E+07,      /* J = 28 */
(PID.TID 0000.0001)                 8.246855672863193E+07,      /* J = 29 */
(PID.TID 0000.0001)                 8.309941288162594E+07,      /* J = 30 */
(PID.TID 0000.0001)                 8.373001589938636E+07,      /* J = 31 */
(PID.TID 0000.0001)                 8.436036386101587E+07,      /* J = 32 */
(PID.TID 0000.0001)                 8.499045484630123E+07,      /* J = 33 */
(PID.TID 0000.0001)                 8.562028693597265E+07,      /* J = 34 */
(PID.TID 0000.0001)                 8.624985821137366E+07,      /* J = 35 */
(PID.TID 0000.0001)                 8.687916675476770E+07,      /* J = 36 */
(PID.TID 0000.0001)                 8.750821064912586E+07,      /* J = 37 */
(PID.TID 0000.0001)                 8.813698797831558E+07,      /* J = 38 */
(PID.TID 0000.0001)                 8.876549682695904E+07,      /* J = 39 */
(PID.TID 0000.0001)                 8.939373528048050E+07,      /* J = 40 */
(PID.TID 0000.0001)                 9.002170142522410E+07,      /* J = 41 */
(PID.TID 0000.0001)                 9.064939334821798E+07,      /* J = 42 */
(PID.TID 0000.0001)                 9.127680913743389E+07,      /* J = 43 */
(PID.TID 0000.0001)                 9.190394688169266E+07,      /* J = 44 */
(PID.TID 0000.0001)                 9.253080467056999E+07,      /* J = 45 */
(PID.TID 0000.0001)                 9.315738059456144E+07,      /* J = 46 */
(PID.TID 0000.0001)                 9.378367274503537E+07,      /* J = 47 */
(PID.TID 0000.0001)                 9.440967921416211E+07,      /* J = 48 */
(PID.TID 0000.0001)                 9.503539809503193E+07,      /* J = 49 */
(PID.TID 0000.0001)                 9.566082748163140E+07,      /* J = 50 */
(PID.TID 0000.0001)                 9.628596546870193E+07,      /* J = 51 */
(PID.TID 0000.0001)                 9.691081015209354E+07,      /* J = 52 */
(PID.TID 0000.0001)                 9.753535962826957E+07,      /* J = 53 */
(PID.TID 0000.0001)                 9.815961199489628E+07,      /* J = 54 */
(PID.TID 0000.0001)                 9.878356535030043E+07,      /* J = 55 */
(PID.TID 0000.0001)                 9.940721779379947E+07,      /* J = 56 */
(PID.TID 0000.0001)                 1.000305674257251E+08,      /* J = 57 */
(PID.TID 0000.0001)                 1.006536123471403E+08,      /* J = 58 */
(PID.TID 0000.0001)                 1.012763506602401E+08,      /* J = 59 */
(PID.TID 0000.0001)                 1.018987804679982E+08,      /* J = 60 */
(PID.TID 0000.0001)                 1.025208998744024E+08,      /* J = 61 */
(PID.TID 0000.0001)                 1.031427069843603E+08,      /* J = 62 */
(PID.TID 0000.0001)                 1.037641999037469E+08,      /* J = 63 */
(PID.TID 0000.0001)                 1.043853767394042E+08,      /* J = 64 */
(PID.TID 0000.0001)                 1.050062355990467E+08,      /* J = 65 */
(PID.TID 0000.0001)                 1.056267745915686E+08,      /* J = 66 */
(PID.TID 0000.0001)                 1.062469918265245E+08,      /* J = 67 */
(PID.TID 0000.0001)                 1.068668854147899E+08,      /* J = 68 */
(PID.TID 0000.0001)                 1.074864534679241E+08,      /* J = 69 */
(PID.TID 0000.0001)                 1.081056940987605E+08,      /* J = 70 */
(PID.TID 0000.0001)                 1.087246054208165E+08,      /* J = 71 */
(PID.TID 0000.0001)                 1.093431855489537E+08,      /* J = 72 */
(PID.TID 0000.0001)                 1.099614325987181E+08,      /* J = 73 */
(PID.TID 0000.0001)                 1.105793446869293E+08,      /* J = 74 */
(PID.TID 0000.0001)                 1.111969199312560E+08,      /* J = 75 */
(PID.TID 0000.0001)                 1.118141564504991E+08,      /* J = 76 */
(PID.TID 0000.0001)                 1.124310523644033E+08,      /* J = 77 */
(PID.TID 0000.0001)                 1.130476057938687E+08,      /* J = 78 */
(PID.TID 0000.0001)                 1.136638148606683E+08,      /* J = 79 */
(PID.TID 0000.0001)                 1.142796776878255E+08,      /* J = 80 */
(PID.TID 0000.0001)                 1.148951923992126E+08,      /* J = 81 */
(PID.TID 0000.0001)                 1.155103571199756E+08,      /* J = 82 */
(PID.TID 0000.0001)                 1.161251699761098E+08,      /* J = 83 */
(PID.TID 0000.0001)                 1.167396290948606E+08,      /* J = 84 */
(PID.TID 0000.0001)                 1.173537326044641E+08,      /* J = 85 */
(PID.TID 0000.0001)                 1.179674786342178E+08,      /* J = 86 */
(PID.TID 0000.0001)                 1.185808653145988E+08,      /* J = 87 */
(PID.TID 0000.0001)                 1.191938907770982E+08,      /* J = 88 */
(PID.TID 0000.0001)                 1.198065531543159E+08,      /* J = 89 */
(PID.TID 0000.0001)                 1.204188505800075E+08,      /* J = 90 */
(PID.TID 0000.0001)                 1.210307811890137E+08,      /* J = 91 */
(PID.TID 0000.0001)                 1.216423431172366E+08,      /* J = 92 */
(PID.TID 0000.0001)                 1.222535345018050E+08,      /* J = 93 */
(PID.TID 0000.0001)                 1.228643534808854E+08,      /* J = 94 */
(PID.TID 0000.0001)                 1.234747981938710E+08,      /* J = 95 */
(PID.TID 0000.0001)                 1.240848667811927E+08,      /* J = 96 */
(PID.TID 0000.0001)                 1.246945573844846E+08,      /* J = 97 */
(PID.TID 0000.0001)                 1.253038681465364E+08,      /* J = 98 */
(PID.TID 0000.0001)                 1.259127972112936E+08,      /* J = 99 */
(PID.TID 0000.0001)                 1.265213427237870E+08       /* J =100 */
(PID.TID 0000.0001)     ;
(PID.TID 0000.0001) rAs =  /* rAs(:,1,:,1) ( units: m^2 ) */
(PID.TID 0000.0001)    50 @  6.439097919401864E+07              /* I =  1: 50 */
(PID.TID 0000.0001)     ;
(PID.TID 0000.0001) rAs =  /* rAs(1,:,1,:) ( units: m^2 ) */
(PID.TID 0000.0001)                 6.439097919401864E+07,      /* J =  1 */
(PID.TID 0000.0001)                 6.502823906837179E+07,      /* J =  2 */
(PID.TID 0000.0001)                 6.566530085543716E+07,      /* J =  3 */
(PID.TID 0000.0001)                 6.630216261459803E+07,      /* J =  4 */
(PID.TID 0000.0001)                 6.693882240587452E+07,      /* J =  5 */
(PID.TID 0000.0001)                 6.757527828990008E+07,      /* J =  6 */
(PID.TID 0000.0001)                 6.821152832789779E+07,      /* J =  7 */
(PID.TID 0000.0001)                 6.884757058175126E+07,      /* J =  8 */
(PID.TID 0000.0001)                 6.948340311398090E+07,      /* J =  9 */
(PID.TID 0000.0001)                 7.011902398769690E+07,      /* J = 10 */
(PID.TID 0000.0001)                 7.075443126669341E+07,      /* J = 11 */
(PID.TID 0000.0001)                 7.138962301544867E+07,      /* J = 12 */
(PID.TID 0000.0001)                 7.202459729903063E+07,      /* J = 13 */
(PID.TID 0000.0001)                 7.265935218316765E+07,      /* J = 14 */
(PID.TID 0000.0001)                 7.329388573434296E+07,      /* J = 15 */
(PID.TID 0000.0001)                 7.392819601962943E+07,      /* J = 16 */
(PID.TID 0000.0001)                 7.456228110680762E+07,      /* J = 17 */
(PID.TID 0000.0001)                 7.519613906436566E+07,      /* J = 18 */
(PID.TID 0000.0001)                 7.582976796140501E+07,      /* J = 19 */
(PID.TID 0000.0001)                 7.646316586782910E+07,      /* J = 20 */
(PID.TID 0000.0001)                 7.709633085422541E+07,      /* J = 21 */
(PID.TID 0000.0001)                 7.772926099177113E+07,      /* J = 22 */
(PID.TID 0000.0001)                 7.836195435256335E+07,      /* J = 23 */
(PID.TID 0000.0001)                 7.899440900921808E+07,      /* J = 24 */
(PID.TID 0000.0001)                 7.962662303520055E+07,      /* J = 25 */
(PID.TID 0000.0001)                 8.025859450470714E+07,      /* J = 26 */
(PID.TID 0000.0001)                 8.089032149259475E+07,      /* J = 27 */
(PID.TID 0000.0001)                 8.152180207452223E+07,      /* J = 28 */
(PID.TID 0000.0001)                 8.215303432695043E+07,      /* J = 29 */
(PID.TID 0000.0001)                 8.278401632695346E+07,      /* J = 30 */
(PID.TID 0000.0001)                 8.341474615247822E+07,      /* J = 31 */
(PID.TID 0000.0001)                 8.404522188224998E+07,      /* J = 32 */
(PID.TID 0000.0001)                 8.467544159567805E+07,      /* J = 33 */
(PID.TID 0000.0001)                 8.530540337302092E+07,      /* J = 34 */
(PID.TID 0000.0001)                 8.593510529533908E+07,      /* J = 35 */
(PID.TID 0000.0001)                 8.656454544440059E+07,      /* J = 36 */
(PID.TID 0000.0001)                 8.719372190284635E+07,      /* J = 37 */
(PID.TID 0000.0001)                 8.782263275409557E+07,      /* J = 38 */
(PID.TID 0000.0001)                 8.845127608236952E+07,      /* J = 39 */
(PID.TID 0000.0001)                 8.907964997273858E+07,      /* J = 40 */
(PID.TID 0000.0001)                 8.970775251102796E+07,      /* J = 41 */
(PID.TID 0000.0001)                 9.033558178395921E+07,      /* J = 42 */
(PID.TID 0000.0001)                 9.096313587903227E+07,      /* J = 43 */
(PID.TID 0000.0001)                 9.159041288459623E+07,      /* J = 44 */
(PID.TID 0000.0001)                 9.221741088992015E+07,      /* J = 45 */
(PID.TID 0000.0001)                 9.284412798498066E+07,      /* J = 46 */
(PID.TID 0000.0001)                 9.347056226076873E+07,      /* J = 47 */
(PID.TID 0000.0001)                 9.409671180895932E+07,      /* J = 48 */
(PID.TID 0000.0001)                 9.472257472228888E+07,      /* J = 49 */
(PID.TID 0000.0001)                 9.534814909420149E+07,      /* J = 50 */
(PID.TID 0000.0001)                 9.597343301913190E+07,      /* J = 51 */
(PID.TID 0000.0001)                 9.659842459236403E+07,      /* J = 52 */
(PID.TID 0000.0001)                 9.722312190998378E+07,      /* J = 53 */
(PID.TID 0000.0001)                 9.784752306916212E+07,      /* J = 54 */
(PID.TID 0000.0001)                 9.847162616780120E+07,      /* J = 55 */
(PID.TID 0000.0001)                 9.909542930479389E+07,      /* J = 56 */
(PID.TID 0000.0001)                 9.971893057990581E+07,      /* J = 57 */
(PID.TID 0000.0001)                 1.003421280938932E+08,      /* J = 58 */
(PID.TID 0000.0001)                 1.009650199483144E+08,      /* J = 59 */
(PID.TID 0000.0001)                 1.015876042458127E+08,      /* J = 60 */
(PID.TID 0000.0001)                 1.022098790898334E+08,      /* J = 61 */
(PID.TID 0000.0001)                 1.028318425848597E+08,      /* J = 62 */
(PID.TID 0000.0001)                 1.034534928362239E+08,      /* J = 63 */
(PID.TID 0000.0001)                 1.040748279503199E+08,      /* J = 64 */
(PID.TID 0000.0001)                 1.046958460344376E+08,      /* J = 65 */
(PID.TID 0000.0001)                 1.053165451968815E+08,      /* J = 66 */
(PID.TID 0000.0001)                 1.059369235468288E+08,      /* J = 67 */
(PID.TID 0000.0001)                 1.065569791945417E+08,      /* J = 68 */
(PID.TID 0000.0001)                 1.071767102512258E+08,      /* J = 69 */
(PID.TID 0000.0001)                 1.077961148290539E+08,      /* J = 70 */
(PID.TID 0000.0001)                 1.084151910412367E+08,      /* J = 71 */
(PID.TID 0000.0001)                 1.090339370019284E+08,      /* J = 72 */
(PID.TID 0000.0001)                 1.096523508263446E+08,      /* J = 73 */
(PID.TID 0000.0001)                 1.102704306306916E+08,      /* J = 74 */
(PID.TID 0000.0001)                 1.108881745321664E+08,      /* J = 75 */
(PID.TID 0000.0001)                 1.115055806490511E+08,      /* J = 76 */
(PID.TID 0000.0001)                 1.121226471005947E+08,      /* J = 77 */
(PID.TID 0000.0001)                 1.127393720071080E+08,      /* J = 78 */
(PID.TID 0000.0001)                 1.133557534899393E+08,      /* J = 79 */
(PID.TID 0000.0001)                 1.139717896714750E+08,      /* J = 80 */
(PID.TID 0000.0001)                 1.145874786751864E+08,      /* J = 81 */
(PID.TID 0000.0001)                 1.152028186255828E+08,      /* J = 82 */
(PID.TID 0000.0001)                 1.158178076481876E+08,      /* J = 83 */
(PID.TID 0000.0001)                 1.164324438696802E+08,      /* J = 84 */
(PID.TID 0000.0001)                 1.170467254177541E+08,      /* J = 85 */
(PID.TID 0000.0001)                 1.176606504211880E+08,      /* J = 86 */
(PID.TID 0000.0001)                 1.182742170098927E+08,      /* J = 87 */
(PID.TID 0000.0001)                 1.188874233148169E+08,      /* J = 88 */
(PID.TID 0000.0001)                 1.195002674680178E+08,      /* J = 89 */
(PID.TID 0000.0001)                 1.201127476027324E+08,      /* J = 90 */
(PID.TID 0000.0001)                 1.207248618531171E+08,      /* J = 91 */
(PID.TID 0000.0001)                 1.213366083546731E+08,      /* J = 92 */
(PID.TID 0000.0001)                 1.219479852438687E+08,      /* J = 93 */
(PID.TID 0000.0001)                 1.225589906583516E+08,      /* J = 94 */
(PID.TID 0000.0001)                 1.231696227369014E+08,      /* J = 95 */
(PID.TID 0000.0001)                 1.237798796194069E+08,      /* J = 96 */
(PID.TID 0000.0001)                 1.243897594469357E+08,      /* J = 97 */
(PID.TID 0000.0001)                 1.249992603617116E+08,      /* J = 98 */
(PID.TID 0000.0001)                 1.256083805070198E+08,      /* J = 99 */
(PID.TID 0000.0001)                 1.262171180274426E+08       /* J =100 */
(PID.TID 0000.0001)     ;
(PID.TID 0000.0001) globalArea = /* Integrated horizontal Area (m^2) */
(PID.TID 0000.0001)                 4.665024516720103E+11
(PID.TID 0000.0001)     ;
(PID.TID 0000.0001) // =======================================================
(PID.TID 0000.0001) // End of Model config. summary
(PID.TID 0000.0001) // =======================================================
(PID.TID 0000.0001) 
(PID.TID 0000.0001) // =======================================================
(PID.TID 0000.0001) // Field Initial Temperature at iteration          1
(PID.TID 0000.0001) // CMIN =          1.000000000000000E+32
(PID.TID 0000.0001) // CMAX =         -1.000000000000000E+32
(PID.TID 0000.0001) // CINT =          0.000000000000000E+00
(PID.TID 0000.0001) // SYMBOLS (CMIN->CMAX): -abcdefghijklmnopqrstuvwxyz+
(PID.TID 0000.0001) //                  0.0: .
(PID.TID 0000.0001) // RANGE I (Lo:Hi:Step):(   1:  50:   1)
(PID.TID 0000.0001) // RANGE J (Lo:Hi:Step):( 100:   1:  -1)
(PID.TID 0000.0001) // RANGE K (Lo:Hi:Step):(   1:   1:   1)
(PID.TID 0000.0001) // =======================================================
(PID.TID 0000.0001) // =======================================================
(PID.TID 0000.0001) // END OF FIELD                                          =
(PID.TID 0000.0001) // =======================================================
(PID.TID 0000.0001) 
(PID.TID 0000.0001) // =======================================================
(PID.TID 0000.0001) // Field Initial Salinity at iteration          1
(PID.TID 0000.0001) // CMIN =          1.000000000000000E+32
(PID.TID 0000.0001) // CMAX =         -1.000000000000000E+32
(PID.TID 0000.0001) // CINT =          0.000000000000000E+00
(PID.TID 0000.0001) // SYMBOLS (CMIN->CMAX): -abcdefghijklmnopqrstuvwxyz+
(PID.TID 0000.0001) //                  0.0: .
(PID.TID 0000.0001) // RANGE I (Lo:Hi:Step):(   1:  50:   1)
(PID.TID 0000.0001) // RANGE J (Lo:Hi:Step):( 100:   1:  -1)
(PID.TID 0000.0001) // RANGE K (Lo:Hi:Step):(   1:   1:   1)
(PID.TID 0000.0001) // =======================================================
(PID.TID 0000.0001) // =======================================================
(PID.TID 0000.0001) // END OF FIELD                                          =
(PID.TID 0000.0001) // =======================================================
(PID.TID 0000.0001) 
(PID.TID 0000.0001) Start initial hydrostatic pressure computation
(PID.TID 0000.0001) Pressure is predetermined for buoyancyRelation OCEANIC
(PID.TID 0000.0001) 
(PID.TID 0000.0001) // =======================================================
(PID.TID 0000.0001) // Model current state
(PID.TID 0000.0001) // =======================================================
(PID.TID 0000.0001) 
(PID.TID 0000.0001) // =======================================================
(PID.TID 0000.0001) // Begin MONITOR dynamic field statistics
(PID.TID 0000.0001) // =======================================================
(PID.TID 0000.0001) %MON time_tsnumber                =                     0
(PID.TID 0000.0001) %MON time_secondsf                =   0.0000000000000E+00
(PID.TID 0000.0001) %MON dynstat_eta_max              =   0.0000000000000E+00
(PID.TID 0000.0001) %MON dynstat_eta_min              =   0.0000000000000E+00
(PID.TID 0000.0001) %MON dynstat_eta_mean             =   0.0000000000000E+00
(PID.TID 0000.0001) %MON dynstat_eta_sd               =   0.0000000000000E+00
(PID.TID 0000.0001) %MON dynstat_eta_del2             =   0.0000000000000E+00
(PID.TID 0000.0001) %MON dynstat_uvel_max             =   0.0000000000000E+00
(PID.TID 0000.0001) %MON dynstat_uvel_min             =   0.0000000000000E+00
(PID.TID 0000.0001) %MON dynstat_uvel_mean            =   0.0000000000000E+00
(PID.TID 0000.0001) %MON dynstat_uvel_sd              =   0.0000000000000E+00
(PID.TID 0000.0001) %MON dynstat_uvel_del2            =   0.0000000000000E+00
(PID.TID 0000.0001) %MON dynstat_vvel_max             =   0.0000000000000E+00
(PID.TID 0000.0001) %MON dynstat_vvel_min             =   0.0000000000000E+00
(PID.TID 0000.0001) %MON dynstat_vvel_mean            =   0.0000000000000E+00
(PID.TID 0000.0001) %MON dynstat_vvel_sd              =   0.0000000000000E+00
(PID.TID 0000.0001) %MON dynstat_vvel_del2            =   0.0000000000000E+00
(PID.TID 0000.0001) %MON dynstat_wvel_max             =   0.0000000000000E+00
(PID.TID 0000.0001) %MON dynstat_wvel_min             =   0.0000000000000E+00
(PID.TID 0000.0001) %MON dynstat_wvel_mean            =   0.0000000000000E+00
(PID.TID 0000.0001) %MON dynstat_wvel_sd              =   0.0000000000000E+00
(PID.TID 0000.0001) %MON dynstat_wvel_del2            =   0.0000000000000E+00
(PID.TID 0000.0001) %MON dynstat_theta_max            =  -1.9000000000000E+00
(PID.TID 0000.0001) %MON dynstat_theta_min            =  -1.9000000000000E+00
(PID.TID 0000.0001) %MON dynstat_theta_mean           =  -1.9000000000000E+00
(PID.TID 0000.0001) %MON dynstat_theta_sd             =   0.0000000000000E+00
(PID.TID 0000.0001) %MON dynstat_theta_del2           =   0.0000000000000E+00
(PID.TID 0000.0001) %MON dynstat_salt_max             =   3.4400000000000E+01
(PID.TID 0000.0001) %MON dynstat_salt_min             =   3.4400000000000E+01
(PID.TID 0000.0001) %MON dynstat_salt_mean            =   3.4400000000002E+01
(PID.TID 0000.0001) %MON dynstat_salt_sd              =   2.0961010704923E-12
(PID.TID 0000.0001) %MON dynstat_salt_del2            =   0.0000000000000E+00
(PID.TID 0000.0001) %MON extforcing_qnet_max          =   0.0000000000000E+00
(PID.TID 0000.0001) %MON extforcing_qnet_min          =   0.0000000000000E+00
(PID.TID 0000.0001) %MON extforcing_qnet_mean         =   0.0000000000000E+00
(PID.TID 0000.0001) %MON extforcing_qnet_sd           =   0.0000000000000E+00
(PID.TID 0000.0001) %MON extforcing_qnet_del2         =   0.0000000000000E+00
(PID.TID 0000.0001) %MON extforcing_qsw_max           =   0.0000000000000E+00
(PID.TID 0000.0001) %MON extforcing_qsw_min           =   0.0000000000000E+00
(PID.TID 0000.0001) %MON extforcing_qsw_mean          =   0.0000000000000E+00
(PID.TID 0000.0001) %MON extforcing_qsw_sd            =   0.0000000000000E+00
(PID.TID 0000.0001) %MON extforcing_qsw_del2          =   0.0000000000000E+00
(PID.TID 0000.0001) %MON extforcing_empmr_max         =   0.0000000000000E+00
(PID.TID 0000.0001) %MON extforcing_empmr_min         =   0.0000000000000E+00
(PID.TID 0000.0001) %MON extforcing_empmr_mean        =   0.0000000000000E+00
(PID.TID 0000.0001) %MON extforcing_empmr_sd          =   0.0000000000000E+00
(PID.TID 0000.0001) %MON extforcing_empmr_del2        =   0.0000000000000E+00
(PID.TID 0000.0001) %MON extforcing_fu_max            =   0.0000000000000E+00
(PID.TID 0000.0001) %MON extforcing_fu_min            =   0.0000000000000E+00
(PID.TID 0000.0001) %MON extforcing_fu_mean           =   0.0000000000000E+00
(PID.TID 0000.0001) %MON extforcing_fu_sd             =   0.0000000000000E+00
(PID.TID 0000.0001) %MON extforcing_fu_del2           =   0.0000000000000E+00
(PID.TID 0000.0001) %MON extforcing_fv_max            =   0.0000000000000E+00
(PID.TID 0000.0001) %MON extforcing_fv_min            =   0.0000000000000E+00
(PID.TID 0000.0001) %MON extforcing_fv_mean           =   0.0000000000000E+00
(PID.TID 0000.0001) %MON extforcing_fv_sd             =   0.0000000000000E+00
(PID.TID 0000.0001) %MON extforcing_fv_del2           =   0.0000000000000E+00
(PID.TID 0000.0001) %MON advcfl_uvel_max              =   0.0000000000000E+00
(PID.TID 0000.0001) %MON advcfl_vvel_max              =   0.0000000000000E+00
(PID.TID 0000.0001) %MON advcfl_wvel_max              =   0.0000000000000E+00
(PID.TID 0000.0001) %MON advcfl_W_hf_max              =   0.0000000000000E+00
(PID.TID 0000.0001) %MON pe_b_mean                    =   0.0000000000000E+00
(PID.TID 0000.0001) %MON ke_max                       =   0.0000000000000E+00
(PID.TID 0000.0001) %MON ke_mean                      =   0.0000000000000E+00
(PID.TID 0000.0001) %MON ke_vol                       =   2.9241705273104E+14
(PID.TID 0000.0001) %MON vort_r_min                   =   0.0000000000000E+00
(PID.TID 0000.0001) %MON vort_r_max                   =   0.0000000000000E+00
(PID.TID 0000.0001) %MON vort_a_mean                  =  -1.4007437277915E-04
(PID.TID 0000.0001) %MON vort_a_sd                    =   1.7682771465337E-06
(PID.TID 0000.0001) %MON vort_p_mean                  =  -1.5039772194955E-04
(PID.TID 0000.0001) %MON vort_p_sd                    =   8.7081213929711E-05
(PID.TID 0000.0001) %MON surfExpan_theta_mean         =   0.0000000000000E+00
(PID.TID 0000.0001) %MON surfExpan_salt_mean          =   0.0000000000000E+00
(PID.TID 0000.0001) // =======================================================
(PID.TID 0000.0001) // End MONITOR dynamic field statistics
(PID.TID 0000.0001) // =======================================================
 cg2d: Sum(rhs),rhsMax =  -1.83186799063151E-14  3.88700162323895E-14
(PID.TID 0000.0001)                    cg2d_init_res =    2.18953287600515E+01
(PID.TID 0000.0001)                       cg2d_iters =   216
(PID.TID 0000.0001)                         cg2d_res =    9.20750847985007E-14
(PID.TID 0000.0001) // =======================================================
(PID.TID 0000.0001) // Begin MONITOR dynamic field statistics
(PID.TID 0000.0001) // =======================================================
(PID.TID 0000.0001) %MON time_tsnumber                =                     1
(PID.TID 0000.0001) %MON time_secondsf                =   1.8000000000000E+03
(PID.TID 0000.0001) %MON dynstat_eta_max              =   2.9172428893540E-14
(PID.TID 0000.0001) %MON dynstat_eta_min              =  -1.8475101007472E-14
(PID.TID 0000.0001) %MON dynstat_eta_mean             =   2.9748584938996E-30
(PID.TID 0000.0001) %MON dynstat_eta_sd               =   7.3556156094534E-15
(PID.TID 0000.0001) %MON dynstat_eta_del2             =   5.3829126889289E-16
(PID.TID 0000.0001) %MON dynstat_uvel_max             =   1.0788672123772E-15
(PID.TID 0000.0001) %MON dynstat_uvel_min             =  -1.2238471730638E-15
(PID.TID 0000.0001) %MON dynstat_uvel_mean            =   9.9170813469251E-17
(PID.TID 0000.0001) %MON dynstat_uvel_sd              =   3.5676722034974E-16
(PID.TID 0000.0001) %MON dynstat_uvel_del2            =   7.1220547327556E-17
(PID.TID 0000.0001) %MON dynstat_vvel_max             =   9.6860214043329E-17
(PID.TID 0000.0001) %MON dynstat_vvel_min             =  -4.1124222343785E-15
(PID.TID 0000.0001) %MON dynstat_vvel_mean            =  -9.0699308283666E-16
(PID.TID 0000.0001) %MON dynstat_vvel_sd              =   1.1550308930280E-15
(PID.TID 0000.0001) %MON dynstat_vvel_del2            =   7.8928935467701E-18
(PID.TID 0000.0001) %MON dynstat_wvel_max             =   1.6206904940856E-17
(PID.TID 0000.0001) %MON dynstat_wvel_min             =  -1.3159813703832E-17
(PID.TID 0000.0001) %MON dynstat_wvel_mean            =  -7.2632899150968E-19
(PID.TID 0000.0001) %MON dynstat_wvel_sd              =   2.0036033020317E-18
(PID.TID 0000.0001) %MON dynstat_wvel_del2            =   1.3952463819852E-19
(PID.TID 0000.0001) %MON dynstat_theta_max            =  -1.9000000000000E+00
(PID.TID 0000.0001) %MON dynstat_theta_min            =  -1.9007825051461E+00
(PID.TID 0000.0001) %MON dynstat_theta_mean           =  -1.9000120639006E+00
(PID.TID 0000.0001) %MON dynstat_theta_sd             =   5.7910277006731E-05
(PID.TID 0000.0001) %MON dynstat_theta_del2           =   7.9683606283942E-07
(PID.TID 0000.0001) %MON dynstat_salt_max             =   3.4400000000000E+01
(PID.TID 0000.0001) %MON dynstat_salt_min             =   3.4399740987526E+01
(PID.TID 0000.0001) %MON dynstat_salt_mean            =   3.4399995622759E+01
(PID.TID 0000.0001) %MON dynstat_salt_sd              =   2.0412002468367E-05
(PID.TID 0000.0001) %MON dynstat_salt_del2            =   2.7719243208956E-07
(PID.TID 0000.0001) %MON extforcing_qnet_max          =   0.0000000000000E+00
(PID.TID 0000.0001) %MON extforcing_qnet_min          =   0.0000000000000E+00
(PID.TID 0000.0001) %MON extforcing_qnet_mean         =   0.0000000000000E+00
(PID.TID 0000.0001) %MON extforcing_qnet_sd           =   0.0000000000000E+00
(PID.TID 0000.0001) %MON extforcing_qnet_del2         =   0.0000000000000E+00
(PID.TID 0000.0001) %MON extforcing_qsw_max           =   0.0000000000000E+00
(PID.TID 0000.0001) %MON extforcing_qsw_min           =   0.0000000000000E+00
(PID.TID 0000.0001) %MON extforcing_qsw_mean          =   0.0000000000000E+00
(PID.TID 0000.0001) %MON extforcing_qsw_sd            =   0.0000000000000E+00
(PID.TID 0000.0001) %MON extforcing_qsw_del2          =   0.0000000000000E+00
(PID.TID 0000.0001) %MON extforcing_empmr_max         =   0.0000000000000E+00
(PID.TID 0000.0001) %MON extforcing_empmr_min         =   0.0000000000000E+00
(PID.TID 0000.0001) %MON extforcing_empmr_mean        =   0.0000000000000E+00
(PID.TID 0000.0001) %MON extforcing_empmr_sd          =   0.0000000000000E+00
(PID.TID 0000.0001) %MON extforcing_empmr_del2        =   0.0000000000000E+00
(PID.TID 0000.0001) %MON extforcing_fu_max            =   0.0000000000000E+00
(PID.TID 0000.0001) %MON extforcing_fu_min            =   0.0000000000000E+00
(PID.TID 0000.0001) %MON extforcing_fu_mean           =   0.0000000000000E+00
(PID.TID 0000.0001) %MON extforcing_fu_sd             =   0.0000000000000E+00
(PID.TID 0000.0001) %MON extforcing_fu_del2           =   0.0000000000000E+00
(PID.TID 0000.0001) %MON extforcing_fv_max            =   0.0000000000000E+00
(PID.TID 0000.0001) %MON extforcing_fv_min            =   0.0000000000000E+00
(PID.TID 0000.0001) %MON extforcing_fv_mean           =   0.0000000000000E+00
(PID.TID 0000.0001) %MON extforcing_fv_sd             =   0.0000000000000E+00
(PID.TID 0000.0001) %MON extforcing_fv_del2           =   0.0000000000000E+00
(PID.TID 0000.0001) %MON advcfl_uvel_max              =   3.4650666880849E-16
(PID.TID 0000.0001) %MON advcfl_vvel_max              =   6.6581473734719E-16
(PID.TID 0000.0001) %MON advcfl_wvel_max              =   9.7241429645133E-16
(PID.TID 0000.0001) %MON advcfl_W_hf_max              =   1.0607925590322E-14
(PID.TID 0000.0001) %MON pe_b_mean                    =  -5.9508927605322E-18
(PID.TID 0000.0001) %MON ke_max                       =   7.9251101869563E-30
(PID.TID 0000.0001) %MON ke_mean                      =   1.1328472119094E-30
(PID.TID 0000.0001) %MON ke_vol                       =   2.9241705273104E+14
(PID.TID 0000.0001) %MON vort_r_min                   =  -5.7096094687164E-19
(PID.TID 0000.0001) %MON vort_r_max                   =   6.0802152751963E-19
(PID.TID 0000.0001) %MON vort_a_mean                  =  -1.4007437277915E-04
(PID.TID 0000.0001) %MON vort_a_sd                    =   1.7682771465365E-06
(PID.TID 0000.0001) %MON vort_p_mean                  =  -1.5039772194955E-04
(PID.TID 0000.0001) %MON vort_p_sd                    =   8.7081213929711E-05
(PID.TID 0000.0001) %MON surfExpan_theta_mean         =  -5.6002738558022E-22
(PID.TID 0000.0001) %MON surfExpan_salt_mean          =  -1.8300820738052E-22
(PID.TID 0000.0001) // =======================================================
(PID.TID 0000.0001) // End MONITOR dynamic field statistics
(PID.TID 0000.0001) // =======================================================
 cg2d: Sum(rhs),rhsMax =  -6.38360536634089E-14  1.50162593417301E-05
(PID.TID 0000.0001)                    cg2d_init_res =    3.47549290744322E+01
(PID.TID 0000.0001)                       cg2d_iters =   212
(PID.TID 0000.0001)                         cg2d_res =    9.31077191554331E-14
(PID.TID 0000.0001) // =======================================================
(PID.TID 0000.0001) // Begin MONITOR dynamic field statistics
(PID.TID 0000.0001) // =======================================================
(PID.TID 0000.0001) %MON time_tsnumber                =                     2
(PID.TID 0000.0001) %MON time_secondsf                =   3.6000000000000E+03
(PID.TID 0000.0001) %MON dynstat_eta_max              =   3.6663380698003E-06
(PID.TID 0000.0001) %MON dynstat_eta_min              =  -2.9814415934861E-06
(PID.TID 0000.0001) %MON dynstat_eta_mean             =   1.9963937408635E-22
(PID.TID 0000.0001) %MON dynstat_eta_sd               =   8.8055485004543E-07
(PID.TID 0000.0001) %MON dynstat_eta_del2             =   4.1255873427715E-07
(PID.TID 0000.0001) %MON dynstat_uvel_max             =   8.5314685184652E-07
(PID.TID 0000.0001) %MON dynstat_uvel_min             =  -9.4528902322419E-07
(PID.TID 0000.0001) %MON dynstat_uvel_mean            =   2.3114271137103E-09
(PID.TID 0000.0001) %MON dynstat_uvel_sd              =   1.1602467837830E-07
(PID.TID 0000.0001) %MON dynstat_uvel_del2            =   3.0987950226932E-08
(PID.TID 0000.0001) %MON dynstat_vvel_max             =   5.1809275960353E-06
(PID.TID 0000.0001) %MON dynstat_vvel_min             =  -1.1328838474675E-06
(PID.TID 0000.0001) %MON dynstat_vvel_mean            =  -3.6149871684744E-08
(PID.TID 0000.0001) %MON dynstat_vvel_sd              =   3.0824397985751E-07
(PID.TID 0000.0001) %MON dynstat_vvel_del2            =   1.6499350324606E-08
(PID.TID 0000.0001) %MON dynstat_wvel_max             =   1.1871206172065E-08
(PID.TID 0000.0001) %MON dynstat_wvel_min             =  -1.0358169526872E-08
(PID.TID 0000.0001) %MON dynstat_wvel_mean            =  -2.4516482381312E-11
(PID.TID 0000.0001) %MON dynstat_wvel_sd              =   8.3363501845633E-10
(PID.TID 0000.0001) %MON dynstat_wvel_del2            =   2.9612458982520E-10
(PID.TID 0000.0001) %MON dynstat_theta_max            =  -1.9000000000000E+00
(PID.TID 0000.0001) %MON dynstat_theta_min            =  -1.9015626665394E+00
(PID.TID 0000.0001) %MON dynstat_theta_mean           =  -1.9000241030545E+00
(PID.TID 0000.0001) %MON dynstat_theta_sd             =   1.1565564113696E-04
(PID.TID 0000.0001) %MON dynstat_theta_del2           =   1.5891356159775E-06
(PID.TID 0000.0001) %MON dynstat_salt_max             =   3.4400000000000E+01
(PID.TID 0000.0001) %MON dynstat_salt_min             =   3.4399482647496E+01
(PID.TID 0000.0001) %MON dynstat_salt_mean            =   3.4399991253695E+01
(PID.TID 0000.0001) %MON dynstat_salt_sd              =   4.0771950846405E-05
(PID.TID 0000.0001) %MON dynstat_salt_del2            =   5.5301261415063E-07
(PID.TID 0000.0001) %MON extforcing_qnet_max          =   0.0000000000000E+00
(PID.TID 0000.0001) %MON extforcing_qnet_min          =   0.0000000000000E+00
(PID.TID 0000.0001) %MON extforcing_qnet_mean         =   0.0000000000000E+00
(PID.TID 0000.0001) %MON extforcing_qnet_sd           =   0.0000000000000E+00
(PID.TID 0000.0001) %MON extforcing_qnet_del2         =   0.0000000000000E+00
(PID.TID 0000.0001) %MON extforcing_qsw_max           =   0.0000000000000E+00
(PID.TID 0000.0001) %MON extforcing_qsw_min           =   0.0000000000000E+00
(PID.TID 0000.0001) %MON extforcing_qsw_mean          =   0.0000000000000E+00
(PID.TID 0000.0001) %MON extforcing_qsw_sd            =   0.0000000000000E+00
(PID.TID 0000.0001) %MON extforcing_qsw_del2          =   0.0000000000000E+00
(PID.TID 0000.0001) %MON extforcing_empmr_max         =   0.0000000000000E+00
(PID.TID 0000.0001) %MON extforcing_empmr_min         =   0.0000000000000E+00
(PID.TID 0000.0001) %MON extforcing_empmr_mean        =   0.0000000000000E+00
(PID.TID 0000.0001) %MON extforcing_empmr_sd          =   0.0000000000000E+00
(PID.TID 0000.0001) %MON extforcing_empmr_del2        =   0.0000000000000E+00
(PID.TID 0000.0001) %MON extforcing_fu_max            =   0.0000000000000E+00
(PID.TID 0000.0001) %MON extforcing_fu_min            =   0.0000000000000E+00
(PID.TID 0000.0001) %MON extforcing_fu_mean           =   0.0000000000000E+00
(PID.TID 0000.0001) %MON extforcing_fu_sd             =   0.0000000000000E+00
(PID.TID 0000.0001) %MON extforcing_fu_del2           =   0.0000000000000E+00
(PID.TID 0000.0001) %MON extforcing_fv_max            =   0.0000000000000E+00
(PID.TID 0000.0001) %MON extforcing_fv_min            =   0.0000000000000E+00
(PID.TID 0000.0001) %MON extforcing_fv_mean           =   0.0000000000000E+00
(PID.TID 0000.0001) %MON extforcing_fv_sd             =   0.0000000000000E+00
(PID.TID 0000.0001) %MON extforcing_fv_del2           =   0.0000000000000E+00
(PID.TID 0000.0001) %MON advcfl_uvel_max              =   2.8669282613417E-07
(PID.TID 0000.0001) %MON advcfl_vvel_max              =   8.3880928318402E-07
(PID.TID 0000.0001) %MON advcfl_wvel_max              =   7.1227237032387E-07
(PID.TID 0000.0001) %MON advcfl_W_hf_max              =   3.1243135657338E-06
(PID.TID 0000.0001) %MON pe_b_mean                    =  -2.8335704135635E-10
(PID.TID 0000.0001) %MON ke_max                       =   7.1845140915713E-12
(PID.TID 0000.0001) %MON ke_mean                      =   5.4190450179276E-14
(PID.TID 0000.0001) %MON ke_vol                       =   2.9241705273104E+14
(PID.TID 0000.0001) %MON vort_r_min                   =  -8.7717932034626E-10
(PID.TID 0000.0001) %MON vort_r_max                   =   8.5878996808802E-10
(PID.TID 0000.0001) %MON vort_a_mean                  =  -1.4007437277916E-04
(PID.TID 0000.0001) %MON vort_a_sd                    =   1.7682771496520E-06
(PID.TID 0000.0001) %MON vort_p_mean                  =  -1.5039772194955E-04
(PID.TID 0000.0001) %MON vort_p_sd                    =   8.7081213478213E-05
(PID.TID 0000.0001) %MON surfExpan_theta_mean         =  -4.1690107907911E-14
(PID.TID 0000.0001) %MON surfExpan_salt_mean          =  -1.3835875203216E-14
(PID.TID 0000.0001) // =======================================================
(PID.TID 0000.0001) // End MONITOR dynamic field statistics
(PID.TID 0000.0001) // =======================================================
 cg2d: Sum(rhs),rhsMax =   4.77951012101130E-14  2.43553321597233E-05
(PID.TID 0000.0001)                    cg2d_init_res =    1.34550760416577E+01
(PID.TID 0000.0001)                       cg2d_iters =   211
(PID.TID 0000.0001)                         cg2d_res =    9.49241757901504E-14
(PID.TID 0000.0001) // =======================================================
(PID.TID 0000.0001) // Begin MONITOR dynamic field statistics
(PID.TID 0000.0001) // =======================================================
(PID.TID 0000.0001) %MON time_tsnumber                =                     3
(PID.TID 0000.0001) %MON time_secondsf                =   5.4000000000000E+03
(PID.TID 0000.0001) %MON dynstat_eta_max              =   6.9439200805532E-06
(PID.TID 0000.0001) %MON dynstat_eta_min              =  -4.1683719907833E-06
(PID.TID 0000.0001) %MON dynstat_eta_mean             =  -6.6546458028784E-23
(PID.TID 0000.0001) %MON dynstat_eta_sd               =   1.5952976741069E-06
(PID.TID 0000.0001) %MON dynstat_eta_del2             =   6.7160810514206E-07
(PID.TID 0000.0001) %MON dynstat_uvel_max             =   1.3660262876659E-06
(PID.TID 0000.0001) %MON dynstat_uvel_min             =  -3.0753632925850E-06
(PID.TID 0000.0001) %MON dynstat_uvel_mean            =   4.8800723204778E-09
(PID.TID 0000.0001) %MON dynstat_uvel_sd              =   2.4571232886514E-07
(PID.TID 0000.0001) %MON dynstat_uvel_del2            =   4.4143660965301E-08
(PID.TID 0000.0001) %MON dynstat_vvel_max             =   1.2802485108561E-05
(PID.TID 0000.0001) %MON dynstat_vvel_min             =  -2.2508072561184E-06
(PID.TID 0000.0001) %MON dynstat_vvel_mean            =  -8.6040005172929E-08
(PID.TID 0000.0001) %MON dynstat_vvel_sd              =   7.8057777664034E-07
(PID.TID 0000.0001) %MON dynstat_vvel_del2            =   4.0540863761512E-08
(PID.TID 0000.0001) %MON dynstat_wvel_max             =   3.0562893483082E-08
(PID.TID 0000.0001) %MON dynstat_wvel_min             =  -2.7095507313130E-08
(PID.TID 0000.0001) %MON dynstat_wvel_mean            =  -5.5485081920050E-11
(PID.TID 0000.0001) %MON dynstat_wvel_sd              =   2.0403526334719E-09
(PID.TID 0000.0001) %MON dynstat_wvel_del2            =   7.2230331598108E-10
(PID.TID 0000.0001) %MON dynstat_theta_max            =  -1.9000000000000E+00
(PID.TID 0000.0001) %MON dynstat_theta_min            =  -1.9023413726025E+00
(PID.TID 0000.0001) %MON dynstat_theta_mean           =  -1.9000361268159E+00
(PID.TID 0000.0001) %MON dynstat_theta_sd             =   1.7329857655167E-04
(PID.TID 0000.0001) %MON dynstat_theta_del2           =   2.3792945935481E-06
(PID.TID 0000.0001) %MON dynstat_salt_max             =   3.4400000000000E+01
(PID.TID 0000.0001) %MON dynstat_salt_min             =   3.4399224725320E+01
(PID.TID 0000.0001) %MON dynstat_salt_mean            =   3.4399986889722E+01
(PID.TID 0000.0001) %MON dynstat_salt_sd              =   6.1099548744755E-05
(PID.TID 0000.0001) %MON dynstat_salt_del2            =   8.2809481299214E-07
(PID.TID 0000.0001) %MON extforcing_qnet_max          =   0.0000000000000E+00
(PID.TID 0000.0001) %MON extforcing_qnet_min          =   0.0000000000000E+00
(PID.TID 0000.0001) %MON extforcing_qnet_mean         =   0.0000000000000E+00
(PID.TID 0000.0001) %MON extforcing_qnet_sd           =   0.0000000000000E+00
(PID.TID 0000.0001) %MON extforcing_qnet_del2         =   0.0000000000000E+00
(PID.TID 0000.0001) %MON extforcing_qsw_max           =   0.0000000000000E+00
(PID.TID 0000.0001) %MON extforcing_qsw_min           =   0.0000000000000E+00
(PID.TID 0000.0001) %MON extforcing_qsw_mean          =   0.0000000000000E+00
(PID.TID 0000.0001) %MON extforcing_qsw_sd            =   0.0000000000000E+00
(PID.TID 0000.0001) %MON extforcing_qsw_del2          =   0.0000000000000E+00
(PID.TID 0000.0001) %MON extforcing_empmr_max         =   0.0000000000000E+00
(PID.TID 0000.0001) %MON extforcing_empmr_min         =   0.0000000000000E+00
(PID.TID 0000.0001) %MON extforcing_empmr_mean        =   0.0000000000000E+00
(PID.TID 0000.0001) %MON extforcing_empmr_sd          =   0.0000000000000E+00
(PID.TID 0000.0001) %MON extforcing_empmr_del2        =   0.0000000000000E+00
(PID.TID 0000.0001) %MON extforcing_fu_max            =   0.0000000000000E+00
(PID.TID 0000.0001) %MON extforcing_fu_min            =   0.0000000000000E+00
(PID.TID 0000.0001) %MON extforcing_fu_mean           =   0.0000000000000E+00
(PID.TID 0000.0001) %MON extforcing_fu_sd             =   0.0000000000000E+00
(PID.TID 0000.0001) %MON extforcing_fu_del2           =   0.0000000000000E+00
(PID.TID 0000.0001) %MON extforcing_fv_max            =   0.0000000000000E+00
(PID.TID 0000.0001) %MON extforcing_fv_min            =   0.0000000000000E+00
(PID.TID 0000.0001) %MON extforcing_fv_mean           =   0.0000000000000E+00
(PID.TID 0000.0001) %MON extforcing_fv_sd             =   0.0000000000000E+00
(PID.TID 0000.0001) %MON extforcing_fv_del2           =   0.0000000000000E+00
(PID.TID 0000.0001) %MON advcfl_uvel_max              =   9.3271430438621E-07
(PID.TID 0000.0001) %MON advcfl_vvel_max              =   2.0727646078482E-06
(PID.TID 0000.0001) %MON advcfl_wvel_max              =   1.8337736089849E-06
(PID.TID 0000.0001) %MON advcfl_W_hf_max              =   4.0938374803682E-06
(PID.TID 0000.0001) %MON pe_b_mean                    =  -8.4496113966558E-10
(PID.TID 0000.0001) %MON ke_max                       =   4.5419999119178E-11
(PID.TID 0000.0001) %MON ke_mean                      =   3.3430969744848E-13
(PID.TID 0000.0001) %MON ke_vol                       =   2.9241705273104E+14
(PID.TID 0000.0001) %MON vort_r_min                   =  -2.1675800285000E-09
(PID.TID 0000.0001) %MON vort_r_max                   =   2.1149782553727E-09
(PID.TID 0000.0001) %MON vort_a_mean                  =  -1.4007437277891E-04
(PID.TID 0000.0001) %MON vort_a_sd                    =   1.7682771437027E-06
(PID.TID 0000.0001) %MON vort_p_mean                  =  -1.5039772194929E-04
(PID.TID 0000.0001) %MON vort_p_sd                    =   8.7081193502206E-05
(PID.TID 0000.0001) %MON surfExpan_theta_mean         =  -1.3043026782544E-13
(PID.TID 0000.0001) %MON surfExpan_salt_mean          =  -4.3116377252582E-14
(PID.TID 0000.0001) // =======================================================
(PID.TID 0000.0001) // End MONITOR dynamic field statistics
(PID.TID 0000.0001) // =======================================================
 cg2d: Sum(rhs),rhsMax =  -1.97619698383278E-14  3.37045130922497E-05
(PID.TID 0000.0001)                    cg2d_init_res =    9.64511569466024E+00
(PID.TID 0000.0001)                       cg2d_iters =   210
(PID.TID 0000.0001)                         cg2d_res =    9.46793558451081E-14
(PID.TID 0000.0001) // =======================================================
(PID.TID 0000.0001) // Begin MONITOR dynamic field statistics
(PID.TID 0000.0001) // =======================================================
(PID.TID 0000.0001) %MON time_tsnumber                =                     4
(PID.TID 0000.0001) %MON time_secondsf                =   7.2000000000000E+03
(PID.TID 0000.0001) %MON dynstat_eta_max              =   1.0609108416610E-05
(PID.TID 0000.0001) %MON dynstat_eta_min              =  -4.5521377379573E-06
(PID.TID 0000.0001) %MON dynstat_eta_mean             =   4.6582520620148E-22
(PID.TID 0000.0001) %MON dynstat_eta_sd               =   2.4444540007268E-06
(PID.TID 0000.0001) %MON dynstat_eta_del2             =   9.2835621851251E-07
(PID.TID 0000.0001) %MON dynstat_uvel_max             =   1.8988924261159E-06
(PID.TID 0000.0001) %MON dynstat_uvel_min             =  -6.9932450038862E-06
(PID.TID 0000.0001) %MON dynstat_uvel_mean            =   6.8769130714092E-09
(PID.TID 0000.0001) %MON dynstat_uvel_sd              =   5.1567202429237E-07
(PID.TID 0000.0001) %MON dynstat_uvel_del2            =   5.3973757400885E-08
(PID.TID 0000.0001) %MON dynstat_vvel_max             =   2.2410666960893E-05
(PID.TID 0000.0001) %MON dynstat_vvel_min             =  -3.4672039278725E-06
(PID.TID 0000.0001) %MON dynstat_vvel_mean            =  -1.4088942553223E-07
(PID.TID 0000.0001) %MON dynstat_vvel_sd              =   1.3863830632877E-06
(PID.TID 0000.0001) %MON dynstat_vvel_del2            =   7.1007045408845E-08
(PID.TID 0000.0001) %MON dynstat_wvel_max             =   5.7451240242840E-08
(PID.TID 0000.0001) %MON dynstat_wvel_min             =  -5.4535580966928E-08
(PID.TID 0000.0001) %MON dynstat_wvel_mean            =  -8.1205415093622E-11
(PID.TID 0000.0001) %MON dynstat_wvel_sd              =   3.6560771667378E-09
(PID.TID 0000.0001) %MON dynstat_wvel_del2            =   1.2712791112100E-09
(PID.TID 0000.0001) %MON dynstat_theta_max            =  -1.9000000000000E+00
(PID.TID 0000.0001) %MON dynstat_theta_min            =  -1.9031186261856E+00
(PID.TID 0000.0001) %MON dynstat_theta_mean           =  -1.9000481352075E+00
(PID.TID 0000.0001) %MON dynstat_theta_sd             =   2.3083928081655E-04
(PID.TID 0000.0001) %MON dynstat_theta_del2           =   3.1670535497890E-06
(PID.TID 0000.0001) %MON dynstat_salt_max             =   3.4400000000000E+01
(PID.TID 0000.0001) %MON dynstat_salt_min             =   3.4398967220349E+01
(PID.TID 0000.0001) %MON dynstat_salt_mean            =   3.4399982530832E+01
(PID.TID 0000.0001) %MON dynstat_salt_sd              =   8.1394848758076E-05
(PID.TID 0000.0001) %MON dynstat_salt_del2            =   1.1023905740906E-06
(PID.TID 0000.0001) %MON extforcing_qnet_max          =   0.0000000000000E+00
(PID.TID 0000.0001) %MON extforcing_qnet_min          =   0.0000000000000E+00
(PID.TID 0000.0001) %MON extforcing_qnet_mean         =   0.0000000000000E+00
(PID.TID 0000.0001) %MON extforcing_qnet_sd           =   0.0000000000000E+00
(PID.TID 0000.0001) %MON extforcing_qnet_del2         =   0.0000000000000E+00
(PID.TID 0000.0001) %MON extforcing_qsw_max           =   0.0000000000000E+00
(PID.TID 0000.0001) %MON extforcing_qsw_min           =   0.0000000000000E+00
(PID.TID 0000.0001) %MON extforcing_qsw_mean          =   0.0000000000000E+00
(PID.TID 0000.0001) %MON extforcing_qsw_sd            =   0.0000000000000E+00
(PID.TID 0000.0001) %MON extforcing_qsw_del2          =   0.0000000000000E+00
(PID.TID 0000.0001) %MON extforcing_empmr_max         =   0.0000000000000E+00
(PID.TID 0000.0001) %MON extforcing_empmr_min         =   0.0000000000000E+00
(PID.TID 0000.0001) %MON extforcing_empmr_mean        =   0.0000000000000E+00
(PID.TID 0000.0001) %MON extforcing_empmr_sd          =   0.0000000000000E+00
(PID.TID 0000.0001) %MON extforcing_empmr_del2        =   0.0000000000000E+00
(PID.TID 0000.0001) %MON extforcing_fu_max            =   0.0000000000000E+00
(PID.TID 0000.0001) %MON extforcing_fu_min            =   0.0000000000000E+00
(PID.TID 0000.0001) %MON extforcing_fu_mean           =   0.0000000000000E+00
(PID.TID 0000.0001) %MON extforcing_fu_sd             =   0.0000000000000E+00
(PID.TID 0000.0001) %MON extforcing_fu_del2           =   0.0000000000000E+00
(PID.TID 0000.0001) %MON extforcing_fv_max            =   0.0000000000000E+00
(PID.TID 0000.0001) %MON extforcing_fv_min            =   0.0000000000000E+00
(PID.TID 0000.0001) %MON extforcing_fv_mean           =   0.0000000000000E+00
(PID.TID 0000.0001) %MON extforcing_fv_sd             =   0.0000000000000E+00
(PID.TID 0000.0001) %MON extforcing_fv_del2           =   0.0000000000000E+00
(PID.TID 0000.0001) %MON advcfl_uvel_max              =   2.1209525602809E-06
(PID.TID 0000.0001) %MON advcfl_vvel_max              =   3.6283609721796E-06
(PID.TID 0000.0001) %MON advcfl_wvel_max              =   3.4470744145704E-06
(PID.TID 0000.0001) %MON advcfl_W_hf_max              =   6.2055901398082E-06
(PID.TID 0000.0001) %MON pe_b_mean                    =  -1.6425186273966E-09
(PID.TID 0000.0001) %MON ke_max                       =   1.5177120367156E-10
(PID.TID 0000.0001) %MON ke_mean                      =   1.0898064753310E-12
(PID.TID 0000.0001) %MON ke_vol                       =   2.9241705273104E+14
(PID.TID 0000.0001) %MON vort_r_min                   =  -3.7943347496896E-09
(PID.TID 0000.0001) %MON vort_r_max                   =   3.7004703581343E-09
(PID.TID 0000.0001) %MON vort_a_mean                  =  -1.4007437277777E-04
(PID.TID 0000.0001) %MON vort_a_sd                    =   1.7682771217961E-06
(PID.TID 0000.0001) %MON vort_p_mean                  =  -1.5039772194806E-04
(PID.TID 0000.0001) %MON vort_p_sd                    =   8.7081150741589E-05
(PID.TID 0000.0001) %MON surfExpan_theta_mean         =  -2.5186551923192E-13
(PID.TID 0000.0001) %MON surfExpan_salt_mean          =  -8.3148793593886E-14
(PID.TID 0000.0001) // =======================================================
(PID.TID 0000.0001) // End MONITOR dynamic field statistics
(PID.TID 0000.0001) // =======================================================
 cg2d: Sum(rhs),rhsMax =  -9.10382880192628E-15  4.29798455920944E-05
(PID.TID 0000.0001)                    cg2d_init_res =    7.56276641546193E+00
(PID.TID 0000.0001)                       cg2d_iters =   209
(PID.TID 0000.0001)                         cg2d_res =    9.24433958841029E-14
(PID.TID 0000.0001) // =======================================================
(PID.TID 0000.0001) // Begin MONITOR dynamic field statistics
(PID.TID 0000.0001) // =======================================================
(PID.TID 0000.0001) %MON time_tsnumber                =                     5
(PID.TID 0000.0001) %MON time_secondsf                =   9.0000000000000E+03
(PID.TID 0000.0001) %MON dynstat_eta_max              =   1.4492617634353E-05
(PID.TID 0000.0001) %MON dynstat_eta_min              =  -5.4250849357002E-06
(PID.TID 0000.0001) %MON dynstat_eta_mean             =  -2.6618583211513E-21
(PID.TID 0000.0001) %MON dynstat_eta_sd               =   3.4110627643541E-06
(PID.TID 0000.0001) %MON dynstat_eta_del2             =   1.1850641057661E-06
(PID.TID 0000.0001) %MON dynstat_uvel_max             =   2.5335112432146E-06
(PID.TID 0000.0001) %MON dynstat_uvel_min             =  -1.3153199357365E-05
(PID.TID 0000.0001) %MON dynstat_uvel_mean            =   7.3409204902121E-09
(PID.TID 0000.0001) %MON dynstat_uvel_sd              =   9.6870232804054E-07
(PID.TID 0000.0001) %MON dynstat_uvel_del2            =   6.2021205996217E-08
(PID.TID 0000.0001) %MON dynstat_vvel_max             =   3.3370950741490E-05
(PID.TID 0000.0001) %MON dynstat_vvel_min             =  -4.7011660863328E-06
(PID.TID 0000.0001) %MON dynstat_vvel_mean            =  -1.9155718232153E-07
(PID.TID 0000.0001) %MON dynstat_vvel_sd              =   2.0854265306421E-06
(PID.TID 0000.0001) %MON dynstat_vvel_del2            =   1.0582393268590E-07
(PID.TID 0000.0001) %MON dynstat_wvel_max             =   9.1519810605415E-08
(PID.TID 0000.0001) %MON dynstat_wvel_min             =  -9.3356340223186E-08
(PID.TID 0000.0001) %MON dynstat_wvel_mean            =  -9.9352006665849E-11
(PID.TID 0000.0001) %MON dynstat_wvel_sd              =   5.6009439066751E-09
(PID.TID 0000.0001) %MON dynstat_wvel_del2            =   1.9003892726855E-09
(PID.TID 0000.0001) %MON dynstat_theta_max            =  -1.9000000000000E+00
(PID.TID 0000.0001) %MON dynstat_theta_min            =  -1.9038944312961E+00
(PID.TID 0000.0001) %MON dynstat_theta_mean           =  -1.9000601282606E+00
(PID.TID 0000.0001) %MON dynstat_theta_sd             =   2.8827802694101E-04
(PID.TID 0000.0001) %MON dynstat_theta_del2           =   3.9524025886178E-06
(PID.TID 0000.0001) %MON dynstat_salt_max             =   3.4400000000000E+01
(PID.TID 0000.0001) %MON dynstat_salt_min             =   3.4398710131607E+01
(PID.TID 0000.0001) %MON dynstat_salt_mean            =   3.4399978177018E+01
(PID.TID 0000.0001) %MON dynstat_salt_sd              =   1.0165792655402E-04
(PID.TID 0000.0001) %MON dynstat_salt_del2            =   1.3759024601517E-06
(PID.TID 0000.0001) %MON extforcing_qnet_max          =   0.0000000000000E+00
(PID.TID 0000.0001) %MON extforcing_qnet_min          =   0.0000000000000E+00
(PID.TID 0000.0001) %MON extforcing_qnet_mean         =   0.0000000000000E+00
(PID.TID 0000.0001) %MON extforcing_qnet_sd           =   0.0000000000000E+00
(PID.TID 0000.0001) %MON extforcing_qnet_del2         =   0.0000000000000E+00
(PID.TID 0000.0001) %MON extforcing_qsw_max           =   0.0000000000000E+00
(PID.TID 0000.0001) %MON extforcing_qsw_min           =   0.0000000000000E+00
(PID.TID 0000.0001) %MON extforcing_qsw_mean          =   0.0000000000000E+00
(PID.TID 0000.0001) %MON extforcing_qsw_sd            =   0.0000000000000E+00
(PID.TID 0000.0001) %MON extforcing_qsw_del2          =   0.0000000000000E+00
(PID.TID 0000.0001) %MON extforcing_empmr_max         =   0.0000000000000E+00
(PID.TID 0000.0001) %MON extforcing_empmr_min         =   0.0000000000000E+00
(PID.TID 0000.0001) %MON extforcing_empmr_mean        =   0.0000000000000E+00
(PID.TID 0000.0001) %MON extforcing_empmr_sd          =   0.0000000000000E+00
(PID.TID 0000.0001) %MON extforcing_empmr_del2        =   0.0000000000000E+00
(PID.TID 0000.0001) %MON extforcing_fu_max            =   0.0000000000000E+00
(PID.TID 0000.0001) %MON extforcing_fu_min            =   0.0000000000000E+00
(PID.TID 0000.0001) %MON extforcing_fu_mean           =   0.0000000000000E+00
(PID.TID 0000.0001) %MON extforcing_fu_sd             =   0.0000000000000E+00
(PID.TID 0000.0001) %MON extforcing_fu_del2           =   0.0000000000000E+00
(PID.TID 0000.0001) %MON extforcing_fv_max            =   0.0000000000000E+00
(PID.TID 0000.0001) %MON extforcing_fv_min            =   0.0000000000000E+00
(PID.TID 0000.0001) %MON extforcing_fv_mean           =   0.0000000000000E+00
(PID.TID 0000.0001) %MON extforcing_fv_sd             =   0.0000000000000E+00
(PID.TID 0000.0001) %MON extforcing_fv_del2           =   0.0000000000000E+00
(PID.TID 0000.0001) %MON advcfl_uvel_max              =   3.9891798210109E-06
(PID.TID 0000.0001) %MON advcfl_vvel_max              =   5.4028671028060E-06
(PID.TID 0000.0001) %MON advcfl_wvel_max              =   5.6013804133911E-06
(PID.TID 0000.0001) %MON advcfl_W_hf_max              =   8.7442298493559E-06
(PID.TID 0000.0001) %MON pe_b_mean                    =  -2.6217476226628E-09
(PID.TID 0000.0001) %MON ke_max                       =   3.7840056659192E-10
(PID.TID 0000.0001) %MON ke_mean                      =   2.6267097639607E-12
(PID.TID 0000.0001) %MON ke_vol                       =   2.9241705273104E+14
(PID.TID 0000.0001) %MON vort_r_min                   =  -5.6500129268608E-09
(PID.TID 0000.0001) %MON vort_r_max                   =   5.5081945693541E-09
(PID.TID 0000.0001) %MON vort_a_mean                  =  -1.4007437277444E-04
(PID.TID 0000.0001) %MON vort_a_sd                    =   1.7682770872330E-06
(PID.TID 0000.0001) %MON vort_p_mean                  =  -1.5039772194449E-04
(PID.TID 0000.0001) %MON vort_p_sd                    =   8.7081080832695E-05
(PID.TID 0000.0001) %MON surfExpan_theta_mean         =  -3.8257534694223E-13
(PID.TID 0000.0001) %MON surfExpan_salt_mean          =  -1.2636811281071E-13
(PID.TID 0000.0001) // =======================================================
(PID.TID 0000.0001) // End MONITOR dynamic field statistics
(PID.TID 0000.0001) // =======================================================
 cg2d: Sum(rhs),rhsMax =   3.68594044175552E-14  5.21835298556059E-05
(PID.TID 0000.0001)                    cg2d_init_res =    6.21977391184625E+00
(PID.TID 0000.0001)                       cg2d_iters =   207
(PID.TID 0000.0001)                         cg2d_res =    9.82462862850992E-14
(PID.TID 0000.0001) // =======================================================
(PID.TID 0000.0001) // Begin MONITOR dynamic field statistics
(PID.TID 0000.0001) // =======================================================
(PID.TID 0000.0001) %MON time_tsnumber                =                     6
(PID.TID 0000.0001) %MON time_secondsf                =   1.0800000000000E+04
(PID.TID 0000.0001) %MON dynstat_eta_max              =   1.8462133005733E-05
(PID.TID 0000.0001) %MON dynstat_eta_min              =  -6.2246499762423E-06
(PID.TID 0000.0001) %MON dynstat_eta_mean             =  -3.7266016496119E-21
(PID.TID 0000.0001) %MON dynstat_eta_sd               =   4.4521801879457E-06
(PID.TID 0000.0001) %MON dynstat_eta_del2             =   1.4413237658641E-06
(PID.TID 0000.0001) %MON dynstat_uvel_max             =   3.3468740093795E-06
(PID.TID 0000.0001) %MON dynstat_uvel_min             =  -2.2579626040131E-05
(PID.TID 0000.0001) %MON dynstat_uvel_mean            =   5.8979479485955E-09
(PID.TID 0000.0001) %MON dynstat_uvel_sd              =   1.6215358210544E-06
(PID.TID 0000.0001) %MON dynstat_uvel_del2            =   7.1560464618508E-08
(PID.TID 0000.0001) %MON dynstat_vvel_max             =   4.4966529583113E-05
(PID.TID 0000.0001) %MON dynstat_vvel_min             =  -6.3876342344951E-06
(PID.TID 0000.0001) %MON dynstat_vvel_mean            =  -2.3001648478440E-07
(PID.TID 0000.0001) %MON dynstat_vvel_sd              =   2.8317269627587E-06
(PID.TID 0000.0001) %MON dynstat_vvel_del2            =   1.4268740483727E-07
(PID.TID 0000.0001) %MON dynstat_wvel_max             =   1.4214926069572E-07
(PID.TID 0000.0001) %MON dynstat_wvel_min             =  -1.4372254400270E-07
(PID.TID 0000.0001) %MON dynstat_wvel_mean            =  -1.0883736377719E-10
(PID.TID 0000.0001) %MON dynstat_wvel_sd              =   7.8117078502670E-09
(PID.TID 0000.0001) %MON dynstat_wvel_del2            =   2.5696602779994E-09
(PID.TID 0000.0001) %MON dynstat_theta_max            =  -1.9000000000000E+00
(PID.TID 0000.0001) %MON dynstat_theta_min            =  -1.9046687920777E+00
(PID.TID 0000.0001) %MON dynstat_theta_mean           =  -1.9000721060068E+00
(PID.TID 0000.0001) %MON dynstat_theta_sd             =   3.4561508752045E-04
(PID.TID 0000.0001) %MON dynstat_theta_del2           =   4.7353503836563E-06
(PID.TID 0000.0001) %MON dynstat_salt_max             =   3.4400000000000E+01
(PID.TID 0000.0001) %MON dynstat_salt_min             =   3.4398453458071E+01
(PID.TID 0000.0001) %MON dynstat_salt_mean            =   3.4399973828269E+01
(PID.TID 0000.0001) %MON dynstat_salt_sd              =   1.2188885773792E-04
(PID.TID 0000.0001) %MON dynstat_salt_del2            =   1.6486330986596E-06
(PID.TID 0000.0001) %MON extforcing_qnet_max          =   0.0000000000000E+00
(PID.TID 0000.0001) %MON extforcing_qnet_min          =   0.0000000000000E+00
(PID.TID 0000.0001) %MON extforcing_qnet_mean         =   0.0000000000000E+00
(PID.TID 0000.0001) %MON extforcing_qnet_sd           =   0.0000000000000E+00
(PID.TID 0000.0001) %MON extforcing_qnet_del2         =   0.0000000000000E+00
(PID.TID 0000.0001) %MON extforcing_qsw_max           =   0.0000000000000E+00
(PID.TID 0000.0001) %MON extforcing_qsw_min           =   0.0000000000000E+00
(PID.TID 0000.0001) %MON extforcing_qsw_mean          =   0.0000000000000E+00
(PID.TID 0000.0001) %MON extforcing_qsw_sd            =   0.0000000000000E+00
(PID.TID 0000.0001) %MON extforcing_qsw_del2          =   0.0000000000000E+00
(PID.TID 0000.0001) %MON extforcing_empmr_max         =   0.0000000000000E+00
(PID.TID 0000.0001) %MON extforcing_empmr_min         =   0.0000000000000E+00
(PID.TID 0000.0001) %MON extforcing_empmr_mean        =   0.0000000000000E+00
(PID.TID 0000.0001) %MON extforcing_empmr_sd          =   0.0000000000000E+00
(PID.TID 0000.0001) %MON extforcing_empmr_del2        =   0.0000000000000E+00
(PID.TID 0000.0001) %MON extforcing_fu_max            =   0.0000000000000E+00
(PID.TID 0000.0001) %MON extforcing_fu_min            =   0.0000000000000E+00
(PID.TID 0000.0001) %MON extforcing_fu_mean           =   0.0000000000000E+00
(PID.TID 0000.0001) %MON extforcing_fu_sd             =   0.0000000000000E+00
(PID.TID 0000.0001) %MON extforcing_fu_del2           =   0.0000000000000E+00
(PID.TID 0000.0001) %MON extforcing_fv_max            =   0.0000000000000E+00
(PID.TID 0000.0001) %MON extforcing_fv_min            =   0.0000000000000E+00
(PID.TID 0000.0001) %MON extforcing_fv_mean           =   0.0000000000000E+00
(PID.TID 0000.0001) %MON extforcing_fv_sd             =   0.0000000000000E+00
(PID.TID 0000.0001) %MON extforcing_fv_del2           =   0.0000000000000E+00
(PID.TID 0000.0001) %MON advcfl_uvel_max              =   6.7184333431490E-06
(PID.TID 0000.0001) %MON advcfl_vvel_max              =   7.2802296013070E-06
(PID.TID 0000.0001) %MON advcfl_wvel_max              =   8.6233526401618E-06
(PID.TID 0000.0001) %MON advcfl_W_hf_max              =   1.1650629111412E-05
(PID.TID 0000.0001) %MON pe_b_mean                    =  -3.7157874576630E-09
(PID.TID 0000.0001) %MON ke_max                       =   7.9720078229440E-10
(PID.TID 0000.0001) %MON ke_mean                      =   5.2762177699646E-12
(PID.TID 0000.0001) %MON ke_vol                       =   2.9241705273104E+14
(PID.TID 0000.0001) %MON vort_r_min                   =  -7.6132524778439E-09
(PID.TID 0000.0001) %MON vort_r_max                   =   7.4753010574930E-09
(PID.TID 0000.0001) %MON vort_a_mean                  =  -1.4007437276770E-04
(PID.TID 0000.0001) %MON vort_a_sd                    =   1.7682770428127E-06
(PID.TID 0000.0001) %MON vort_p_mean                  =  -1.5039772193725E-04
(PID.TID 0000.0001) %MON vort_p_sd                    =   8.7080981269939E-05
(PID.TID 0000.0001) %MON surfExpan_theta_mean         =  -4.9988234186713E-13
(PID.TID 0000.0001) %MON surfExpan_salt_mean          =  -1.6536666150367E-13
(PID.TID 0000.0001) // =======================================================
(PID.TID 0000.0001) // End MONITOR dynamic field statistics
(PID.TID 0000.0001) // =======================================================
 cg2d: Sum(rhs),rhsMax =  -5.77315972805081E-15  6.14801978445393E-05
(PID.TID 0000.0001)                    cg2d_init_res =    5.27090268992889E+00
(PID.TID 0000.0001)                       cg2d_iters =   208
(PID.TID 0000.0001)                         cg2d_res =    9.28215900898388E-14
(PID.TID 0000.0001) // =======================================================
(PID.TID 0000.0001) // Begin MONITOR dynamic field statistics
(PID.TID 0000.0001) // =======================================================
(PID.TID 0000.0001) %MON time_tsnumber                =                     7
(PID.TID 0000.0001) %MON time_secondsf                =   1.2600000000000E+04
(PID.TID 0000.0001) %MON dynstat_eta_max              =   2.2864471621709E-05
(PID.TID 0000.0001) %MON dynstat_eta_min              =  -6.7581421085910E-06
(PID.TID 0000.0001) %MON dynstat_eta_mean             =  -2.6618583211513E-22
(PID.TID 0000.0001) %MON dynstat_eta_sd               =   5.5211267294061E-06
(PID.TID 0000.0001) %MON dynstat_eta_del2             =   1.6970859408706E-06
(PID.TID 0000.0001) %MON dynstat_uvel_max             =   5.2686107944485E-06
(PID.TID 0000.0001) %MON dynstat_uvel_min             =  -3.5203052828907E-05
(PID.TID 0000.0001) %MON dynstat_uvel_mean            =   2.7871982234012E-09
(PID.TID 0000.0001) %MON dynstat_uvel_sd              =   2.4778040478111E-06
(PID.TID 0000.0001) %MON dynstat_uvel_del2            =   9.5034963069606E-08
(PID.TID 0000.0001) %MON dynstat_vvel_max             =   5.6453295679106E-05
(PID.TID 0000.0001) %MON dynstat_vvel_min             =  -8.0880840378089E-06
(PID.TID 0000.0001) %MON dynstat_vvel_mean            =  -2.5058509048481E-07
(PID.TID 0000.0001) %MON dynstat_vvel_sd              =   3.5764260987832E-06
(PID.TID 0000.0001) %MON dynstat_vvel_del2            =   1.7910861869824E-07
(PID.TID 0000.0001) %MON dynstat_wvel_max             =   2.0584213288553E-07
(PID.TID 0000.0001) %MON dynstat_wvel_min             =  -2.0509113152465E-07
(PID.TID 0000.0001) %MON dynstat_wvel_mean            =  -1.1008361076943E-10
(PID.TID 0000.0001) %MON dynstat_wvel_sd              =   1.0225614076631E-08
(PID.TID 0000.0001) %MON dynstat_wvel_del2            =   3.2396903474456E-09
(PID.TID 0000.0001) %MON dynstat_theta_max            =  -1.9000000000000E+00
(PID.TID 0000.0001) %MON dynstat_theta_min            =  -1.9054417128564E+00
(PID.TID 0000.0001) %MON dynstat_theta_mean           =  -1.9000840684772E+00
(PID.TID 0000.0001) %MON dynstat_theta_sd             =   4.0285073454305E-04
(PID.TID 0000.0001) %MON dynstat_theta_del2           =   5.5159055511985E-06
(PID.TID 0000.0001) %MON dynstat_salt_max             =   3.4400000000000E+01
(PID.TID 0000.0001) %MON dynstat_salt_min             =   3.4398197198656E+01
(PID.TID 0000.0001) %MON dynstat_salt_mean            =   3.4399969484577E+01
(PID.TID 0000.0001) %MON dynstat_salt_sd              =   1.4208771779651E-04
(PID.TID 0000.0001) %MON dynstat_salt_del2            =   1.9205850993049E-06
(PID.TID 0000.0001) %MON extforcing_qnet_max          =   0.0000000000000E+00
(PID.TID 0000.0001) %MON extforcing_qnet_min          =   0.0000000000000E+00
(PID.TID 0000.0001) %MON extforcing_qnet_mean         =   0.0000000000000E+00
(PID.TID 0000.0001) %MON extforcing_qnet_sd           =   0.0000000000000E+00
(PID.TID 0000.0001) %MON extforcing_qnet_del2         =   0.0000000000000E+00
(PID.TID 0000.0001) %MON extforcing_qsw_max           =   0.0000000000000E+00
(PID.TID 0000.0001) %MON extforcing_qsw_min           =   0.0000000000000E+00
(PID.TID 0000.0001) %MON extforcing_qsw_mean          =   0.0000000000000E+00
(PID.TID 0000.0001) %MON extforcing_qsw_sd            =   0.0000000000000E+00
(PID.TID 0000.0001) %MON extforcing_qsw_del2          =   0.0000000000000E+00
(PID.TID 0000.0001) %MON extforcing_empmr_max         =   0.0000000000000E+00
(PID.TID 0000.0001) %MON extforcing_empmr_min         =   0.0000000000000E+00
(PID.TID 0000.0001) %MON extforcing_empmr_mean        =   0.0000000000000E+00
(PID.TID 0000.0001) %MON extforcing_empmr_sd          =   0.0000000000000E+00
(PID.TID 0000.0001) %MON extforcing_empmr_del2        =   0.0000000000000E+00
(PID.TID 0000.0001) %MON extforcing_fu_max            =   0.0000000000000E+00
(PID.TID 0000.0001) %MON extforcing_fu_min            =   0.0000000000000E+00
(PID.TID 0000.0001) %MON extforcing_fu_mean           =   0.0000000000000E+00
(PID.TID 0000.0001) %MON extforcing_fu_sd             =   0.0000000000000E+00
(PID.TID 0000.0001) %MON extforcing_fu_del2           =   0.0000000000000E+00
(PID.TID 0000.0001) %MON extforcing_fv_max            =   0.0000000000000E+00
(PID.TID 0000.0001) %MON extforcing_fv_min            =   0.0000000000000E+00
(PID.TID 0000.0001) %MON extforcing_fv_mean           =   0.0000000000000E+00
(PID.TID 0000.0001) %MON extforcing_fv_sd             =   0.0000000000000E+00
(PID.TID 0000.0001) %MON extforcing_fv_del2           =   0.0000000000000E+00
(PID.TID 0000.0001) %MON advcfl_uvel_max              =   1.0474458854456E-05
(PID.TID 0000.0001) %MON advcfl_vvel_max              =   9.1399749570337E-06
(PID.TID 0000.0001) %MON advcfl_wvel_max              =   1.2350527973132E-05
(PID.TID 0000.0001) %MON advcfl_W_hf_max              =   1.6353165963609E-05
(PID.TID 0000.0001) %MON pe_b_mean                    =  -4.8504054647800E-09
(PID.TID 0000.0001) %MON ke_max                       =   1.4838512281205E-09
(PID.TID 0000.0001) %MON ke_mean                      =   9.3583576032240E-12
(PID.TID 0000.0001) %MON ke_vol                       =   2.9241705273104E+14
(PID.TID 0000.0001) %MON vort_r_min                   =  -9.5580690170232E-09
(PID.TID 0000.0001) %MON vort_r_max                   =   9.4490868749472E-09
(PID.TID 0000.0001) %MON vort_a_mean                  =  -1.4007437275722E-04
(PID.TID 0000.0001) %MON vort_a_sd                    =   1.7682769916619E-06
(PID.TID 0000.0001) %MON vort_p_mean                  =  -1.5039772192600E-04
(PID.TID 0000.0001) %MON vort_p_sd                    =   8.7080851521387E-05
(PID.TID 0000.0001) %MON surfExpan_theta_mean         =  -5.8684871448861E-13
(PID.TID 0000.0001) %MON surfExpan_salt_mean          =  -1.9449745503980E-13
(PID.TID 0000.0001) // =======================================================
(PID.TID 0000.0001) // End MONITOR dynamic field statistics
(PID.TID 0000.0001) // =======================================================
 cg2d: Sum(rhs),rhsMax =  -3.37507799486048E-14  7.07863244976598E-05
(PID.TID 0000.0001)                    cg2d_init_res =    4.57051315176855E+00
(PID.TID 0000.0001)                       cg2d_iters =   207
(PID.TID 0000.0001)                         cg2d_res =    9.12387267385140E-14
(PID.TID 0000.0001) // =======================================================
(PID.TID 0000.0001) // Begin MONITOR dynamic field statistics
(PID.TID 0000.0001) // =======================================================
(PID.TID 0000.0001) %MON time_tsnumber                =                     8
(PID.TID 0000.0001) %MON time_secondsf                =   1.4400000000000E+04
(PID.TID 0000.0001) %MON dynstat_eta_max              =   2.7210204437711E-05
(PID.TID 0000.0001) %MON dynstat_eta_min              =  -7.0894601565963E-06
(PID.TID 0000.0001) %MON dynstat_eta_mean             =   1.0647433284605E-21
(PID.TID 0000.0001) %MON dynstat_eta_sd               =   6.5716065236010E-06
(PID.TID 0000.0001) %MON dynstat_eta_del2             =   1.9523269549818E-06
(PID.TID 0000.0001) %MON dynstat_uvel_max             =   7.6849652934321E-06
(PID.TID 0000.0001) %MON dynstat_uvel_min             =  -5.0588943409642E-05
(PID.TID 0000.0001) %MON dynstat_uvel_mean            =  -1.2916202915118E-09
(PID.TID 0000.0001) %MON dynstat_uvel_sd              =   3.5287736124351E-06
(PID.TID 0000.0001) %MON dynstat_uvel_del2            =   1.5103161251553E-07
(PID.TID 0000.0001) %MON dynstat_vvel_max             =   6.7111635171609E-05
(PID.TID 0000.0001) %MON dynstat_vvel_min             =  -9.8928111526089E-06
(PID.TID 0000.0001) %MON dynstat_vvel_mean            =  -2.5078189698989E-07
(PID.TID 0000.0001) %MON dynstat_vvel_sd              =   4.2710445887503E-06
(PID.TID 0000.0001) %MON dynstat_vvel_del2            =   2.1280603155065E-07
(PID.TID 0000.0001) %MON dynstat_wvel_max             =   2.8036475679958E-07
(PID.TID 0000.0001) %MON dynstat_wvel_min             =  -2.7622105265505E-07
(PID.TID 0000.0001) %MON dynstat_wvel_mean            =  -1.0436525492492E-10
(PID.TID 0000.0001) %MON dynstat_wvel_sd              =   1.2781713977258E-08
(PID.TID 0000.0001) %MON dynstat_wvel_del2            =   3.8727977914898E-09
(PID.TID 0000.0001) %MON dynstat_theta_max            =  -1.9000000000000E+00
(PID.TID 0000.0001) %MON dynstat_theta_min            =  -1.9062131981677E+00
(PID.TID 0000.0001) %MON dynstat_theta_mean           =  -1.9000960157033E+00
(PID.TID 0000.0001) %MON dynstat_theta_sd             =   4.5998523915188E-04
(PID.TID 0000.0001) %MON dynstat_theta_del2           =   6.2940766668498E-06
(PID.TID 0000.0001) %MON dynstat_salt_max             =   3.4400000000000E+01
(PID.TID 0000.0001) %MON dynstat_salt_min             =   3.4397941352206E+01
(PID.TID 0000.0001) %MON dynstat_salt_mean            =   3.4399965145933E+01
(PID.TID 0000.0001) %MON dynstat_salt_sd              =   1.6225458202581E-04
(PID.TID 0000.0001) %MON dynstat_salt_del2            =   2.1917610591858E-06
(PID.TID 0000.0001) %MON extforcing_qnet_max          =   0.0000000000000E+00
(PID.TID 0000.0001) %MON extforcing_qnet_min          =   0.0000000000000E+00
(PID.TID 0000.0001) %MON extforcing_qnet_mean         =   0.0000000000000E+00
(PID.TID 0000.0001) %MON extforcing_qnet_sd           =   0.0000000000000E+00
(PID.TID 0000.0001) %MON extforcing_qnet_del2         =   0.0000000000000E+00
(PID.TID 0000.0001) %MON extforcing_qsw_max           =   0.0000000000000E+00
(PID.TID 0000.0001) %MON extforcing_qsw_min           =   0.0000000000000E+00
(PID.TID 0000.0001) %MON extforcing_qsw_mean          =   0.0000000000000E+00
(PID.TID 0000.0001) %MON extforcing_qsw_sd            =   0.0000000000000E+00
(PID.TID 0000.0001) %MON extforcing_qsw_del2          =   0.0000000000000E+00
(PID.TID 0000.0001) %MON extforcing_empmr_max         =   0.0000000000000E+00
(PID.TID 0000.0001) %MON extforcing_empmr_min         =   0.0000000000000E+00
(PID.TID 0000.0001) %MON extforcing_empmr_mean        =   0.0000000000000E+00
(PID.TID 0000.0001) %MON extforcing_empmr_sd          =   0.0000000000000E+00
(PID.TID 0000.0001) %MON extforcing_empmr_del2        =   0.0000000000000E+00
(PID.TID 0000.0001) %MON extforcing_fu_max            =   0.0000000000000E+00
(PID.TID 0000.0001) %MON extforcing_fu_min            =   0.0000000000000E+00
(PID.TID 0000.0001) %MON extforcing_fu_mean           =   0.0000000000000E+00
(PID.TID 0000.0001) %MON extforcing_fu_sd             =   0.0000000000000E+00
(PID.TID 0000.0001) %MON extforcing_fu_del2           =   0.0000000000000E+00
(PID.TID 0000.0001) %MON extforcing_fv_max            =   0.0000000000000E+00
(PID.TID 0000.0001) %MON extforcing_fv_min            =   0.0000000000000E+00
(PID.TID 0000.0001) %MON extforcing_fv_mean           =   0.0000000000000E+00
(PID.TID 0000.0001) %MON extforcing_fv_sd             =   0.0000000000000E+00
(PID.TID 0000.0001) %MON extforcing_fv_del2           =   0.0000000000000E+00
(PID.TID 0000.0001) %MON advcfl_uvel_max              =   1.5052439025959E-05
(PID.TID 0000.0001) %MON advcfl_vvel_max              =   1.0865595310516E-05
(PID.TID 0000.0001) %MON advcfl_wvel_max              =   1.6821885407975E-05
(PID.TID 0000.0001) %MON advcfl_W_hf_max              =   2.1675306450432E-05
(PID.TID 0000.0001) %MON pe_b_mean                    =  -5.9529741160255E-09
(PID.TID 0000.0001) %MON ke_max                       =   2.5098732618030E-09
(PID.TID 0000.0001) %MON ke_mean                      =   1.5143807362987E-11
(PID.TID 0000.0001) %MON ke_vol                       =   2.9241705273104E+14
(PID.TID 0000.0001) %MON vort_r_min                   =  -1.1362625212560E-08
(PID.TID 0000.0001) %MON vort_r_max                   =   1.1287016656939E-08
(PID.TID 0000.0001) %MON vort_a_mean                  =  -1.4007437274413E-04
(PID.TID 0000.0001) %MON vort_a_sd                    =   1.7682769311346E-06
(PID.TID 0000.0001) %MON vort_p_mean                  =  -1.5039772191194E-04
(PID.TID 0000.0001) %MON vort_p_sd                    =   8.7080692990734E-05
(PID.TID 0000.0001) %MON surfExpan_theta_mean         =  -6.3344958643696E-13
(PID.TID 0000.0001) %MON surfExpan_salt_mean          =  -2.1032631530155E-13
(PID.TID 0000.0001) // =======================================================
(PID.TID 0000.0001) // End MONITOR dynamic field statistics
(PID.TID 0000.0001) // =======================================================
 cg2d: Sum(rhs),rhsMax =   4.52970994047064E-14  8.00897183104902E-05
(PID.TID 0000.0001)                    cg2d_init_res =    4.03289717673906E+00
(PID.TID 0000.0001)                       cg2d_iters =   206
(PID.TID 0000.0001)                         cg2d_res =    9.16915516501024E-14
(PID.TID 0000.0001) // =======================================================
(PID.TID 0000.0001) // Begin MONITOR dynamic field statistics
(PID.TID 0000.0001) // =======================================================
(PID.TID 0000.0001) %MON time_tsnumber                =                     9
(PID.TID 0000.0001) %MON time_secondsf                =   1.6200000000000E+04
(PID.TID 0000.0001) %MON dynstat_eta_max              =   3.1348529875757E-05
(PID.TID 0000.0001) %MON dynstat_eta_min              =  -7.3460992248999E-06
(PID.TID 0000.0001) %MON dynstat_eta_mean             =  -4.7913449780724E-21
(PID.TID 0000.0001) %MON dynstat_eta_sd               =   7.5609938745855E-06
(PID.TID 0000.0001) %MON dynstat_eta_del2             =   2.2070390700776E-06
(PID.TID 0000.0001) %MON dynstat_uvel_max             =   1.0492550045514E-05
(PID.TID 0000.0001) %MON dynstat_uvel_min             =  -6.8400159151735E-05
(PID.TID 0000.0001) %MON dynstat_uvel_mean            =  -5.3810325209735E-09
(PID.TID 0000.0001) %MON dynstat_uvel_sd              =   4.7536624761148E-06
(PID.TID 0000.0001) %MON dynstat_uvel_del2            =   2.1619856042400E-07
(PID.TID 0000.0001) %MON dynstat_vvel_max             =   7.6514251019577E-05
(PID.TID 0000.0001) %MON dynstat_vvel_min             =  -1.1776908210873E-05
(PID.TID 0000.0001) %MON dynstat_vvel_mean            =  -2.3154490382734E-07
(PID.TID 0000.0001) %MON dynstat_vvel_sd              =   4.8707537118149E-06
(PID.TID 0000.0001) %MON dynstat_vvel_del2            =   2.4181464628956E-07
(PID.TID 0000.0001) %MON dynstat_wvel_max             =   3.6385764813844E-07
(PID.TID 0000.0001) %MON dynstat_wvel_min             =  -3.5527248131987E-07
(PID.TID 0000.0001) %MON dynstat_wvel_mean            =  -9.3330922408342E-11
(PID.TID 0000.0001) %MON dynstat_wvel_sd              =   1.5422296953847E-08
(PID.TID 0000.0001) %MON dynstat_wvel_del2            =   4.4396417116244E-09
(PID.TID 0000.0001) %MON dynstat_theta_max            =  -1.9000000000000E+00
(PID.TID 0000.0001) %MON dynstat_theta_min            =  -1.9069832527658E+00
(PID.TID 0000.0001) %MON dynstat_theta_mean           =  -1.9001079477163E+00
(PID.TID 0000.0001) %MON dynstat_theta_sd             =   5.1701887149073E-04
(PID.TID 0000.0001) %MON dynstat_theta_del2           =   7.0698722572379E-06
(PID.TID 0000.0001) %MON dynstat_salt_max             =   3.4400000000000E+01
(PID.TID 0000.0001) %MON dynstat_salt_min             =   3.4397685917488E+01
(PID.TID 0000.0001) %MON dynstat_salt_mean            =   3.4399960812329E+01
(PID.TID 0000.0001) %MON dynstat_salt_sd              =   1.8238952548132E-04
(PID.TID 0000.0001) %MON dynstat_salt_del2            =   2.4621635594733E-06
(PID.TID 0000.0001) %MON extforcing_qnet_max          =   0.0000000000000E+00
(PID.TID 0000.0001) %MON extforcing_qnet_min          =   0.0000000000000E+00
(PID.TID 0000.0001) %MON extforcing_qnet_mean         =   0.0000000000000E+00
(PID.TID 0000.0001) %MON extforcing_qnet_sd           =   0.0000000000000E+00
(PID.TID 0000.0001) %MON extforcing_qnet_del2         =   0.0000000000000E+00
(PID.TID 0000.0001) %MON extforcing_qsw_max           =   0.0000000000000E+00
(PID.TID 0000.0001) %MON extforcing_qsw_min           =   0.0000000000000E+00
(PID.TID 0000.0001) %MON extforcing_qsw_mean          =   0.0000000000000E+00
(PID.TID 0000.0001) %MON extforcing_qsw_sd            =   0.0000000000000E+00
(PID.TID 0000.0001) %MON extforcing_qsw_del2          =   0.0000000000000E+00
(PID.TID 0000.0001) %MON extforcing_empmr_max         =   0.0000000000000E+00
(PID.TID 0000.0001) %MON extforcing_empmr_min         =   0.0000000000000E+00
(PID.TID 0000.0001) %MON extforcing_empmr_mean        =   0.0000000000000E+00
(PID.TID 0000.0001) %MON extforcing_empmr_sd          =   0.0000000000000E+00
(PID.TID 0000.0001) %MON extforcing_empmr_del2        =   0.0000000000000E+00
(PID.TID 0000.0001) %MON extforcing_fu_max            =   0.0000000000000E+00
(PID.TID 0000.0001) %MON extforcing_fu_min            =   0.0000000000000E+00
(PID.TID 0000.0001) %MON extforcing_fu_mean           =   0.0000000000000E+00
(PID.TID 0000.0001) %MON extforcing_fu_sd             =   0.0000000000000E+00
(PID.TID 0000.0001) %MON extforcing_fu_del2           =   0.0000000000000E+00
(PID.TID 0000.0001) %MON extforcing_fv_max            =   0.0000000000000E+00
(PID.TID 0000.0001) %MON extforcing_fv_min            =   0.0000000000000E+00
(PID.TID 0000.0001) %MON extforcing_fv_mean           =   0.0000000000000E+00
(PID.TID 0000.0001) %MON extforcing_fv_sd             =   0.0000000000000E+00
(PID.TID 0000.0001) %MON extforcing_fv_del2           =   0.0000000000000E+00
(PID.TID 0000.0001) %MON advcfl_uvel_max              =   2.0352060264637E-05
(PID.TID 0000.0001) %MON advcfl_vvel_max              =   1.2387909860043E-05
(PID.TID 0000.0001) %MON advcfl_wvel_max              =   2.1831458888306E-05
(PID.TID 0000.0001) %MON advcfl_W_hf_max              =   2.7456707383946E-05
(PID.TID 0000.0001) %MON pe_b_mean                    =  -6.9612357956935E-09
(PID.TID 0000.0001) %MON ke_max                       =   3.9353756999270E-09
(PID.TID 0000.0001) %MON ke_mean                      =   2.2817227594297E-11
(PID.TID 0000.0001) %MON ke_vol                       =   2.9241705273104E+14
(PID.TID 0000.0001) %MON vort_r_min                   =  -1.2917567967118E-08
(PID.TID 0000.0001) %MON vort_r_max                   =   1.2875399793009E-08
(PID.TID 0000.0001) %MON vort_a_mean                  =  -1.4007437273077E-04
(PID.TID 0000.0001) %MON vort_a_sd                    =   1.7682768544640E-06
(PID.TID 0000.0001) %MON vort_p_mean                  =  -1.5039772189760E-04
(PID.TID 0000.0001) %MON vort_p_sd                    =   8.7080508889187E-05
(PID.TID 0000.0001) %MON surfExpan_theta_mean         =  -6.3601977831273E-13
(PID.TID 0000.0001) %MON surfExpan_salt_mean          =  -2.1152551330983E-13
(PID.TID 0000.0001) // =======================================================
(PID.TID 0000.0001) // End MONITOR dynamic field statistics
(PID.TID 0000.0001) // =======================================================
 cg2d: Sum(rhs),rhsMax =   3.01980662698043E-14  8.93933611113288E-05
(PID.TID 0000.0001)                    cg2d_init_res =    3.60711062862738E+00
(PID.TID 0000.0001)                       cg2d_iters =   206
(PID.TID 0000.0001)                         cg2d_res =    7.41982102331418E-14
(PID.TID 0000.0001) // =======================================================
(PID.TID 0000.0001) // Begin MONITOR dynamic field statistics
(PID.TID 0000.0001) // =======================================================
(PID.TID 0000.0001) %MON time_tsnumber                =                    10
(PID.TID 0000.0001) %MON time_secondsf                =   1.8000000000000E+04
(PID.TID 0000.0001) %MON dynstat_eta_max              =   3.5173438810039E-05
(PID.TID 0000.0001) %MON dynstat_eta_min              =  -7.7475201037307E-06
(PID.TID 0000.0001) %MON dynstat_eta_mean             =  -1.0647433284605E-21
(PID.TID 0000.0001) %MON dynstat_eta_sd               =   8.4556151450198E-06
(PID.TID 0000.0001) %MON dynstat_eta_del2             =   2.4612292389711E-06
(PID.TID 0000.0001) %MON dynstat_uvel_max             =   1.3611690023679E-05
(PID.TID 0000.0001) %MON dynstat_uvel_min             =  -8.8148088856595E-05
(PID.TID 0000.0001) %MON dynstat_uvel_mean            =  -8.4975153506601E-09
(PID.TID 0000.0001) %MON dynstat_uvel_sd              =   6.1208427345498E-06
(PID.TID 0000.0001) %MON dynstat_uvel_del2            =   2.8705879415839E-07
(PID.TID 0000.0001) %MON dynstat_vvel_max             =   8.3963600026327E-05
(PID.TID 0000.0001) %MON dynstat_vvel_min             =  -1.3444359802574E-05
(PID.TID 0000.0001) %MON dynstat_vvel_mean            =  -1.9679349663729E-07
(PID.TID 0000.0001) %MON dynstat_vvel_sd              =   5.3373565130088E-06
(PID.TID 0000.0001) %MON dynstat_vvel_del2            =   2.6454526115609E-07
(PID.TID 0000.0001) %MON dynstat_wvel_max             =   4.5391726594233E-07
(PID.TID 0000.0001) %MON dynstat_wvel_min             =  -4.3994443428442E-07
(PID.TID 0000.0001) %MON dynstat_wvel_mean            =  -7.8766935310281E-11
(PID.TID 0000.0001) %MON dynstat_wvel_sd              =   1.8093881799528E-08
(PID.TID 0000.0001) %MON dynstat_wvel_del2            =   4.9126327913722E-09
(PID.TID 0000.0001) %MON dynstat_theta_max            =  -1.9000000000000E+00
(PID.TID 0000.0001) %MON dynstat_theta_min            =  -1.9077518816095E+00
(PID.TID 0000.0001) %MON dynstat_theta_mean           =  -1.9001198645473E+00
(PID.TID 0000.0001) %MON dynstat_theta_sd             =   5.7395190061200E-04
(PID.TID 0000.0001) %MON dynstat_theta_del2           =   7.8433007912149E-06
(PID.TID 0000.0001) %MON dynstat_salt_max             =   3.4400000000000E+01
(PID.TID 0000.0001) %MON dynstat_salt_min             =   3.4397430893199E+01
(PID.TID 0000.0001) %MON dynstat_salt_mean            =   3.4399956483753E+01
(PID.TID 0000.0001) %MON dynstat_salt_sd              =   2.0249262294662E-04
(PID.TID 0000.0001) %MON dynstat_salt_del2            =   2.7317951619587E-06
(PID.TID 0000.0001) %MON extforcing_qnet_max          =   0.0000000000000E+00
(PID.TID 0000.0001) %MON extforcing_qnet_min          =   0.0000000000000E+00
(PID.TID 0000.0001) %MON extforcing_qnet_mean         =   0.0000000000000E+00
(PID.TID 0000.0001) %MON extforcing_qnet_sd           =   0.0000000000000E+00
(PID.TID 0000.0001) %MON extforcing_qnet_del2         =   0.0000000000000E+00
(PID.TID 0000.0001) %MON extforcing_qsw_max           =   0.0000000000000E+00
(PID.TID 0000.0001) %MON extforcing_qsw_min           =   0.0000000000000E+00
(PID.TID 0000.0001) %MON extforcing_qsw_mean          =   0.0000000000000E+00
(PID.TID 0000.0001) %MON extforcing_qsw_sd            =   0.0000000000000E+00
(PID.TID 0000.0001) %MON extforcing_qsw_del2          =   0.0000000000000E+00
(PID.TID 0000.0001) %MON extforcing_empmr_max         =   0.0000000000000E+00
(PID.TID 0000.0001) %MON extforcing_empmr_min         =   0.0000000000000E+00
(PID.TID 0000.0001) %MON extforcing_empmr_mean        =   0.0000000000000E+00
(PID.TID 0000.0001) %MON extforcing_empmr_sd          =   0.0000000000000E+00
(PID.TID 0000.0001) %MON extforcing_empmr_del2        =   0.0000000000000E+00
(PID.TID 0000.0001) %MON extforcing_fu_max            =   0.0000000000000E+00
(PID.TID 0000.0001) %MON extforcing_fu_min            =   0.0000000000000E+00
(PID.TID 0000.0001) %MON extforcing_fu_mean           =   0.0000000000000E+00
(PID.TID 0000.0001) %MON extforcing_fu_sd             =   0.0000000000000E+00
(PID.TID 0000.0001) %MON extforcing_fu_del2           =   0.0000000000000E+00
(PID.TID 0000.0001) %MON extforcing_fv_max            =   0.0000000000000E+00
(PID.TID 0000.0001) %MON extforcing_fv_min            =   0.0000000000000E+00
(PID.TID 0000.0001) %MON extforcing_fv_mean           =   0.0000000000000E+00
(PID.TID 0000.0001) %MON extforcing_fv_sd             =   0.0000000000000E+00
(PID.TID 0000.0001) %MON extforcing_fv_del2           =   0.0000000000000E+00
(PID.TID 0000.0001) %MON advcfl_uvel_max              =   2.6227939216374E-05
(PID.TID 0000.0001) %MON advcfl_vvel_max              =   1.3593984059057E-05
(PID.TID 0000.0001) %MON advcfl_wvel_max              =   2.7235035956540E-05
(PID.TID 0000.0001) %MON advcfl_W_hf_max              =   3.3509955216719E-05
(PID.TID 0000.0001) %MON pe_b_mean                    =  -7.8296449960885E-09
(PID.TID 0000.0001) %MON ke_max                       =   5.7961916283707E-09
(PID.TID 0000.0001) %MON ke_mean                      =   3.2445455841066E-11
(PID.TID 0000.0001) %MON ke_vol                       =   2.9241705273104E+14
(PID.TID 0000.0001) %MON vort_r_min                   =  -1.4133061334651E-08
(PID.TID 0000.0001) %MON vort_r_max                   =   1.4120707836153E-08
(PID.TID 0000.0001) %MON vort_a_mean                  =  -1.4007437271997E-04
(PID.TID 0000.0001) %MON vort_a_sd                    =   1.7682767545545E-06
(PID.TID 0000.0001) %MON vort_p_mean                  =  -1.5039772188600E-04
(PID.TID 0000.0001) %MON vort_p_sd                    =   8.7080304016964E-05
(PID.TID 0000.0001) %MON surfExpan_theta_mean         =  -5.9657475260447E-13
(PID.TID 0000.0001) %MON surfExpan_salt_mean          =  -1.9869166547261E-13
(PID.TID 0000.0001) // =======================================================
(PID.TID 0000.0001) // End MONITOR dynamic field statistics
(PID.TID 0000.0001) // =======================================================
 cg2d: Sum(rhs),rhsMax =  -5.86197757002083E-14  9.86983655880825E-05
(PID.TID 0000.0001)                    cg2d_init_res =    3.26154217086685E+00
(PID.TID 0000.0001)                       cg2d_iters =   204
(PID.TID 0000.0001)                         cg2d_res =    9.79103508543181E-14
(PID.TID 0000.0001) // =======================================================
(PID.TID 0000.0001) // Begin MONITOR dynamic field statistics
(PID.TID 0000.0001) // =======================================================
(PID.TID 0000.0001) %MON time_tsnumber                =                    11
(PID.TID 0000.0001) %MON time_secondsf                =   1.9800000000000E+04
(PID.TID 0000.0001) %MON dynstat_eta_max              =   3.8627917202222E-05
(PID.TID 0000.0001) %MON dynstat_eta_min              =  -8.6527689501022E-06
(PID.TID 0000.0001) %MON dynstat_eta_mean             =  -1.1179804948836E-20
(PID.TID 0000.0001) %MON dynstat_eta_sd               =   9.2363355112966E-06
(PID.TID 0000.0001) %MON dynstat_eta_del2             =   2.7149138209800E-06
(PID.TID 0000.0001) %MON dynstat_uvel_max             =   1.6942888781682E-05
(PID.TID 0000.0001) %MON dynstat_uvel_min             =  -1.0922568294813E-04
(PID.TID 0000.0001) %MON dynstat_uvel_mean            =  -9.8601278866513E-09
(PID.TID 0000.0001) %MON dynstat_uvel_sd              =   7.5898626147986E-06
(PID.TID 0000.0001) %MON dynstat_uvel_del2            =   3.6058199955566E-07
(PID.TID 0000.0001) %MON dynstat_vvel_max             =   8.8993503892728E-05
(PID.TID 0000.0001) %MON dynstat_vvel_min             =  -1.4801504971179E-05
(PID.TID 0000.0001) %MON dynstat_vvel_mean            =  -1.5252332690361E-07
(PID.TID 0000.0001) %MON dynstat_vvel_sd              =   5.6417717745780E-06
(PID.TID 0000.0001) %MON dynstat_vvel_del2            =   2.7989012146022E-07
(PID.TID 0000.0001) %MON dynstat_wvel_max             =   5.4778458320758E-07
(PID.TID 0000.0001) %MON dynstat_wvel_min             =  -5.2763803396929E-07
(PID.TID 0000.0001) %MON dynstat_wvel_mean            =  -6.2516751964098E-11
(PID.TID 0000.0001) %MON dynstat_wvel_sd              =   2.0747705199081E-08
(PID.TID 0000.0001) %MON dynstat_wvel_del2            =   5.2773931280722E-09
(PID.TID 0000.0001) %MON dynstat_theta_max            =  -1.9000000000000E+00
(PID.TID 0000.0001) %MON dynstat_theta_min            =  -1.9085190898243E+00
(PID.TID 0000.0001) %MON dynstat_theta_mean           =  -1.9001317662274E+00
(PID.TID 0000.0001) %MON dynstat_theta_sd             =   6.3078459440658E-04
(PID.TID 0000.0001) %MON dynstat_theta_del2           =   8.6143706726459E-06
(PID.TID 0000.0001) %MON dynstat_salt_max             =   3.4400000000000E+01
(PID.TID 0000.0001) %MON dynstat_salt_min             =   3.4397176277978E+01
(PID.TID 0000.0001) %MON dynstat_salt_mean            =   3.4399952160200E+01
(PID.TID 0000.0001) %MON dynstat_salt_sd              =   2.2256394890794E-04
(PID.TID 0000.0001) %MON dynstat_salt_del2            =   3.0006584064313E-06
(PID.TID 0000.0001) %MON extforcing_qnet_max          =   0.0000000000000E+00
(PID.TID 0000.0001) %MON extforcing_qnet_min          =   0.0000000000000E+00
(PID.TID 0000.0001) %MON extforcing_qnet_mean         =   0.0000000000000E+00
(PID.TID 0000.0001) %MON extforcing_qnet_sd           =   0.0000000000000E+00
(PID.TID 0000.0001) %MON extforcing_qnet_del2         =   0.0000000000000E+00
(PID.TID 0000.0001) %MON extforcing_qsw_max           =   0.0000000000000E+00
(PID.TID 0000.0001) %MON extforcing_qsw_min           =   0.0000000000000E+00
(PID.TID 0000.0001) %MON extforcing_qsw_mean          =   0.0000000000000E+00
(PID.TID 0000.0001) %MON extforcing_qsw_sd            =   0.0000000000000E+00
(PID.TID 0000.0001) %MON extforcing_qsw_del2          =   0.0000000000000E+00
(PID.TID 0000.0001) %MON extforcing_empmr_max         =   0.0000000000000E+00
(PID.TID 0000.0001) %MON extforcing_empmr_min         =   0.0000000000000E+00
(PID.TID 0000.0001) %MON extforcing_empmr_mean        =   0.0000000000000E+00
(PID.TID 0000.0001) %MON extforcing_empmr_sd          =   0.0000000000000E+00
(PID.TID 0000.0001) %MON extforcing_empmr_del2        =   0.0000000000000E+00
(PID.TID 0000.0001) %MON extforcing_fu_max            =   0.0000000000000E+00
(PID.TID 0000.0001) %MON extforcing_fu_min            =   0.0000000000000E+00
(PID.TID 0000.0001) %MON extforcing_fu_mean           =   0.0000000000000E+00
(PID.TID 0000.0001) %MON extforcing_fu_sd             =   0.0000000000000E+00
(PID.TID 0000.0001) %MON extforcing_fu_del2           =   0.0000000000000E+00
(PID.TID 0000.0001) %MON extforcing_fv_max            =   0.0000000000000E+00
(PID.TID 0000.0001) %MON extforcing_fv_min            =   0.0000000000000E+00
(PID.TID 0000.0001) %MON extforcing_fv_mean           =   0.0000000000000E+00
(PID.TID 0000.0001) %MON extforcing_fv_sd             =   0.0000000000000E+00
(PID.TID 0000.0001) %MON extforcing_fv_del2           =   0.0000000000000E+00
(PID.TID 0000.0001) %MON advcfl_uvel_max              =   3.2499451892725E-05
(PID.TID 0000.0001) %MON advcfl_vvel_max              =   1.4408342101793E-05
(PID.TID 0000.0001) %MON advcfl_wvel_max              =   3.2867074992455E-05
(PID.TID 0000.0001) %MON advcfl_W_hf_max              =   3.9635867340370E-05
(PID.TID 0000.0001) %MON pe_b_mean                    =  -8.5330855844008E-09
(PID.TID 0000.0001) %MON ke_max                       =   8.0941573203352E-09
(PID.TID 0000.0001) %MON ke_mean                      =   4.3954413068102E-11
(PID.TID 0000.0001) %MON ke_vol                       =   2.9241705273104E+14
(PID.TID 0000.0001) %MON vort_r_min                   =  -1.4944177327871E-08
(PID.TID 0000.0001) %MON vort_r_max                   =   1.4955087026569E-08
(PID.TID 0000.0001) %MON vort_a_mean                  =  -1.4007437271405E-04
(PID.TID 0000.0001) %MON vort_a_sd                    =   1.7682766266077E-06
(PID.TID 0000.0001) %MON vort_p_mean                  =  -1.5039772187964E-04
(PID.TID 0000.0001) %MON vort_p_sd                    =   8.7080084455083E-05
(PID.TID 0000.0001) %MON surfExpan_theta_mean         =  -5.2257617712081E-13
(PID.TID 0000.0001) %MON surfExpan_salt_mean          =  -1.7427665691392E-13
(PID.TID 0000.0001) // =======================================================
(PID.TID 0000.0001) // End MONITOR dynamic field statistics
(PID.TID 0000.0001) // =======================================================
 cg2d: Sum(rhs),rhsMax =  -2.08721928629529E-14  1.08005122380557E-04
(PID.TID 0000.0001)                    cg2d_init_res =    2.97550211763635E+00
(PID.TID 0000.0001)                       cg2d_iters =   198
(PID.TID 0000.0001)                         cg2d_res =    9.93095608344109E-14
(PID.TID 0000.0001) // =======================================================
(PID.TID 0000.0001) // Begin MONITOR dynamic field statistics
(PID.TID 0000.0001) // =======================================================
(PID.TID 0000.0001) %MON time_tsnumber                =                    12
(PID.TID 0000.0001) %MON time_secondsf                =   2.1600000000000E+04
(PID.TID 0000.0001) %MON dynstat_eta_max              =   4.1700062381195E-05
(PID.TID 0000.0001) %MON dynstat_eta_min              =  -1.0126015936738E-05
(PID.TID 0000.0001) %MON dynstat_eta_mean             =   1.5971149926908E-21
(PID.TID 0000.0001) %MON dynstat_eta_sd               =   9.9017678022317E-06
(PID.TID 0000.0001) %MON dynstat_eta_del2             =   2.9681112266515E-06
(PID.TID 0000.0001) %MON dynstat_uvel_max             =   2.0373841069665E-05
(PID.TID 0000.0001) %MON dynstat_uvel_min             =  -1.3094803069485E-04
(PID.TID 0000.0001) %MON dynstat_uvel_mean            =  -9.0593393288565E-09
(PID.TID 0000.0001) %MON dynstat_uvel_sd              =   9.1140966352687E-06
(PID.TID 0000.0001) %MON dynstat_uvel_del2            =   4.3363302985107E-07
(PID.TID 0000.0001) %MON dynstat_vvel_max             =   9.1377536647802E-05
(PID.TID 0000.0001) %MON dynstat_vvel_min             =  -1.5775525203135E-05
(PID.TID 0000.0001) %MON dynstat_vvel_mean            =  -1.0568678164385E-07
(PID.TID 0000.0001) %MON dynstat_vvel_sd              =   5.7658826660757E-06
(PID.TID 0000.0001) %MON dynstat_vvel_del2            =   2.8706347727836E-07
(PID.TID 0000.0001) %MON dynstat_wvel_max             =   6.4254636899585E-07
(PID.TID 0000.0001) %MON dynstat_wvel_min             =  -6.1563322964819E-07
(PID.TID 0000.0001) %MON dynstat_wvel_mean            =  -4.6444000237646E-11
(PID.TID 0000.0001) %MON dynstat_wvel_sd              =   2.3339745261583E-08
(PID.TID 0000.0001) %MON dynstat_wvel_del2            =   5.5199614721575E-09
(PID.TID 0000.0001) %MON dynstat_theta_max            =  -1.9000000000000E+00
(PID.TID 0000.0001) %MON dynstat_theta_min            =  -1.9092848826468E+00
(PID.TID 0000.0001) %MON dynstat_theta_mean           =  -1.9001436527873E+00
(PID.TID 0000.0001) %MON dynstat_theta_sd             =   6.8751721952983E-04
(PID.TID 0000.0001) %MON dynstat_theta_del2           =   9.3830902357840E-06
(PID.TID 0000.0001) %MON dynstat_salt_max             =   3.4400000000000E+01
(PID.TID 0000.0001) %MON dynstat_salt_min             =   3.4396922070424E+01
(PID.TID 0000.0001) %MON dynstat_salt_mean            =   3.4399947841658E+01
(PID.TID 0000.0001) %MON dynstat_salt_sd              =   2.4260357752800E-04
(PID.TID 0000.0001) %MON dynstat_salt_del2            =   3.2687558090644E-06
(PID.TID 0000.0001) %MON extforcing_qnet_max          =   0.0000000000000E+00
(PID.TID 0000.0001) %MON extforcing_qnet_min          =   0.0000000000000E+00
(PID.TID 0000.0001) %MON extforcing_qnet_mean         =   0.0000000000000E+00
(PID.TID 0000.0001) %MON extforcing_qnet_sd           =   0.0000000000000E+00
(PID.TID 0000.0001) %MON extforcing_qnet_del2         =   0.0000000000000E+00
(PID.TID 0000.0001) %MON extforcing_qsw_max           =   0.0000000000000E+00
(PID.TID 0000.0001) %MON extforcing_qsw_min           =   0.0000000000000E+00
(PID.TID 0000.0001) %MON extforcing_qsw_mean          =   0.0000000000000E+00
(PID.TID 0000.0001) %MON extforcing_qsw_sd            =   0.0000000000000E+00
(PID.TID 0000.0001) %MON extforcing_qsw_del2          =   0.0000000000000E+00
(PID.TID 0000.0001) %MON extforcing_empmr_max         =   0.0000000000000E+00
(PID.TID 0000.0001) %MON extforcing_empmr_min         =   0.0000000000000E+00
(PID.TID 0000.0001) %MON extforcing_empmr_mean        =   0.0000000000000E+00
(PID.TID 0000.0001) %MON extforcing_empmr_sd          =   0.0000000000000E+00
(PID.TID 0000.0001) %MON extforcing_empmr_del2        =   0.0000000000000E+00
(PID.TID 0000.0001) %MON extforcing_fu_max            =   0.0000000000000E+00
(PID.TID 0000.0001) %MON extforcing_fu_min            =   0.0000000000000E+00
(PID.TID 0000.0001) %MON extforcing_fu_mean           =   0.0000000000000E+00
(PID.TID 0000.0001) %MON extforcing_fu_sd             =   0.0000000000000E+00
(PID.TID 0000.0001) %MON extforcing_fu_del2           =   0.0000000000000E+00
(PID.TID 0000.0001) %MON extforcing_fv_max            =   0.0000000000000E+00
(PID.TID 0000.0001) %MON extforcing_fv_min            =   0.0000000000000E+00
(PID.TID 0000.0001) %MON extforcing_fv_mean           =   0.0000000000000E+00
(PID.TID 0000.0001) %MON extforcing_fv_sd             =   0.0000000000000E+00
(PID.TID 0000.0001) %MON extforcing_fv_del2           =   0.0000000000000E+00
(PID.TID 0000.0001) %MON advcfl_uvel_max              =   3.8962807181852E-05
(PID.TID 0000.0001) %MON advcfl_vvel_max              =   1.4794324875978E-05
(PID.TID 0000.0001) %MON advcfl_wvel_max              =   3.8552782139751E-05
(PID.TID 0000.0001) %MON advcfl_W_hf_max              =   4.5638517373345E-05
(PID.TID 0000.0001) %MON pe_b_mean                    =  -9.0683344711401E-09
(PID.TID 0000.0001) %MON ke_max                       =   1.0790793692691E-08
(PID.TID 0000.0001) %MON ke_mean                      =   5.7118583337198E-11
(PID.TID 0000.0001) %MON ke_vol                       =   2.9241705273104E+14
(PID.TID 0000.0001) %MON vort_r_min                   =  -1.5314440220681E-08
(PID.TID 0000.0001) %MON vort_r_max                   =   1.5340012885082E-08
(PID.TID 0000.0001) %MON vort_a_mean                  =  -1.4007437271422E-04
(PID.TID 0000.0001) %MON vort_a_sd                    =   1.7682764704989E-06
(PID.TID 0000.0001) %MON vort_p_mean                  =  -1.5039772187983E-04
(PID.TID 0000.0001) %MON vort_p_sd                    =   8.7079857176020E-05
(PID.TID 0000.0001) %MON surfExpan_theta_mean         =  -4.2686203399927E-13
(PID.TID 0000.0001) %MON surfExpan_salt_mean          =  -1.4255338744218E-13
(PID.TID 0000.0001) // =======================================================
(PID.TID 0000.0001) // End MONITOR dynamic field statistics
(PID.TID 0000.0001) // =======================================================
 cg2d: Sum(rhs),rhsMax =   7.99360577730113E-15  1.17314060125896E-04
(PID.TID 0000.0001)                    cg2d_init_res =    2.73486021798505E+00
(PID.TID 0000.0001)                       cg2d_iters =   203
(PID.TID 0000.0001)                         cg2d_res =    7.63480207072059E-14
(PID.TID 0000.0001) // =======================================================
(PID.TID 0000.0001) // Begin MONITOR dynamic field statistics
(PID.TID 0000.0001) // =======================================================
(PID.TID 0000.0001) %MON time_tsnumber                =                    13
(PID.TID 0000.0001) %MON time_secondsf                =   2.3400000000000E+04
(PID.TID 0000.0001) %MON dynstat_eta_max              =   4.4416266362732E-05
(PID.TID 0000.0001) %MON dynstat_eta_min              =  -1.1753951486764E-05
(PID.TID 0000.0001) %MON dynstat_eta_mean             =  -3.1942299853816E-21
(PID.TID 0000.0001) %MON dynstat_eta_sd               =   1.0467838944833E-05
(PID.TID 0000.0001) %MON dynstat_eta_del2             =   3.2208383969631E-06
(PID.TID 0000.0001) %MON dynstat_uvel_max             =   2.3805216211621E-05
(PID.TID 0000.0001) %MON dynstat_uvel_min             =  -1.5259753024891E-04
(PID.TID 0000.0001) %MON dynstat_uvel_mean            =  -6.1207032949058E-09
(PID.TID 0000.0001) %MON dynstat_uvel_sd              =   1.0643811442522E-05
(PID.TID 0000.0001) %MON dynstat_uvel_del2            =   5.0331637511730E-07
(PID.TID 0000.0001) %MON dynstat_vvel_max             =   9.1071249470032E-05
(PID.TID 0000.0001) %MON dynstat_vvel_min             =  -1.6318183876899E-05
(PID.TID 0000.0001) %MON dynstat_vvel_mean            =  -6.3084221558880E-08
(PID.TID 0000.0001) %MON dynstat_vvel_sd              =   5.7036536954919E-06
(PID.TID 0000.0001) %MON dynstat_vvel_del2            =   2.8587412514427E-07
(PID.TID 0000.0001) %MON dynstat_wvel_max             =   7.3533298500537E-07
(PID.TID 0000.0001) %MON dynstat_wvel_min             =  -7.0126653525585E-07
(PID.TID 0000.0001) %MON dynstat_wvel_mean            =  -3.2358675288407E-11
(PID.TID 0000.0001) %MON dynstat_wvel_sd              =   2.5830396024978E-08
(PID.TID 0000.0001) %MON dynstat_wvel_del2            =   5.6281989177805E-09
(PID.TID 0000.0001) %MON dynstat_theta_max            =  -1.9000000000000E+00
(PID.TID 0000.0001) %MON dynstat_theta_min            =  -1.9100492653541E+00
(PID.TID 0000.0001) %MON dynstat_theta_mean           =  -1.9001555242580E+00
(PID.TID 0000.0001) %MON dynstat_theta_sd             =   7.4415004131941E-04
(PID.TID 0000.0001) %MON dynstat_theta_del2           =   1.0149467743942E-05
(PID.TID 0000.0001) %MON dynstat_salt_max             =   3.4400000000000E+01
(PID.TID 0000.0001) %MON dynstat_salt_min             =   3.4396668269120E+01
(PID.TID 0000.0001) %MON dynstat_salt_mean            =   3.4399943528119E+01
(PID.TID 0000.0001) %MON dynstat_salt_sd              =   2.6261158261827E-04
(PID.TID 0000.0001) %MON dynstat_salt_del2            =   3.5360898621676E-06
(PID.TID 0000.0001) %MON extforcing_qnet_max          =   0.0000000000000E+00
(PID.TID 0000.0001) %MON extforcing_qnet_min          =   0.0000000000000E+00
(PID.TID 0000.0001) %MON extforcing_qnet_mean         =   0.0000000000000E+00
(PID.TID 0000.0001) %MON extforcing_qnet_sd           =   0.0000000000000E+00
(PID.TID 0000.0001) %MON extforcing_qnet_del2         =   0.0000000000000E+00
(PID.TID 0000.0001) %MON extforcing_qsw_max           =   0.0000000000000E+00
(PID.TID 0000.0001) %MON extforcing_qsw_min           =   0.0000000000000E+00
(PID.TID 0000.0001) %MON extforcing_qsw_mean          =   0.0000000000000E+00
(PID.TID 0000.0001) %MON extforcing_qsw_sd            =   0.0000000000000E+00
(PID.TID 0000.0001) %MON extforcing_qsw_del2          =   0.0000000000000E+00
(PID.TID 0000.0001) %MON extforcing_empmr_max         =   0.0000000000000E+00
(PID.TID 0000.0001) %MON extforcing_empmr_min         =   0.0000000000000E+00
(PID.TID 0000.0001) %MON extforcing_empmr_mean        =   0.0000000000000E+00
(PID.TID 0000.0001) %MON extforcing_empmr_sd          =   0.0000000000000E+00
(PID.TID 0000.0001) %MON extforcing_empmr_del2        =   0.0000000000000E+00
(PID.TID 0000.0001) %MON extforcing_fu_max            =   0.0000000000000E+00
(PID.TID 0000.0001) %MON extforcing_fu_min            =   0.0000000000000E+00
(PID.TID 0000.0001) %MON extforcing_fu_mean           =   0.0000000000000E+00
(PID.TID 0000.0001) %MON extforcing_fu_sd             =   0.0000000000000E+00
(PID.TID 0000.0001) %MON extforcing_fu_del2           =   0.0000000000000E+00
(PID.TID 0000.0001) %MON extforcing_fv_max            =   0.0000000000000E+00
(PID.TID 0000.0001) %MON extforcing_fv_min            =   0.0000000000000E+00
(PID.TID 0000.0001) %MON extforcing_fv_mean           =   0.0000000000000E+00
(PID.TID 0000.0001) %MON extforcing_fv_sd             =   0.0000000000000E+00
(PID.TID 0000.0001) %MON extforcing_fv_del2           =   0.0000000000000E+00
(PID.TID 0000.0001) %MON advcfl_uvel_max              =   4.5404486924820E-05
(PID.TID 0000.0001) %MON advcfl_vvel_max              =   1.4744735970657E-05
(PID.TID 0000.0001) %MON advcfl_wvel_max              =   4.4119979100322E-05
(PID.TID 0000.0001) %MON advcfl_W_hf_max              =   5.1338639122507E-05
(PID.TID 0000.0001) %MON pe_b_mean                    =  -9.4534176854650E-09
(PID.TID 0000.0001) %MON ke_max                       =   1.3806295353798E-08
(PID.TID 0000.0001) %MON ke_mean                      =   7.1565912233238E-11
(PID.TID 0000.0001) %MON ke_vol                       =   2.9241705273104E+14
(PID.TID 0000.0001) %MON vort_r_min                   =  -1.5237411709011E-08
(PID.TID 0000.0001) %MON vort_r_max                   =   1.5267908526275E-08
(PID.TID 0000.0001) %MON vort_a_mean                  =  -1.4007437272037E-04
(PID.TID 0000.0001) %MON vort_a_sd                    =   1.7682762924443E-06
(PID.TID 0000.0001) %MON vort_p_mean                  =  -1.5039772188644E-04
(PID.TID 0000.0001) %MON vort_p_sd                    =   8.7079629594353E-05
(PID.TID 0000.0001) %MON surfExpan_theta_mean         =  -3.2710970905781E-13
(PID.TID 0000.0001) %MON surfExpan_salt_mean          =  -1.0941930940211E-13
(PID.TID 0000.0001) // =======================================================
(PID.TID 0000.0001) // End MONITOR dynamic field statistics
(PID.TID 0000.0001) // =======================================================
 cg2d: Sum(rhs),rhsMax =   3.81916720471054E-14  1.26625515094894E-04
(PID.TID 0000.0001)                    cg2d_init_res =    2.52963786947447E+00
(PID.TID 0000.0001)                       cg2d_iters =   202
(PID.TID 0000.0001)                         cg2d_res =    9.06474593983778E-14
(PID.TID 0000.0001) // =======================================================
(PID.TID 0000.0001) // Begin MONITOR dynamic field statistics
(PID.TID 0000.0001) // =======================================================
(PID.TID 0000.0001) %MON time_tsnumber                =                    14
(PID.TID 0000.0001) %MON time_secondsf                =   2.5200000000000E+04
(PID.TID 0000.0001) %MON dynstat_eta_max              =   4.6834578537296E-05
(PID.TID 0000.0001) %MON dynstat_eta_min              =  -1.3482286245259E-05
(PID.TID 0000.0001) %MON dynstat_eta_mean             =   4.7913449780724E-21
(PID.TID 0000.0001) %MON dynstat_eta_sd               =   1.0964013661234E-05
(PID.TID 0000.0001) %MON dynstat_eta_del2             =   3.4731075769664E-06
(PID.TID 0000.0001) %MON dynstat_uvel_max             =   2.7112889998203E-05
(PID.TID 0000.0001) %MON dynstat_uvel_min             =  -1.7347259337202E-04
(PID.TID 0000.0001) %MON dynstat_uvel_mean            =  -1.4574015117417E-09
(PID.TID 0000.0001) %MON dynstat_uvel_sd              =   1.2129425342561E-05
(PID.TID 0000.0001) %MON dynstat_uvel_del2            =   5.6714572694014E-07
(PID.TID 0000.0001) %MON dynstat_vvel_max             =   8.8209118638910E-05
(PID.TID 0000.0001) %MON dynstat_vvel_min             =  -1.6410134457888E-05
(PID.TID 0000.0001) %MON dynstat_vvel_mean            =  -3.0429164261796E-08
(PID.TID 0000.0001) %MON dynstat_vvel_sd              =   5.4614605558346E-06
(PID.TID 0000.0001) %MON dynstat_vvel_del2            =   2.7670801232202E-07
(PID.TID 0000.0001) %MON dynstat_wvel_max             =   8.2350212388544E-07
(PID.TID 0000.0001) %MON dynstat_wvel_min             =  -7.8209889149202E-07
(PID.TID 0000.0001) %MON dynstat_wvel_mean            =  -2.1879740578233E-11
(PID.TID 0000.0001) %MON dynstat_wvel_sd              =   2.8184025178203E-08
(PID.TID 0000.0001) %MON dynstat_wvel_del2            =   5.6063375250658E-09
(PID.TID 0000.0001) %MON dynstat_theta_max            =  -1.9000000000000E+00
(PID.TID 0000.0001) %MON dynstat_theta_min            =  -1.9108122431852E+00
(PID.TID 0000.0001) %MON dynstat_theta_mean           =  -1.9001673806701E+00
(PID.TID 0000.0001) %MON dynstat_theta_sd             =   8.0068332372076E-04
(PID.TID 0000.0001) %MON dynstat_theta_del2           =   1.0913511391189E-05
(PID.TID 0000.0001) %MON dynstat_salt_max             =   3.4400000000000E+01
(PID.TID 0000.0001) %MON dynstat_salt_min             =   3.4396414872657E+01
(PID.TID 0000.0001) %MON dynstat_salt_mean            =   3.4399939219576E+01
(PID.TID 0000.0001) %MON dynstat_salt_sd              =   2.8258803761379E-04
(PID.TID 0000.0001) %MON dynstat_salt_del2            =   3.8026630351098E-06
(PID.TID 0000.0001) %MON extforcing_qnet_max          =   0.0000000000000E+00
(PID.TID 0000.0001) %MON extforcing_qnet_min          =   0.0000000000000E+00
(PID.TID 0000.0001) %MON extforcing_qnet_mean         =   0.0000000000000E+00
(PID.TID 0000.0001) %MON extforcing_qnet_sd           =   0.0000000000000E+00
(PID.TID 0000.0001) %MON extforcing_qnet_del2         =   0.0000000000000E+00
(PID.TID 0000.0001) %MON extforcing_qsw_max           =   0.0000000000000E+00
(PID.TID 0000.0001) %MON extforcing_qsw_min           =   0.0000000000000E+00
(PID.TID 0000.0001) %MON extforcing_qsw_mean          =   0.0000000000000E+00
(PID.TID 0000.0001) %MON extforcing_qsw_sd            =   0.0000000000000E+00
(PID.TID 0000.0001) %MON extforcing_qsw_del2          =   0.0000000000000E+00
(PID.TID 0000.0001) %MON extforcing_empmr_max         =   0.0000000000000E+00
(PID.TID 0000.0001) %MON extforcing_empmr_min         =   0.0000000000000E+00
(PID.TID 0000.0001) %MON extforcing_empmr_mean        =   0.0000000000000E+00
(PID.TID 0000.0001) %MON extforcing_empmr_sd          =   0.0000000000000E+00
(PID.TID 0000.0001) %MON extforcing_empmr_del2        =   0.0000000000000E+00
(PID.TID 0000.0001) %MON extforcing_fu_max            =   0.0000000000000E+00
(PID.TID 0000.0001) %MON extforcing_fu_min            =   0.0000000000000E+00
(PID.TID 0000.0001) %MON extforcing_fu_mean           =   0.0000000000000E+00
(PID.TID 0000.0001) %MON extforcing_fu_sd             =   0.0000000000000E+00
(PID.TID 0000.0001) %MON extforcing_fu_del2           =   0.0000000000000E+00
(PID.TID 0000.0001) %MON extforcing_fv_max            =   0.0000000000000E+00
(PID.TID 0000.0001) %MON extforcing_fv_min            =   0.0000000000000E+00
(PID.TID 0000.0001) %MON extforcing_fv_mean           =   0.0000000000000E+00
(PID.TID 0000.0001) %MON extforcing_fv_sd             =   0.0000000000000E+00
(PID.TID 0000.0001) %MON extforcing_fv_del2           =   0.0000000000000E+00
(PID.TID 0000.0001) %MON advcfl_uvel_max              =   5.1615737716902E-05
(PID.TID 0000.0001) %MON advcfl_vvel_max              =   1.4281347539468E-05
(PID.TID 0000.0001) %MON advcfl_wvel_max              =   4.9410127433127E-05
(PID.TID 0000.0001) %MON advcfl_W_hf_max              =   5.6584834906462E-05
(PID.TID 0000.0001) %MON pe_b_mean                    =  -9.7248197140246E-09
(PID.TID 0000.0001) %MON ke_max                       =   1.7024789640671E-08
(PID.TID 0000.0001) %MON ke_mean                      =   8.6799119560701E-11
(PID.TID 0000.0001) %MON ke_vol                       =   2.9241705273104E+14
(PID.TID 0000.0001) %MON vort_r_min                   =  -1.4736297115416E-08
(PID.TID 0000.0001) %MON vort_r_max                   =   1.4761694081734E-08
(PID.TID 0000.0001) %MON vort_a_mean                  =  -1.4007437273125E-04
(PID.TID 0000.0001) %MON vort_a_sd                    =   1.7682761023769E-06
(PID.TID 0000.0001) %MON vort_p_mean                  =  -1.5039772189811E-04
(PID.TID 0000.0001) %MON vort_p_sd                    =   8.7079409088233E-05
(PID.TID 0000.0001) %MON surfExpan_theta_mean         =  -2.4431059255274E-13
(PID.TID 0000.0001) %MON surfExpan_salt_mean          =  -8.1872796062438E-14
(PID.TID 0000.0001) // =======================================================
(PID.TID 0000.0001) // End MONITOR dynamic field statistics
(PID.TID 0000.0001) // =======================================================
 cg2d: Sum(rhs),rhsMax =  -1.28785870856518E-14  1.35938843599930E-04
(PID.TID 0000.0001)                    cg2d_init_res =    2.35260053543715E+00
(PID.TID 0000.0001)                       cg2d_iters =   202
(PID.TID 0000.0001)                         cg2d_res =    9.17062286892346E-14
(PID.TID 0000.0001) // =======================================================
(PID.TID 0000.0001) // Begin MONITOR dynamic field statistics
(PID.TID 0000.0001) // =======================================================
(PID.TID 0000.0001) %MON time_tsnumber                =                    15
(PID.TID 0000.0001) %MON time_secondsf                =   2.7000000000000E+04
(PID.TID 0000.0001) %MON dynstat_eta_max              =   4.9038580932552E-05
(PID.TID 0000.0001) %MON dynstat_eta_min              =  -1.5209339649904E-05
(PID.TID 0000.0001) %MON dynstat_eta_mean             =  -6.9208316349935E-21
(PID.TID 0000.0001) %MON dynstat_eta_sd               =   1.1427422406881E-05
(PID.TID 0000.0001) %MON dynstat_eta_del2             =   3.7249271755159E-06
(PID.TID 0000.0001) %MON dynstat_uvel_max             =   3.0180347908441E-05
(PID.TID 0000.0001) %MON dynstat_uvel_min             =  -1.9293419600661E-04
(PID.TID 0000.0001) %MON dynstat_uvel_mean            =   4.2556010334026E-09
(PID.TID 0000.0001) %MON dynstat_uvel_sd              =   1.3524737612445E-05
(PID.TID 0000.0001) %MON dynstat_uvel_del2            =   6.2314589615440E-07
(PID.TID 0000.0001) %MON dynstat_vvel_max             =   8.3159104906090E-05
(PID.TID 0000.0001) %MON dynstat_vvel_min             =  -1.6168051824330E-05
(PID.TID 0000.0001) %MON dynstat_vvel_mean            =  -1.1685534337664E-08
(PID.TID 0000.0001) %MON dynstat_vvel_sd              =   5.0576285201953E-06
(PID.TID 0000.0001) %MON dynstat_vvel_del2            =   2.6061062508589E-07
(PID.TID 0000.0001) %MON dynstat_wvel_max             =   9.0479993044517E-07
(PID.TID 0000.0001) %MON dynstat_wvel_min             =  -8.5606440453461E-07
(PID.TID 0000.0001) %MON dynstat_wvel_mean            =  -1.6254287376309E-11
(PID.TID 0000.0001) %MON dynstat_wvel_sd              =   3.0368726164333E-08
(PID.TID 0000.0001) %MON dynstat_wvel_del2            =   5.4667650868004E-09
(PID.TID 0000.0001) %MON dynstat_theta_max            =  -1.9000000000000E+00
(PID.TID 0000.0001) %MON dynstat_theta_min            =  -1.9115738212596E+00
(PID.TID 0000.0001) %MON dynstat_theta_mean           =  -1.9001792220538E+00
(PID.TID 0000.0001) %MON dynstat_theta_sd             =   8.5711732924607E-04
(PID.TID 0000.0001) %MON dynstat_theta_del2           =   1.1675229307589E-05
(PID.TID 0000.0001) %MON dynstat_salt_max             =   3.4400000000000E+01
(PID.TID 0000.0001) %MON dynstat_salt_min             =   3.4396161879666E+01
(PID.TID 0000.0001) %MON dynstat_salt_mean            =   3.4399934916017E+01
(PID.TID 0000.0001) %MON dynstat_salt_sd              =   3.0253301555942E-04
(PID.TID 0000.0001) %MON dynstat_salt_del2            =   4.0684777766789E-06
(PID.TID 0000.0001) %MON extforcing_qnet_max          =   0.0000000000000E+00
(PID.TID 0000.0001) %MON extforcing_qnet_min          =   0.0000000000000E+00
(PID.TID 0000.0001) %MON extforcing_qnet_mean         =   0.0000000000000E+00
(PID.TID 0000.0001) %MON extforcing_qnet_sd           =   0.0000000000000E+00
(PID.TID 0000.0001) %MON extforcing_qnet_del2         =   0.0000000000000E+00
(PID.TID 0000.0001) %MON extforcing_qsw_max           =   0.0000000000000E+00
(PID.TID 0000.0001) %MON extforcing_qsw_min           =   0.0000000000000E+00
(PID.TID 0000.0001) %MON extforcing_qsw_mean          =   0.0000000000000E+00
(PID.TID 0000.0001) %MON extforcing_qsw_sd            =   0.0000000000000E+00
(PID.TID 0000.0001) %MON extforcing_qsw_del2          =   0.0000000000000E+00
(PID.TID 0000.0001) %MON extforcing_empmr_max         =   0.0000000000000E+00
(PID.TID 0000.0001) %MON extforcing_empmr_min         =   0.0000000000000E+00
(PID.TID 0000.0001) %MON extforcing_empmr_mean        =   0.0000000000000E+00
(PID.TID 0000.0001) %MON extforcing_empmr_sd          =   0.0000000000000E+00
(PID.TID 0000.0001) %MON extforcing_empmr_del2        =   0.0000000000000E+00
(PID.TID 0000.0001) %MON extforcing_fu_max            =   0.0000000000000E+00
(PID.TID 0000.0001) %MON extforcing_fu_min            =   0.0000000000000E+00
(PID.TID 0000.0001) %MON extforcing_fu_mean           =   0.0000000000000E+00
(PID.TID 0000.0001) %MON extforcing_fu_sd             =   0.0000000000000E+00
(PID.TID 0000.0001) %MON extforcing_fu_del2           =   0.0000000000000E+00
(PID.TID 0000.0001) %MON extforcing_fv_max            =   0.0000000000000E+00
(PID.TID 0000.0001) %MON extforcing_fv_min            =   0.0000000000000E+00
(PID.TID 0000.0001) %MON extforcing_fv_mean           =   0.0000000000000E+00
(PID.TID 0000.0001) %MON extforcing_fv_sd             =   0.0000000000000E+00
(PID.TID 0000.0001) %MON extforcing_fv_del2           =   0.0000000000000E+00
(PID.TID 0000.0001) %MON advcfl_uvel_max              =   5.7406421752987E-05
(PID.TID 0000.0001) %MON advcfl_vvel_max              =   1.3463733642964E-05
(PID.TID 0000.0001) %MON advcfl_wvel_max              =   5.4287995826710E-05
(PID.TID 0000.0001) %MON advcfl_W_hf_max              =   6.1262276688126E-05
(PID.TID 0000.0001) %MON pe_b_mean                    =  -9.9326442700369E-09
(PID.TID 0000.0001) %MON ke_max                       =   2.0304958596278E-08
(PID.TID 0000.0001) %MON ke_mean                      =   1.0223226286913E-10
(PID.TID 0000.0001) %MON ke_vol                       =   2.9241705273104E+14
(PID.TID 0000.0001) %MON vort_r_min                   =  -1.3861655327015E-08
(PID.TID 0000.0001) %MON vort_r_max                   =   1.3872365903865E-08
(PID.TID 0000.0001) %MON vort_a_mean                  =  -1.4007437274483E-04
(PID.TID 0000.0001) %MON vort_a_sd                    =   1.7682759130401E-06
(PID.TID 0000.0001) %MON vort_p_mean                  =  -1.5039772191269E-04
(PID.TID 0000.0001) %MON vort_p_sd                    =   8.7079202526375E-05
(PID.TID 0000.0001) %MON surfExpan_theta_mean         =  -2.0012039214448E-13
(PID.TID 0000.0001) %MON surfExpan_salt_mean          =  -6.7122394404700E-14
(PID.TID 0000.0001) // =======================================================
(PID.TID 0000.0001) // End MONITOR dynamic field statistics
(PID.TID 0000.0001) // =======================================================
 cg2d: Sum(rhs),rhsMax =   1.33226762955019E-14  1.45251267364656E-04
(PID.TID 0000.0001)                    cg2d_init_res =    2.19839017065289E+00
(PID.TID 0000.0001)                       cg2d_iters =   202
(PID.TID 0000.0001)                         cg2d_res =    9.10409898802739E-14
(PID.TID 0000.0001) // =======================================================
(PID.TID 0000.0001) // Begin MONITOR dynamic field statistics
(PID.TID 0000.0001) // =======================================================
(PID.TID 0000.0001) %MON time_tsnumber                =                    16
(PID.TID 0000.0001) %MON time_secondsf                =   2.8800000000000E+04
(PID.TID 0000.0001) %MON dynstat_eta_max              =   5.1130454005316E-05
(PID.TID 0000.0001) %MON dynstat_eta_min              =  -1.6846193859088E-05
(PID.TID 0000.0001) %MON dynstat_eta_mean             =   9.5826899561448E-21
(PID.TID 0000.0001) %MON dynstat_eta_sd               =   1.1896537414432E-05
(PID.TID 0000.0001) %MON dynstat_eta_del2             =   3.9763096592506E-06
(PID.TID 0000.0001) %MON dynstat_uvel_max             =   3.2916771400718E-05
(PID.TID 0000.0001) %MON dynstat_uvel_min             =  -2.1044713066037E-04
(PID.TID 0000.0001) %MON dynstat_uvel_mean            =   1.0235556847198E-08
(PID.TID 0000.0001) %MON dynstat_uvel_sd              =   1.4789911561534E-05
(PID.TID 0000.0001) %MON dynstat_uvel_del2            =   6.6990234737702E-07
(PID.TID 0000.0001) %MON dynstat_vvel_max             =   7.7009766498131E-05
(PID.TID 0000.0001) %MON dynstat_vvel_min             =  -1.5571885707325E-05
(PID.TID 0000.0001) %MON dynstat_vvel_mean            =  -8.7180870327122E-09
(PID.TID 0000.0001) %MON dynstat_vvel_sd              =   4.5212353226391E-06
(PID.TID 0000.0001) %MON dynstat_vvel_del2            =   2.3897772419291E-07
(PID.TID 0000.0001) %MON dynstat_wvel_max             =   9.7749176709941E-07
(PID.TID 0000.0001) %MON dynstat_wvel_min             =  -9.2159199002801E-07
(PID.TID 0000.0001) %MON dynstat_wvel_mean            =  -1.6180578202924E-11
(PID.TID 0000.0001) %MON dynstat_wvel_sd              =   3.2356555818417E-08
(PID.TID 0000.0001) %MON dynstat_wvel_del2            =   5.2292877804669E-09
(PID.TID 0000.0001) %MON dynstat_theta_max            =  -1.9000000000000E+00
(PID.TID 0000.0001) %MON dynstat_theta_min            =  -1.9123340045018E+00
(PID.TID 0000.0001) %MON dynstat_theta_mean           =  -1.9001910484397E+00
(PID.TID 0000.0001) %MON dynstat_theta_sd             =   9.1345231899081E-04
(PID.TID 0000.0001) %MON dynstat_theta_del2           =   1.2434629567720E-05
(PID.TID 0000.0001) %MON dynstat_salt_max             =   3.4400000000000E+01
(PID.TID 0000.0001) %MON dynstat_salt_min             =   3.4395909288837E+01
(PID.TID 0000.0001) %MON dynstat_salt_mean            =   3.4399930617436E+01
(PID.TID 0000.0001) %MON dynstat_salt_sd              =   3.2244658911551E-04
(PID.TID 0000.0001) %MON dynstat_salt_del2            =   4.3335365188006E-06
(PID.TID 0000.0001) %MON extforcing_qnet_max          =   0.0000000000000E+00
(PID.TID 0000.0001) %MON extforcing_qnet_min          =   0.0000000000000E+00
(PID.TID 0000.0001) %MON extforcing_qnet_mean         =   0.0000000000000E+00
(PID.TID 0000.0001) %MON extforcing_qnet_sd           =   0.0000000000000E+00
(PID.TID 0000.0001) %MON extforcing_qnet_del2         =   0.0000000000000E+00
(PID.TID 0000.0001) %MON extforcing_qsw_max           =   0.0000000000000E+00
(PID.TID 0000.0001) %MON extforcing_qsw_min           =   0.0000000000000E+00
(PID.TID 0000.0001) %MON extforcing_qsw_mean          =   0.0000000000000E+00
(PID.TID 0000.0001) %MON extforcing_qsw_sd            =   0.0000000000000E+00
(PID.TID 0000.0001) %MON extforcing_qsw_del2          =   0.0000000000000E+00
(PID.TID 0000.0001) %MON extforcing_empmr_max         =   0.0000000000000E+00
(PID.TID 0000.0001) %MON extforcing_empmr_min         =   0.0000000000000E+00
(PID.TID 0000.0001) %MON extforcing_empmr_mean        =   0.0000000000000E+00
(PID.TID 0000.0001) %MON extforcing_empmr_sd          =   0.0000000000000E+00
(PID.TID 0000.0001) %MON extforcing_empmr_del2        =   0.0000000000000E+00
(PID.TID 0000.0001) %MON extforcing_fu_max            =   0.0000000000000E+00
(PID.TID 0000.0001) %MON extforcing_fu_min            =   0.0000000000000E+00
(PID.TID 0000.0001) %MON extforcing_fu_mean           =   0.0000000000000E+00
(PID.TID 0000.0001) %MON extforcing_fu_sd             =   0.0000000000000E+00
(PID.TID 0000.0001) %MON extforcing_fu_del2           =   0.0000000000000E+00
(PID.TID 0000.0001) %MON extforcing_fv_max            =   0.0000000000000E+00
(PID.TID 0000.0001) %MON extforcing_fv_min            =   0.0000000000000E+00
(PID.TID 0000.0001) %MON extforcing_fv_mean           =   0.0000000000000E+00
(PID.TID 0000.0001) %MON extforcing_fv_sd             =   0.0000000000000E+00
(PID.TID 0000.0001) %MON extforcing_fv_del2           =   0.0000000000000E+00
(PID.TID 0000.0001) %MON advcfl_uvel_max              =   6.2617291229082E-05
(PID.TID 0000.0001) %MON advcfl_vvel_max              =   1.2468135452018E-05
(PID.TID 0000.0001) %MON advcfl_wvel_max              =   5.8649506025965E-05
(PID.TID 0000.0001) %MON advcfl_W_hf_max              =   6.5298650625101E-05
(PID.TID 0000.0001) %MON pe_b_mean                    =  -1.0134166813084E-08
(PID.TID 0000.0001) %MON ke_max                       =   2.3495076962943E-08
(PID.TID 0000.0001) %MON ke_mean                      =   1.1723940204416E-10
(PID.TID 0000.0001) %MON ke_vol                       =   2.9241705273104E+14
(PID.TID 0000.0001) %MON vort_r_min                   =  -1.2687401578742E-08
(PID.TID 0000.0001) %MON vort_r_max                   =   1.2674817534432E-08
(PID.TID 0000.0001) %MON vort_a_mean                  =  -1.4007437275880E-04
(PID.TID 0000.0001) %MON vort_a_sd                    =   1.7682757371990E-06
(PID.TID 0000.0001) %MON vort_p_mean                  =  -1.5039772192770E-04
(PID.TID 0000.0001) %MON vort_p_sd                    =   8.7079015833313E-05
(PID.TID 0000.0001) %MON surfExpan_theta_mean         =  -2.1341109127135E-13
(PID.TID 0000.0001) %MON surfExpan_salt_mean          =  -7.1439350263279E-14
(PID.TID 0000.0001) // =======================================================
(PID.TID 0000.0001) // End MONITOR dynamic field statistics
(PID.TID 0000.0001) // =======================================================
 cg2d: Sum(rhs),rhsMax =   2.04281036531029E-14  1.54556982901575E-04
(PID.TID 0000.0001)                    cg2d_init_res =    2.06296277147728E+00
(PID.TID 0000.0001)                       cg2d_iters =   201
(PID.TID 0000.0001)                         cg2d_res =    9.84602653390256E-14
(PID.TID 0000.0001) // =======================================================
(PID.TID 0000.0001) // Begin MONITOR dynamic field statistics
(PID.TID 0000.0001) // =======================================================
(PID.TID 0000.0001) %MON time_tsnumber                =                    17
(PID.TID 0000.0001) %MON time_secondsf                =   3.0600000000000E+04
(PID.TID 0000.0001) %MON dynstat_eta_max              =   5.3221955589692E-05
(PID.TID 0000.0001) %MON dynstat_eta_min              =  -1.8305200274104E-05
(PID.TID 0000.0001) %MON dynstat_eta_mean             =  -2.6618583211513E-21
(PID.TID 0000.0001) %MON dynstat_eta_sd               =   1.2405929103360E-05
(PID.TID 0000.0001) %MON dynstat_eta_del2             =   4.2272737485626E-06
(PID.TID 0000.0001) %MON dynstat_uvel_max             =   3.5253561043234E-05
(PID.TID 0000.0001) %MON dynstat_uvel_min             =  -2.2561343915798E-04
(PID.TID 0000.0001) %MON dynstat_uvel_mean            =   1.5730344029222E-08
(PID.TID 0000.0001) %MON dynstat_uvel_sd              =   1.5894015116961E-05
(PID.TID 0000.0001) %MON dynstat_uvel_del2            =   7.0668723202438E-07
(PID.TID 0000.0001) %MON dynstat_vvel_max             =   6.9506995448548E-05
(PID.TID 0000.0001) %MON dynstat_vvel_min             =  -1.4658190765017E-05
(PID.TID 0000.0001) %MON dynstat_vvel_mean            =  -2.1251147752906E-08
(PID.TID 0000.0001) %MON dynstat_vvel_sd              =   3.8903022521595E-06
(PID.TID 0000.0001) %MON dynstat_vvel_del2            =   2.1365619043436E-07
(PID.TID 0000.0001) %MON dynstat_wvel_max             =   1.0404560335909E-06
(PID.TID 0000.0001) %MON dynstat_wvel_min             =  -9.8142446920954E-07
(PID.TID 0000.0001) %MON dynstat_wvel_mean            =  -2.1687530585561E-11
(PID.TID 0000.0001) %MON dynstat_wvel_sd              =   3.4124432560545E-08
(PID.TID 0000.0001) %MON dynstat_wvel_del2            =   4.9194295212648E-09
(PID.TID 0000.0001) %MON dynstat_theta_max            =  -1.9000000000000E+00
(PID.TID 0000.0001) %MON dynstat_theta_min            =  -1.9130927975762E+00
(PID.TID 0000.0001) %MON dynstat_theta_mean           =  -1.9002028598577E+00
(PID.TID 0000.0001) %MON dynstat_theta_sd             =   9.6968855272241E-04
(PID.TID 0000.0001) %MON dynstat_theta_del2           =   1.3191720202477E-05
(PID.TID 0000.0001) %MON dynstat_salt_max             =   3.4400000000000E+01
(PID.TID 0000.0001) %MON dynstat_salt_min             =   3.4395657098947E+01
(PID.TID 0000.0001) %MON dynstat_salt_mean            =   3.4399926323823E+01
(PID.TID 0000.0001) %MON dynstat_salt_sd              =   3.4232883058654E-04
(PID.TID 0000.0001) %MON dynstat_salt_del2            =   4.5978416811508E-06
(PID.TID 0000.0001) %MON extforcing_qnet_max          =   0.0000000000000E+00
(PID.TID 0000.0001) %MON extforcing_qnet_min          =   0.0000000000000E+00
(PID.TID 0000.0001) %MON extforcing_qnet_mean         =   0.0000000000000E+00
(PID.TID 0000.0001) %MON extforcing_qnet_sd           =   0.0000000000000E+00
(PID.TID 0000.0001) %MON extforcing_qnet_del2         =   0.0000000000000E+00
(PID.TID 0000.0001) %MON extforcing_qsw_max           =   0.0000000000000E+00
(PID.TID 0000.0001) %MON extforcing_qsw_min           =   0.0000000000000E+00
(PID.TID 0000.0001) %MON extforcing_qsw_mean          =   0.0000000000000E+00
(PID.TID 0000.0001) %MON extforcing_qsw_sd            =   0.0000000000000E+00
(PID.TID 0000.0001) %MON extforcing_qsw_del2          =   0.0000000000000E+00
(PID.TID 0000.0001) %MON extforcing_empmr_max         =   0.0000000000000E+00
(PID.TID 0000.0001) %MON extforcing_empmr_min         =   0.0000000000000E+00
(PID.TID 0000.0001) %MON extforcing_empmr_mean        =   0.0000000000000E+00
(PID.TID 0000.0001) %MON extforcing_empmr_sd          =   0.0000000000000E+00
(PID.TID 0000.0001) %MON extforcing_empmr_del2        =   0.0000000000000E+00
(PID.TID 0000.0001) %MON extforcing_fu_max            =   0.0000000000000E+00
(PID.TID 0000.0001) %MON extforcing_fu_min            =   0.0000000000000E+00
(PID.TID 0000.0001) %MON extforcing_fu_mean           =   0.0000000000000E+00
(PID.TID 0000.0001) %MON extforcing_fu_sd             =   0.0000000000000E+00
(PID.TID 0000.0001) %MON extforcing_fu_del2           =   0.0000000000000E+00
(PID.TID 0000.0001) %MON extforcing_fv_max            =   0.0000000000000E+00
(PID.TID 0000.0001) %MON extforcing_fv_min            =   0.0000000000000E+00
(PID.TID 0000.0001) %MON extforcing_fv_mean           =   0.0000000000000E+00
(PID.TID 0000.0001) %MON extforcing_fv_sd             =   0.0000000000000E+00
(PID.TID 0000.0001) %MON extforcing_fv_del2           =   0.0000000000000E+00
(PID.TID 0000.0001) %MON advcfl_uvel_max              =   6.7129936058619E-05
(PID.TID 0000.0001) %MON advcfl_vvel_max              =   1.1253412047891E-05
(PID.TID 0000.0001) %MON advcfl_wvel_max              =   6.2427362015451E-05
(PID.TID 0000.0001) %MON advcfl_W_hf_max              =   6.8667157572974E-05
(PID.TID 0000.0001) %MON pe_b_mean                    =  -1.0386561580370E-08
(PID.TID 0000.0001) %MON ke_max                       =   2.6450187117089E-08
(PID.TID 0000.0001) %MON ke_mean                      =   1.3121072025159E-10
(PID.TID 0000.0001) %MON ke_vol                       =   2.9241705273104E+14
(PID.TID 0000.0001) %MON vort_r_min                   =  -1.1305393033994E-08
(PID.TID 0000.0001) %MON vort_r_max                   =   1.1262213936508E-08
(PID.TID 0000.0001) %MON vort_a_mean                  =  -1.4007437277097E-04
(PID.TID 0000.0001) %MON vort_a_sd                    =   1.7682755867252E-06
(PID.TID 0000.0001) %MON vort_p_mean                  =  -1.5039772194076E-04
(PID.TID 0000.0001) %MON vort_p_sd                    =   8.7078853620645E-05
(PID.TID 0000.0001) %MON surfExpan_theta_mean         =  -2.9671621754984E-13
(PID.TID 0000.0001) %MON surfExpan_salt_mean          =  -9.8981854806713E-14
(PID.TID 0000.0001) // =======================================================
(PID.TID 0000.0001) // End MONITOR dynamic field statistics
(PID.TID 0000.0001) // =======================================================
 cg2d: Sum(rhs),rhsMax =  -4.44089209850063E-15  1.63846912915603E-04
(PID.TID 0000.0001)                    cg2d_init_res =    1.94320967019614E+00
(PID.TID 0000.0001)                       cg2d_iters =   201
(PID.TID 0000.0001)                         cg2d_res =    8.54123677012079E-14
(PID.TID 0000.0001) // =======================================================
(PID.TID 0000.0001) // Begin MONITOR dynamic field statistics
(PID.TID 0000.0001) // =======================================================
(PID.TID 0000.0001) %MON time_tsnumber                =                    18
(PID.TID 0000.0001) %MON time_secondsf                =   3.2400000000000E+04
(PID.TID 0000.0001) %MON dynstat_eta_max              =   5.5423236010605E-05
(PID.TID 0000.0001) %MON dynstat_eta_min              =  -1.9518995185049E-05
(PID.TID 0000.0001) %MON dynstat_eta_mean             =   7.9855749634540E-21
(PID.TID 0000.0001) %MON dynstat_eta_sd               =   1.2982980060497E-05
(PID.TID 0000.0001) %MON dynstat_eta_del2             =   4.4778386472180E-06
(PID.TID 0000.0001) %MON dynstat_uvel_max             =   3.7148594561940E-05
(PID.TID 0000.0001) %MON dynstat_uvel_min             =  -2.3819594884961E-04
(PID.TID 0000.0001) %MON dynstat_uvel_mean            =   2.0117514491467E-08
(PID.TID 0000.0001) %MON dynstat_uvel_sd              =   1.6816954421317E-05
(PID.TID 0000.0001) %MON dynstat_uvel_del2            =   7.3365315126878E-07
(PID.TID 0000.0001) %MON dynstat_vvel_max             =   6.1231441189113E-05
(PID.TID 0000.0001) %MON dynstat_vvel_min             =  -1.3499923205842E-05
(PID.TID 0000.0001) %MON dynstat_vvel_mean            =  -4.7096280154385E-08
(PID.TID 0000.0001) %MON dynstat_vvel_sd              =   3.2095779410378E-06
(PID.TID 0000.0001) %MON dynstat_vvel_del2            =   1.8661198211154E-07
(PID.TID 0000.0001) %MON dynstat_wvel_max             =   1.0932363759005E-06
(PID.TID 0000.0001) %MON dynstat_wvel_min             =  -1.0459506912985E-06
(PID.TID 0000.0001) %MON dynstat_wvel_mean            =  -3.2109843155433E-11
(PID.TID 0000.0001) %MON dynstat_wvel_sd              =   3.5655708939796E-08
(PID.TID 0000.0001) %MON dynstat_wvel_del2            =   4.5670315341703E-09
(PID.TID 0000.0001) %MON dynstat_theta_max            =  -1.9000000000000E+00
(PID.TID 0000.0001) %MON dynstat_theta_min            =  -1.9138502048422E+00
(PID.TID 0000.0001) %MON dynstat_theta_mean           =  -1.9002146563380E+00
(PID.TID 0000.0001) %MON dynstat_theta_sd             =   1.0258262890377E-03
(PID.TID 0000.0001) %MON dynstat_theta_del2           =   1.3946509211833E-05
(PID.TID 0000.0001) %MON dynstat_salt_max             =   3.4400000000000E+01
(PID.TID 0000.0001) %MON dynstat_salt_min             =   3.4395405308871E+01
(PID.TID 0000.0001) %MON dynstat_salt_mean            =   3.4399922035169E+01
(PID.TID 0000.0001) %MON dynstat_salt_sd              =   3.6217981197222E-04
(PID.TID 0000.0001) %MON dynstat_salt_del2            =   4.8613956762776E-06
(PID.TID 0000.0001) %MON extforcing_qnet_max          =   0.0000000000000E+00
(PID.TID 0000.0001) %MON extforcing_qnet_min          =   0.0000000000000E+00
(PID.TID 0000.0001) %MON extforcing_qnet_mean         =   0.0000000000000E+00
(PID.TID 0000.0001) %MON extforcing_qnet_sd           =   0.0000000000000E+00
(PID.TID 0000.0001) %MON extforcing_qnet_del2         =   0.0000000000000E+00
(PID.TID 0000.0001) %MON extforcing_qsw_max           =   0.0000000000000E+00
(PID.TID 0000.0001) %MON extforcing_qsw_min           =   0.0000000000000E+00
(PID.TID 0000.0001) %MON extforcing_qsw_mean          =   0.0000000000000E+00
(PID.TID 0000.0001) %MON extforcing_qsw_sd            =   0.0000000000000E+00
(PID.TID 0000.0001) %MON extforcing_qsw_del2          =   0.0000000000000E+00
(PID.TID 0000.0001) %MON extforcing_empmr_max         =   0.0000000000000E+00
(PID.TID 0000.0001) %MON extforcing_empmr_min         =   0.0000000000000E+00
(PID.TID 0000.0001) %MON extforcing_empmr_mean        =   0.0000000000000E+00
(PID.TID 0000.0001) %MON extforcing_empmr_sd          =   0.0000000000000E+00
(PID.TID 0000.0001) %MON extforcing_empmr_del2        =   0.0000000000000E+00
(PID.TID 0000.0001) %MON extforcing_fu_max            =   0.0000000000000E+00
(PID.TID 0000.0001) %MON extforcing_fu_min            =   0.0000000000000E+00
(PID.TID 0000.0001) %MON extforcing_fu_mean           =   0.0000000000000E+00
(PID.TID 0000.0001) %MON extforcing_fu_sd             =   0.0000000000000E+00
(PID.TID 0000.0001) %MON extforcing_fu_del2           =   0.0000000000000E+00
(PID.TID 0000.0001) %MON extforcing_fv_max            =   0.0000000000000E+00
(PID.TID 0000.0001) %MON extforcing_fv_min            =   0.0000000000000E+00
(PID.TID 0000.0001) %MON extforcing_fv_mean           =   0.0000000000000E+00
(PID.TID 0000.0001) %MON extforcing_fv_sd             =   0.0000000000000E+00
(PID.TID 0000.0001) %MON extforcing_fv_del2           =   0.0000000000000E+00
(PID.TID 0000.0001) %MON advcfl_uvel_max              =   7.0873786931194E-05
(PID.TID 0000.0001) %MON advcfl_vvel_max              =   9.9135724906616E-06
(PID.TID 0000.0001) %MON advcfl_wvel_max              =   6.5594182554028E-05
(PID.TID 0000.0001) %MON advcfl_W_hf_max              =   7.1386500494743E-05
(PID.TID 0000.0001) %MON pe_b_mean                    =  -1.0739787629066E-08
(PID.TID 0000.0001) %MON ke_max                       =   2.9048530361850E-08
(PID.TID 0000.0001) %MON ke_mean                      =   1.4361060989965E-10
(PID.TID 0000.0001) %MON ke_vol                       =   2.9241705273104E+14
(PID.TID 0000.0001) %MON vort_r_min                   =  -9.8189720528647E-09
(PID.TID 0000.0001) %MON vort_r_max                   =   1.1536783935276E-08
(PID.TID 0000.0001) %MON vort_a_mean                  =  -1.4007437277951E-04
(PID.TID 0000.0001) %MON vort_a_sd                    =   1.7682754701521E-06
(PID.TID 0000.0001) %MON vort_p_mean                  =  -1.5039772194993E-04
(PID.TID 0000.0001) %MON vort_p_sd                    =   8.7078718905904E-05
(PID.TID 0000.0001) %MON surfExpan_theta_mean         =  -4.5340640614686E-13
(PID.TID 0000.0001) %MON surfExpan_salt_mean          =  -1.5086516746467E-13
(PID.TID 0000.0001) // =======================================================
(PID.TID 0000.0001) // End MONITOR dynamic field statistics
(PID.TID 0000.0001) // =======================================================
 cg2d: Sum(rhs),rhsMax =  -4.66293670342566E-14  1.73109190002948E-04
(PID.TID 0000.0001)                    cg2d_init_res =    1.83669498654976E+00
(PID.TID 0000.0001)                       cg2d_iters =   201
(PID.TID 0000.0001)                         cg2d_res =    7.87590019214273E-14
(PID.TID 0000.0001) // =======================================================
(PID.TID 0000.0001) // Begin MONITOR dynamic field statistics
(PID.TID 0000.0001) // =======================================================
(PID.TID 0000.0001) %MON time_tsnumber                =                    19
(PID.TID 0000.0001) %MON time_secondsf                =   3.4200000000000E+04
(PID.TID 0000.0001) %MON dynstat_eta_max              =   5.7830771810752E-05
(PID.TID 0000.0001) %MON dynstat_eta_min              =  -2.0473638185823E-05
(PID.TID 0000.0001) %MON dynstat_eta_mean             =  -1.0647433284605E-21
(PID.TID 0000.0001) %MON dynstat_eta_sd               =   1.3646461225165E-05
(PID.TID 0000.0001) %MON dynstat_eta_del2             =   4.7280238208348E-06
(PID.TID 0000.0001) %MON dynstat_uvel_max             =   3.8588759889864E-05
(PID.TID 0000.0001) %MON dynstat_uvel_min             =  -2.4813131994619E-04
(PID.TID 0000.0001) %MON dynstat_uvel_mean            =   2.2960339608446E-08
(PID.TID 0000.0001) %MON dynstat_uvel_sd              =   1.7550677714606E-05
(PID.TID 0000.0001) %MON dynstat_uvel_del2            =   7.5102958900361E-07
(PID.TID 0000.0001) %MON dynstat_vvel_max             =   5.2803332906673E-05
(PID.TID 0000.0001) %MON dynstat_vvel_min             =  -1.2181873652990E-05
(PID.TID 0000.0001) %MON dynstat_vvel_mean            =  -8.2586108797441E-08
(PID.TID 0000.0001) %MON dynstat_vvel_sd              =   2.5282273263683E-06
(PID.TID 0000.0001) %MON dynstat_vvel_del2            =   1.5966383797242E-07
(PID.TID 0000.0001) %MON dynstat_wvel_max             =   1.1393039998327E-06
(PID.TID 0000.0001) %MON dynstat_wvel_min             =  -1.1008153981281E-06
(PID.TID 0000.0001) %MON dynstat_wvel_mean            =  -4.6172932196131E-11
(PID.TID 0000.0001) %MON dynstat_wvel_sd              =   3.6942277281833E-08
(PID.TID 0000.0001) %MON dynstat_wvel_del2            =   4.2022751916093E-09
(PID.TID 0000.0001) %MON dynstat_theta_max            =  -1.9000000000000E+00
(PID.TID 0000.0001) %MON dynstat_theta_min            =  -1.9146062303308E+00
(PID.TID 0000.0001) %MON dynstat_theta_mean           =  -1.9002264379104E+00
(PID.TID 0000.0001) %MON dynstat_theta_sd             =   1.0818657855670E-03
(PID.TID 0000.0001) %MON dynstat_theta_del2           =   1.4699004578531E-05
(PID.TID 0000.0001) %MON dynstat_salt_max             =   3.4400000000000E+01
(PID.TID 0000.0001) %MON dynstat_salt_min             =   3.4395153917594E+01
(PID.TID 0000.0001) %MON dynstat_salt_mean            =   3.4399917751467E+01
(PID.TID 0000.0001) %MON dynstat_salt_sd              =   3.8199960503375E-04
(PID.TID 0000.0001) %MON dynstat_salt_del2            =   5.1242009149157E-06
(PID.TID 0000.0001) %MON extforcing_qnet_max          =   0.0000000000000E+00
(PID.TID 0000.0001) %MON extforcing_qnet_min          =   0.0000000000000E+00
(PID.TID 0000.0001) %MON extforcing_qnet_mean         =   0.0000000000000E+00
(PID.TID 0000.0001) %MON extforcing_qnet_sd           =   0.0000000000000E+00
(PID.TID 0000.0001) %MON extforcing_qnet_del2         =   0.0000000000000E+00
(PID.TID 0000.0001) %MON extforcing_qsw_max           =   0.0000000000000E+00
(PID.TID 0000.0001) %MON extforcing_qsw_min           =   0.0000000000000E+00
(PID.TID 0000.0001) %MON extforcing_qsw_mean          =   0.0000000000000E+00
(PID.TID 0000.0001) %MON extforcing_qsw_sd            =   0.0000000000000E+00
(PID.TID 0000.0001) %MON extforcing_qsw_del2          =   0.0000000000000E+00
(PID.TID 0000.0001) %MON extforcing_empmr_max         =   0.0000000000000E+00
(PID.TID 0000.0001) %MON extforcing_empmr_min         =   0.0000000000000E+00
(PID.TID 0000.0001) %MON extforcing_empmr_mean        =   0.0000000000000E+00
(PID.TID 0000.0001) %MON extforcing_empmr_sd          =   0.0000000000000E+00
(PID.TID 0000.0001) %MON extforcing_empmr_del2        =   0.0000000000000E+00
(PID.TID 0000.0001) %MON extforcing_fu_max            =   0.0000000000000E+00
(PID.TID 0000.0001) %MON extforcing_fu_min            =   0.0000000000000E+00
(PID.TID 0000.0001) %MON extforcing_fu_mean           =   0.0000000000000E+00
(PID.TID 0000.0001) %MON extforcing_fu_sd             =   0.0000000000000E+00
(PID.TID 0000.0001) %MON extforcing_fu_del2           =   0.0000000000000E+00
(PID.TID 0000.0001) %MON extforcing_fv_max            =   0.0000000000000E+00
(PID.TID 0000.0001) %MON extforcing_fv_min            =   0.0000000000000E+00
(PID.TID 0000.0001) %MON extforcing_fv_mean           =   0.0000000000000E+00
(PID.TID 0000.0001) %MON extforcing_fv_sd             =   0.0000000000000E+00
(PID.TID 0000.0001) %MON extforcing_fv_del2           =   0.0000000000000E+00
(PID.TID 0000.0001) %MON advcfl_uvel_max              =   7.3829997469542E-05
(PID.TID 0000.0001) %MON advcfl_vvel_max              =   8.5490339334347E-06
(PID.TID 0000.0001) %MON advcfl_wvel_max              =   6.8358239989965E-05
(PID.TID 0000.0001) %MON advcfl_W_hf_max              =   7.3517947621164E-05
(PID.TID 0000.0001) %MON pe_b_mean                    =  -1.1230621113539E-08
(PID.TID 0000.0001) %MON ke_max                       =   3.1205240721246E-08
(PID.TID 0000.0001) %MON ke_mean                      =   1.5403205635033E-10
(PID.TID 0000.0001) %MON ke_vol                       =   2.9241705273104E+14
(PID.TID 0000.0001) %MON vort_r_min                   =  -8.3423631325123E-09
(PID.TID 0000.0001) %MON vort_r_max                   =   1.2006724736191E-08
(PID.TID 0000.0001) %MON vort_a_mean                  =  -1.4007437278316E-04
(PID.TID 0000.0001) %MON vort_a_sd                    =   1.7682753934131E-06
(PID.TID 0000.0001) %MON vort_p_mean                  =  -1.5039772195385E-04
(PID.TID 0000.0001) %MON vort_p_sd                    =   8.7078612934558E-05
(PID.TID 0000.0001) %MON surfExpan_theta_mean         =  -6.7631135037866E-13
(PID.TID 0000.0001) %MON surfExpan_salt_mean          =  -2.2471106368100E-13
(PID.TID 0000.0001) // =======================================================
(PID.TID 0000.0001) // End MONITOR dynamic field statistics
(PID.TID 0000.0001) // =======================================================
 cg2d: Sum(rhs),rhsMax =   4.44089209850063E-14  1.82330311514971E-04
(PID.TID 0000.0001)                    cg2d_init_res =    1.74147124386521E+00
(PID.TID 0000.0001)                       cg2d_iters =   201
(PID.TID 0000.0001)                         cg2d_res =    7.73112420850280E-14
(PID.TID 0000.0001) // =======================================================
(PID.TID 0000.0001) // Begin MONITOR dynamic field statistics
(PID.TID 0000.0001) // =======================================================
(PID.TID 0000.0001) %MON time_tsnumber                =                    20
(PID.TID 0000.0001) %MON time_secondsf                =   3.6000000000000E+04
(PID.TID 0000.0001) %MON dynstat_eta_max              =   6.0516464827408E-05
(PID.TID 0000.0001) %MON dynstat_eta_min              =  -2.1236420635000E-05
(PID.TID 0000.0001) %MON dynstat_eta_mean             =   0.0000000000000E+00
(PID.TID 0000.0001) %MON dynstat_eta_sd               =   1.4406152559518E-05
(PID.TID 0000.0001) %MON dynstat_eta_del2             =   4.9778437293037E-06
(PID.TID 0000.0001) %MON dynstat_uvel_max             =   3.9590574163774E-05
(PID.TID 0000.0001) %MON dynstat_uvel_min             =  -2.5552971522432E-04
(PID.TID 0000.0001) %MON dynstat_uvel_mean            =   2.4029165132810E-08
(PID.TID 0000.0001) %MON dynstat_uvel_sd              =   1.8099575940213E-05
(PID.TID 0000.0001) %MON dynstat_uvel_del2            =   7.5991185160309E-07
(PID.TID 0000.0001) %MON dynstat_vvel_max             =   4.4840495958437E-05
(PID.TID 0000.0001) %MON dynstat_vvel_min             =  -1.0795237030779E-05
(PID.TID 0000.0001) %MON dynstat_vvel_mean            =  -1.2313848401911E-07
(PID.TID 0000.0001) %MON dynstat_vvel_sd              =   1.8978565963593E-06
(PID.TID 0000.0001) %MON dynstat_vvel_del2            =   1.3465267352672E-07
(PID.TID 0000.0001) %MON dynstat_wvel_max             =   1.1798030923811E-06
(PID.TID 0000.0001) %MON dynstat_wvel_min             =  -1.1461749545479E-06
(PID.TID 0000.0001) %MON dynstat_wvel_mean            =  -6.2174108130132E-11
(PID.TID 0000.0001) %MON dynstat_wvel_sd              =   3.7986948480020E-08
(PID.TID 0000.0001) %MON dynstat_wvel_del2            =   3.8552364419851E-09
(PID.TID 0000.0001) %MON dynstat_theta_max            =  -1.9000000000000E+00
(PID.TID 0000.0001) %MON dynstat_theta_min            =  -1.9153608777475E+00
(PID.TID 0000.0001) %MON dynstat_theta_mean           =  -1.9002382046049E+00
(PID.TID 0000.0001) %MON dynstat_theta_sd             =   1.1378072991896E-03
(PID.TID 0000.0001) %MON dynstat_theta_del2           =   1.5449214535395E-05
(PID.TID 0000.0001) %MON dynstat_salt_max             =   3.4400000000000E+01
(PID.TID 0000.0001) %MON dynstat_salt_min             =   3.4394902924205E+01
(PID.TID 0000.0001) %MON dynstat_salt_mean            =   3.4399913472707E+01
(PID.TID 0000.0001) %MON dynstat_salt_sd              =   4.0178828136325E-04
(PID.TID 0000.0001) %MON dynstat_salt_del2            =   5.3862599624436E-06
(PID.TID 0000.0001) %MON extforcing_qnet_max          =   0.0000000000000E+00
(PID.TID 0000.0001) %MON extforcing_qnet_min          =   0.0000000000000E+00
(PID.TID 0000.0001) %MON extforcing_qnet_mean         =   0.0000000000000E+00
(PID.TID 0000.0001) %MON extforcing_qnet_sd           =   0.0000000000000E+00
(PID.TID 0000.0001) %MON extforcing_qnet_del2         =   0.0000000000000E+00
(PID.TID 0000.0001) %MON extforcing_qsw_max           =   0.0000000000000E+00
(PID.TID 0000.0001) %MON extforcing_qsw_min           =   0.0000000000000E+00
(PID.TID 0000.0001) %MON extforcing_qsw_mean          =   0.0000000000000E+00
(PID.TID 0000.0001) %MON extforcing_qsw_sd            =   0.0000000000000E+00
(PID.TID 0000.0001) %MON extforcing_qsw_del2          =   0.0000000000000E+00
(PID.TID 0000.0001) %MON extforcing_empmr_max         =   0.0000000000000E+00
(PID.TID 0000.0001) %MON extforcing_empmr_min         =   0.0000000000000E+00
(PID.TID 0000.0001) %MON extforcing_empmr_mean        =   0.0000000000000E+00
(PID.TID 0000.0001) %MON extforcing_empmr_sd          =   0.0000000000000E+00
(PID.TID 0000.0001) %MON extforcing_empmr_del2        =   0.0000000000000E+00
(PID.TID 0000.0001) %MON extforcing_fu_max            =   0.0000000000000E+00
(PID.TID 0000.0001) %MON extforcing_fu_min            =   0.0000000000000E+00
(PID.TID 0000.0001) %MON extforcing_fu_mean           =   0.0000000000000E+00
(PID.TID 0000.0001) %MON extforcing_fu_sd             =   0.0000000000000E+00
(PID.TID 0000.0001) %MON extforcing_fu_del2           =   0.0000000000000E+00
(PID.TID 0000.0001) %MON extforcing_fv_max            =   0.0000000000000E+00
(PID.TID 0000.0001) %MON extforcing_fv_min            =   0.0000000000000E+00
(PID.TID 0000.0001) %MON extforcing_fv_mean           =   0.0000000000000E+00
(PID.TID 0000.0001) %MON extforcing_fv_sd             =   0.0000000000000E+00
(PID.TID 0000.0001) %MON extforcing_fv_del2           =   0.0000000000000E+00
(PID.TID 0000.0001) %MON advcfl_uvel_max              =   7.6031345952198E-05
(PID.TID 0000.0001) %MON advcfl_vvel_max              =   7.2598243413585E-06
(PID.TID 0000.0001) %MON advcfl_wvel_max              =   7.0788185542864E-05
(PID.TID 0000.0001) %MON advcfl_W_hf_max              =   7.5159734144006E-05
(PID.TID 0000.0001) %MON pe_b_mean                    =  -1.1878629604229E-08
(PID.TID 0000.0001) %MON ke_max                       =   3.2881599368184E-08
(PID.TID 0000.0001) %MON ke_mean                      =   1.6224207303746E-10
(PID.TID 0000.0001) %MON ke_vol                       =   2.9241705273104E+14
(PID.TID 0000.0001) %MON vort_r_min                   =  -7.7061005290082E-09
(PID.TID 0000.0001) %MON vort_r_max                   =   1.2426237961956E-08
(PID.TID 0000.0001) %MON vort_a_mean                  =  -1.4007437278132E-04
(PID.TID 0000.0001) %MON vort_a_sd                    =   1.7682753578031E-06
(PID.TID 0000.0001) %MON vort_p_mean                  =  -1.5039772195187E-04
(PID.TID 0000.0001) %MON vort_p_sd                    =   8.7078535114281E-05
(PID.TID 0000.0001) %MON surfExpan_theta_mean         =  -9.4816584218983E-13
(PID.TID 0000.0001) %MON surfExpan_salt_mean          =  -3.1479905847116E-13
(PID.TID 0000.0001) // =======================================================
(PID.TID 0000.0001) // End MONITOR dynamic field statistics
(PID.TID 0000.0001) // =======================================================
(PID.TID 0000.0001) %CHECKPOINT        20 ckptA
(PID.TID 0000.0001)   Seconds in section "ALL                    [THE_MODEL_MAIN]":
(PID.TID 0000.0001)           User time:  31.2299998
(PID.TID 0000.0001)         System time:  1.29999994
(PID.TID 0000.0001)     Wall clock time:  59.208477
(PID.TID 0000.0001)          No. starts: 1
(PID.TID 0000.0001)           No. stops: 1
(PID.TID 0000.0001)   Seconds in section "INITIALISE_FIXED       [THE_MODEL_MAIN]":
(PID.TID 0000.0001)           User time:  1.14999997
(PID.TID 0000.0001)         System time:  0.320000013
(PID.TID 0000.0001)     Wall clock time:  6.35296202
(PID.TID 0000.0001)          No. starts: 1
(PID.TID 0000.0001)           No. stops: 1
(PID.TID 0000.0001)   Seconds in section "THE_MAIN_LOOP          [THE_MODEL_MAIN]":
(PID.TID 0000.0001)           User time:  29.4300002
(PID.TID 0000.0001)         System time:  0.259999961
(PID.TID 0000.0001)     Wall clock time:  34.700377
(PID.TID 0000.0001)          No. starts: 1
(PID.TID 0000.0001)           No. stops: 1
(PID.TID 0000.0001)   Seconds in section "INITIALISE_VARIA    [THE_MAIN_LOOP]":
(PID.TID 0000.0001)           User time:  0.560000062
(PID.TID 0000.0001)         System time:  0.199999958
(PID.TID 0000.0001)     Wall clock time:  3.5225482
(PID.TID 0000.0001)          No. starts: 1
(PID.TID 0000.0001)           No. stops: 1
(PID.TID 0000.0001)   Seconds in section "MAIN LOOP           [THE_MAIN_LOOP]":
(PID.TID 0000.0001)           User time:  28.8700001
(PID.TID 0000.0001)         System time:  0.0600000024
(PID.TID 0000.0001)     Wall clock time:  31.1777389
(PID.TID 0000.0001)          No. starts: 1
(PID.TID 0000.0001)           No. stops: 1
(PID.TID 0000.0001)   Seconds in section "FORWARD_STEP        [THE_MAIN_LOOP]":
(PID.TID 0000.0001)           User time:  28.8700001
(PID.TID 0000.0001)         System time:  0.0600000024
(PID.TID 0000.0001)     Wall clock time:  31.1772342
(PID.TID 0000.0001)          No. starts: 20
(PID.TID 0000.0001)           No. stops: 20
(PID.TID 0000.0001)   Seconds in section "LOAD_FIELDS_DRIVER  [FORWARD_STEP]":
(PID.TID 0000.0001)           User time:  0.
(PID.TID 0000.0001)         System time:  0.
(PID.TID 0000.0001)     Wall clock time:  0.00143933296
(PID.TID 0000.0001)          No. starts: 20
(PID.TID 0000.0001)           No. stops: 20
(PID.TID 0000.0001)   Seconds in section "EXTERNAL_FLDS_LOAD [LOAD_FLDS_DRIVER]":
(PID.TID 0000.0001)           User time:  0.
(PID.TID 0000.0001)         System time:  0.
(PID.TID 0000.0001)     Wall clock time:  0.000480890274
(PID.TID 0000.0001)          No. starts: 20
(PID.TID 0000.0001)           No. stops: 20
(PID.TID 0000.0001)   Seconds in section "DO_ATMOSPHERIC_PHYS [FORWARD_STEP]":
(PID.TID 0000.0001)           User time:  0.
(PID.TID 0000.0001)         System time:  0.
(PID.TID 0000.0001)     Wall clock time:  0.000475406647
(PID.TID 0000.0001)          No. starts: 20
(PID.TID 0000.0001)           No. stops: 20
(PID.TID 0000.0001)   Seconds in section "DO_OCEANIC_PHYS     [FORWARD_STEP]":
(PID.TID 0000.0001)           User time:  0.190001011
(PID.TID 0000.0001)         System time:  0.
(PID.TID 0000.0001)     Wall clock time:  0.177050114
(PID.TID 0000.0001)          No. starts: 20
(PID.TID 0000.0001)           No. stops: 20
(PID.TID 0000.0001)   Seconds in section "SHELFICE_THERMODYNAMICS [DO_OCEANIC_PHYS]":
(PID.TID 0000.0001)           User time:  0.0600013733
(PID.TID 0000.0001)         System time:  0.
(PID.TID 0000.0001)     Wall clock time:  0.0375814438
(PID.TID 0000.0001)          No. starts: 20
(PID.TID 0000.0001)           No. stops: 20
(PID.TID 0000.0001)   Seconds in section "THERMODYNAMICS      [FORWARD_STEP]":
(PID.TID 0000.0001)           User time:  4.2100029
(PID.TID 0000.0001)         System time:  0.0100000501
(PID.TID 0000.0001)     Wall clock time:  4.22840047
(PID.TID 0000.0001)          No. starts: 20
(PID.TID 0000.0001)           No. stops: 20
(PID.TID 0000.0001)   Seconds in section "DYNAMICS            [FORWARD_STEP]":
(PID.TID 0000.0001)           User time:  11.8199985
(PID.TID 0000.0001)         System time:  0.
(PID.TID 0000.0001)     Wall clock time:  11.832269
(PID.TID 0000.0001)          No. starts: 20
(PID.TID 0000.0001)           No. stops: 20
(PID.TID 0000.0001)   Seconds in section "SOLVE_FOR_PRESSURE  [FORWARD_STEP]":
(PID.TID 0000.0001)           User time:  4.95999861
(PID.TID 0000.0001)         System time:  0.
(PID.TID 0000.0001)     Wall clock time:  4.92936563
(PID.TID 0000.0001)          No. starts: 20
(PID.TID 0000.0001)           No. stops: 20
(PID.TID 0000.0001)   Seconds in section "MOM_CORRECTION_STEP [FORWARD_STEP]":
(PID.TID 0000.0001)           User time:  0.809998035
(PID.TID 0000.0001)         System time:  0.
(PID.TID 0000.0001)     Wall clock time:  0.834912062
(PID.TID 0000.0001)          No. starts: 20
(PID.TID 0000.0001)           No. stops: 20
(PID.TID 0000.0001)   Seconds in section "UPDATE_ETAH         [FORWARD_STEP]":
(PID.TID 0000.0001)           User time:  0.
(PID.TID 0000.0001)         System time:  0.
(PID.TID 0000.0001)     Wall clock time:  0.00379896164
(PID.TID 0000.0001)          No. starts: 20
(PID.TID 0000.0001)           No. stops: 20
(PID.TID 0000.0001)   Seconds in section "TRC_CORRECTION_STEP [FORWARD_STEP]":
(PID.TID 0000.0001)           User time:  2.96000338
(PID.TID 0000.0001)         System time:  0.
(PID.TID 0000.0001)     Wall clock time:  2.94856238
(PID.TID 0000.0001)          No. starts: 20
(PID.TID 0000.0001)           No. stops: 20
(PID.TID 0000.0001)   Seconds in section "BLOCKING_EXCHANGES  [FORWARD_STEP]":
(PID.TID 0000.0001)           User time:  0.279995918
(PID.TID 0000.0001)         System time:  0.
(PID.TID 0000.0001)     Wall clock time:  0.3011024
(PID.TID 0000.0001)          No. starts: 20
(PID.TID 0000.0001)           No. stops: 20
(PID.TID 0000.0001)   Seconds in section "DO_STATEVARS_TAVE   [FORWARD_STEP]":
(PID.TID 0000.0001)           User time:  0.
(PID.TID 0000.0001)         System time:  0.
(PID.TID 0000.0001)     Wall clock time:  0.00048494339
(PID.TID 0000.0001)          No. starts: 20
(PID.TID 0000.0001)           No. stops: 20
(PID.TID 0000.0001)   Seconds in section "MONITOR             [FORWARD_STEP]":
(PID.TID 0000.0001)           User time:  3.45000124
(PID.TID 0000.0001)         System time:  0.
(PID.TID 0000.0001)     Wall clock time:  3.45652509
(PID.TID 0000.0001)          No. starts: 20
(PID.TID 0000.0001)           No. stops: 20
(PID.TID 0000.0001)   Seconds in section "DO_THE_MODEL_IO     [FORWARD_STEP]":
(PID.TID 0000.0001)           User time:  0.170000076
(PID.TID 0000.0001)         System time:  0.0499999523
(PID.TID 0000.0001)     Wall clock time:  2.45483279
(PID.TID 0000.0001)          No. starts: 20
(PID.TID 0000.0001)           No. stops: 20
(PID.TID 0000.0001)   Seconds in section "DO_WRITE_PICKUP     [FORWARD_STEP]":
(PID.TID 0000.0001)           User time:  0.
(PID.TID 0000.0001)         System time:  0.
(PID.TID 0000.0001)     Wall clock time:  0.00048327446
(PID.TID 0000.0001)          No. starts: 20
(PID.TID 0000.0001)           No. stops: 20
(PID.TID 0000.0001)   Seconds in section "DO_WRITE_PICKUP        [THE_MODEL_MAIN]":
(PID.TID 0000.0001)           User time:  0.649999619
(PID.TID 0000.0001)         System time:  0.719999969
(PID.TID 0000.0001)     Wall clock time:  18.1550109
(PID.TID 0000.0001)          No. starts: 1
(PID.TID 0000.0001)           No. stops: 1
(PID.TID 0000.0001) // ======================================================
(PID.TID 0000.0001) // Tile <-> Tile communication statistics
(PID.TID 0000.0001) // ======================================================
(PID.TID 0000.0001) // o Tile number: 000001
(PID.TID 0000.0001) //         No. X exchanges =              0
(PID.TID 0000.0001) //            Max. X spins =              0
(PID.TID 0000.0001) //            Min. X spins =     1000000000
(PID.TID 0000.0001) //          Total. X spins =              0
(PID.TID 0000.0001) //            Avg. X spins =       0.00E+00
(PID.TID 0000.0001) //         No. Y exchanges =              0
(PID.TID 0000.0001) //            Max. Y spins =              0
(PID.TID 0000.0001) //            Min. Y spins =     1000000000
(PID.TID 0000.0001) //          Total. Y spins =              0
(PID.TID 0000.0001) //            Avg. Y spins =       0.00E+00
(PID.TID 0000.0001) // o Tile number: 000002
(PID.TID 0000.0001) //         No. X exchanges =              0
(PID.TID 0000.0001) //            Max. X spins =              0
(PID.TID 0000.0001) //            Min. X spins =     1000000000
(PID.TID 0000.0001) //          Total. X spins =              0
(PID.TID 0000.0001) //            Avg. X spins =       0.00E+00
(PID.TID 0000.0001) //         No. Y exchanges =              0
(PID.TID 0000.0001) //            Max. Y spins =              0
(PID.TID 0000.0001) //            Min. Y spins =     1000000000
(PID.TID 0000.0001) //          Total. Y spins =              0
(PID.TID 0000.0001) //            Avg. Y spins =       0.00E+00
(PID.TID 0000.0001) // o Thread number: 000001
(PID.TID 0000.0001) //            No. barriers =          59016
(PID.TID 0000.0001) //      Max. barrier spins =              1
(PID.TID 0000.0001) //      Min. barrier spins =              1
(PID.TID 0000.0001) //     Total barrier spins =          59016
(PID.TID 0000.0001) //      Avg. barrier spins =       1.00E+00
