(PID.TID 0000.0001) 
(PID.TID 0000.0001) // ======================================================
(PID.TID 0000.0001) //                      MITgcm UV
(PID.TID 0000.0001) //                      =========
(PID.TID 0000.0001) // ======================================================
(PID.TID 0000.0001) // execution environment starting up...
(PID.TID 0000.0001) 
(PID.TID 0000.0001) // MITgcmUV version:  checkpoint64p
(PID.TID 0000.0001) // Build user:        jmc
(PID.TID 0000.0001) // Build host:        baudelaire
(PID.TID 0000.0001) // Build date:        Tue Oct 22 09:50:08 EDT 2013
(PID.TID 0000.0001) 
(PID.TID 0000.0001) // =======================================================
(PID.TID 0000.0001) // Execution Environment parameter file "eedata"
(PID.TID 0000.0001) // =======================================================
(PID.TID 0000.0001) ># Example "eedata" file
(PID.TID 0000.0001) ># Lines beginning "#" are comments
(PID.TID 0000.0001) ># nTx - No. threads per process in X
(PID.TID 0000.0001) ># nTy - No. threads per process in Y
(PID.TID 0000.0001) > &EEPARMS
(PID.TID 0000.0001) > /
(PID.TID 0000.0001) ># Note: Some systems use & as the
(PID.TID 0000.0001) ># namelist terminator. Other systems
(PID.TID 0000.0001) ># use a / character (as shown here).
(PID.TID 0000.0001) 
(PID.TID 0000.0001) // =======================================================
(PID.TID 0000.0001) // Computational Grid Specification ( see files "SIZE.h" )
(PID.TID 0000.0001) //                                  ( and "eedata"       )
(PID.TID 0000.0001) // =======================================================
(PID.TID 0000.0001)      nPx =    1 ; /* No. processes in X */
(PID.TID 0000.0001)      nPy =    1 ; /* No. processes in Y */
(PID.TID 0000.0001)      nSx =    2 ; /* No. tiles in X per process */
(PID.TID 0000.0001)      nSy =    4 ; /* No. tiles in Y per process */
(PID.TID 0000.0001)      sNx =   25 ; /* Tile size in X */
(PID.TID 0000.0001)      sNy =   25 ; /* Tile size in Y */
(PID.TID 0000.0001)      OLx =    3 ; /* Tile overlap distance in X */
(PID.TID 0000.0001)      OLy =    3 ; /* Tile overlap distance in Y */
(PID.TID 0000.0001)      nTx =    1 ; /* No. threads in X per process */
(PID.TID 0000.0001)      nTy =    1 ; /* No. threads in Y per process */
(PID.TID 0000.0001)       Nr =   30 ; /* No. levels in the vertical   */
(PID.TID 0000.0001)       Nx =   50 ; /* Total domain size in X ( = nPx*nSx*sNx ) */
(PID.TID 0000.0001)       Ny =  100 ; /* Total domain size in Y ( = nPy*nSy*sNy ) */
(PID.TID 0000.0001)   nTiles =    8 ; /* Total no. tiles per process ( = nSx*nSy ) */
(PID.TID 0000.0001)   nProcs =    1 ; /* Total no. processes ( = nPx*nPy ) */
(PID.TID 0000.0001) nThreads =    1 ; /* Total no. threads per process ( = nTx*nTy ) */
(PID.TID 0000.0001) usingMPI =    F ; /* Flag used to control whether MPI is in use */
(PID.TID 0000.0001)                   /*  note: To execute a program with MPI calls */
(PID.TID 0000.0001)                   /*  it must be launched appropriately e.g     */
(PID.TID 0000.0001)                   /*  "mpirun -np 64 ......"                    */
(PID.TID 0000.0001) useCoupler=    F ;/* Flag used to control communications with   */
(PID.TID 0000.0001)                   /*  other model components, through a coupler */
(PID.TID 0000.0001) debugMode =    F ; /* print debug msg. (sequence of S/R calls)  */
(PID.TID 0000.0001) printMapIncludesZeros=    F ; /* print zeros in Std.Output maps */
(PID.TID 0000.0001) maxLengthPrt1D=   65 /* maxLength of 1D array printed to StdOut */
(PID.TID 0000.0001) 
(PID.TID 0000.0001) // ======================================================
(PID.TID 0000.0001) // Mapping of tiles to threads
(PID.TID 0000.0001) // ======================================================
(PID.TID 0000.0001) // -o- Thread   1, tiles (   1:   2,   1:   4)
(PID.TID 0000.0001) 
(PID.TID 0000.0001) // ======================================================
(PID.TID 0000.0001) // Tile <-> Tile connectvity table
(PID.TID 0000.0001) // ======================================================
(PID.TID 0000.0001) // Tile number: 000001 (process no. = 000000)
(PID.TID 0000.0001) //        WEST: Tile = 000002, Process = 000000, Comm = put
(PID.TID 0000.0001) //                bi = 000002, bj = 000001
(PID.TID 0000.0001) //        EAST: Tile = 000002, Process = 000000, Comm = put
(PID.TID 0000.0001) //                bi = 000002, bj = 000001
(PID.TID 0000.0001) //       SOUTH: Tile = 000007, Process = 000000, Comm = put
(PID.TID 0000.0001) //                bi = 000001, bj = 000004
(PID.TID 0000.0001) //       NORTH: Tile = 000003, Process = 000000, Comm = put
(PID.TID 0000.0001) //                bi = 000001, bj = 000002
(PID.TID 0000.0001) // Tile number: 000002 (process no. = 000000)
(PID.TID 0000.0001) //        WEST: Tile = 000001, Process = 000000, Comm = put
(PID.TID 0000.0001) //                bi = 000001, bj = 000001
(PID.TID 0000.0001) //        EAST: Tile = 000001, Process = 000000, Comm = put
(PID.TID 0000.0001) //                bi = 000001, bj = 000001
(PID.TID 0000.0001) //       SOUTH: Tile = 000008, Process = 000000, Comm = put
(PID.TID 0000.0001) //                bi = 000002, bj = 000004
(PID.TID 0000.0001) //       NORTH: Tile = 000004, Process = 000000, Comm = put
(PID.TID 0000.0001) //                bi = 000002, bj = 000002
(PID.TID 0000.0001) // Tile number: 000003 (process no. = 000000)
(PID.TID 0000.0001) //        WEST: Tile = 000004, Process = 000000, Comm = put
(PID.TID 0000.0001) //                bi = 000002, bj = 000002
(PID.TID 0000.0001) //        EAST: Tile = 000004, Process = 000000, Comm = put
(PID.TID 0000.0001) //                bi = 000002, bj = 000002
(PID.TID 0000.0001) //       SOUTH: Tile = 000001, Process = 000000, Comm = put
(PID.TID 0000.0001) //                bi = 000001, bj = 000001
(PID.TID 0000.0001) //       NORTH: Tile = 000005, Process = 000000, Comm = put
(PID.TID 0000.0001) //                bi = 000001, bj = 000003
(PID.TID 0000.0001) // Tile number: 000004 (process no. = 000000)
(PID.TID 0000.0001) //        WEST: Tile = 000003, Process = 000000, Comm = put
(PID.TID 0000.0001) //                bi = 000001, bj = 000002
(PID.TID 0000.0001) //        EAST: Tile = 000003, Process = 000000, Comm = put
(PID.TID 0000.0001) //                bi = 000001, bj = 000002
(PID.TID 0000.0001) //       SOUTH: Tile = 000002, Process = 000000, Comm = put
(PID.TID 0000.0001) //                bi = 000002, bj = 000001
(PID.TID 0000.0001) //       NORTH: Tile = 000006, Process = 000000, Comm = put
(PID.TID 0000.0001) //                bi = 000002, bj = 000003
(PID.TID 0000.0001) // Tile number: 000005 (process no. = 000000)
(PID.TID 0000.0001) //        WEST: Tile = 000006, Process = 000000, Comm = put
(PID.TID 0000.0001) //                bi = 000002, bj = 000003
(PID.TID 0000.0001) //        EAST: Tile = 000006, Process = 000000, Comm = put
(PID.TID 0000.0001) //                bi = 000002, bj = 000003
(PID.TID 0000.0001) //       SOUTH: Tile = 000003, Process = 000000, Comm = put
(PID.TID 0000.0001) //                bi = 000001, bj = 000002
(PID.TID 0000.0001) //       NORTH: Tile = 000007, Process = 000000, Comm = put
(PID.TID 0000.0001) //                bi = 000001, bj = 000004
(PID.TID 0000.0001) // Tile number: 000006 (process no. = 000000)
(PID.TID 0000.0001) //        WEST: Tile = 000005, Process = 000000, Comm = put
(PID.TID 0000.0001) //                bi = 000001, bj = 000003
(PID.TID 0000.0001) //        EAST: Tile = 000005, Process = 000000, Comm = put
(PID.TID 0000.0001) //                bi = 000001, bj = 000003
(PID.TID 0000.0001) //       SOUTH: Tile = 000004, Process = 000000, Comm = put
(PID.TID 0000.0001) //                bi = 000002, bj = 000002
(PID.TID 0000.0001) //       NORTH: Tile = 000008, Process = 000000, Comm = put
(PID.TID 0000.0001) //                bi = 000002, bj = 000004
(PID.TID 0000.0001) // Tile number: 000007 (process no. = 000000)
(PID.TID 0000.0001) //        WEST: Tile = 000008, Process = 000000, Comm = put
(PID.TID 0000.0001) //                bi = 000002, bj = 000004
(PID.TID 0000.0001) //        EAST: Tile = 000008, Process = 000000, Comm = put
(PID.TID 0000.0001) //                bi = 000002, bj = 000004
(PID.TID 0000.0001) //       SOUTH: Tile = 000005, Process = 000000, Comm = put
(PID.TID 0000.0001) //                bi = 000001, bj = 000003
(PID.TID 0000.0001) //       NORTH: Tile = 000001, Process = 000000, Comm = put
(PID.TID 0000.0001) //                bi = 000001, bj = 000001
(PID.TID 0000.0001) // Tile number: 000008 (process no. = 000000)
(PID.TID 0000.0001) //        WEST: Tile = 000007, Process = 000000, Comm = put
(PID.TID 0000.0001) //                bi = 000001, bj = 000004
(PID.TID 0000.0001) //        EAST: Tile = 000007, Process = 000000, Comm = put
(PID.TID 0000.0001) //                bi = 000001, bj = 000004
(PID.TID 0000.0001) //       SOUTH: Tile = 000006, Process = 000000, Comm = put
(PID.TID 0000.0001) //                bi = 000002, bj = 000003
(PID.TID 0000.0001) //       NORTH: Tile = 000002, Process = 000000, Comm = put
(PID.TID 0000.0001) //                bi = 000002, bj = 000001
(PID.TID 0000.0001) 
(PID.TID 0000.0001)  INI_PARMS: opening model parameter file "data"
(PID.TID 0000.0001)  OPEN_COPY_DATA_FILE: opening file data
(PID.TID 0000.0001) // =======================================================
(PID.TID 0000.0001) // Parameter file "data"
(PID.TID 0000.0001) // =======================================================
(PID.TID 0000.0001) ># ====================
(PID.TID 0000.0001) ># | Model parameters |
(PID.TID 0000.0001) ># ====================
(PID.TID 0000.0001) >#
(PID.TID 0000.0001) ># Continuous equation parameters
(PID.TID 0000.0001) > &PARM01
(PID.TID 0000.0001) > Tref = 30*-1.9,
(PID.TID 0000.0001) > Sref = 30*34.4,
(PID.TID 0000.0001) > viscAz=1.E-3,
(PID.TID 0000.0001) > viscAh=600.0,
(PID.TID 0000.0001) > no_slip_sides=.FALSE.,
(PID.TID 0000.0001) > no_slip_bottom=.FALSE.,
(PID.TID 0000.0001) > diffKhT=100.0,
(PID.TID 0000.0001) > diffKzT=5.E-5,
(PID.TID 0000.0001) > diffKhS=100.0,
(PID.TID 0000.0001) > diffKzS=5.E-5,
(PID.TID 0000.0001) > bottomDragQuadratic=2.5E-3,
(PID.TID 0000.0001) > eosType='JMD95Z',
(PID.TID 0000.0001) > HeatCapacity_cp = 3974.0,
(PID.TID 0000.0001) > rhoConst=1030.,
(PID.TID 0000.0001) > rhoNil=1030.,
(PID.TID 0000.0001) > gravity=9.81,
(PID.TID 0000.0001) > convertFW2Salt = 33.4,
(PID.TID 0000.0001) > rigidLid=.FALSE.,
(PID.TID 0000.0001) > implicitFreeSurface=.TRUE.,
(PID.TID 0000.0001) > exactConserv=.TRUE.,
(PID.TID 0000.0001) > hFacMin=0.05,
(PID.TID 0000.0001) > nonHydrostatic=.FALSE.,
(PID.TID 0000.0001) > readBinaryPrec=64,
(PID.TID 0000.0001) > useCDScheme = .TRUE.,
(PID.TID 0000.0001) > /
(PID.TID 0000.0001) >
(PID.TID 0000.0001) ># Elliptic solver parameters
(PID.TID 0000.0001) > &PARM02
(PID.TID 0000.0001) > cg2dMaxIters=1000,
(PID.TID 0000.0001) > cg2dTargetResidual=1.E-13,
(PID.TID 0000.0001) > cg3dMaxIters=400,
(PID.TID 0000.0001) > cg3dTargetResidual=1.E-13,
(PID.TID 0000.0001) > /
(PID.TID 0000.0001) >
(PID.TID 0000.0001) ># Time stepping parameters
(PID.TID 0000.0001) > &PARM03
(PID.TID 0000.0001) > nIter0=0,
(PID.TID 0000.0001) > nTimeSteps=20,
(PID.TID 0000.0001) > deltaT=1800.0,
(PID.TID 0000.0001) > abEps=0.1,
(PID.TID 0000.0001) > cAdjFreq = -1.,
(PID.TID 0000.0001) > tauCD = 400000.,
(PID.TID 0000.0001) > pChkptFreq=0.0,
(PID.TID 0000.0001) > chkptFreq=0.0,
(PID.TID 0000.0001) > dumpFreq=0.0,
(PID.TID 0000.0001) > taveFreq=0.0,
(PID.TID 0000.0001) > monitorFreq=1.,
(PID.TID 0000.0001) > monitorSelect=2,
(PID.TID 0000.0001) > /
(PID.TID 0000.0001) >
(PID.TID 0000.0001) ># Gridding parameters
(PID.TID 0000.0001) > &PARM04
(PID.TID 0000.0001) > usingSphericalPolarGrid=.TRUE.,
(PID.TID 0000.0001) > ygOrigin = -80.0,
(PID.TID 0000.0001) > delX=50*0.3,
(PID.TID 0000.0001) > delY=100*0.1,
(PID.TID 0000.0001) > delZ=30*30.0,
(PID.TID 0000.0001) > /
(PID.TID 0000.0001) >
(PID.TID 0000.0001) ># Input datasets
(PID.TID 0000.0001) > &PARM05
(PID.TID 0000.0001) > bathyFile='bathy.box',
(PID.TID 0000.0001) > /
(PID.TID 0000.0001) 
(PID.TID 0000.0001)  INI_PARMS ; starts to read PARM01
(PID.TID 0000.0001)  INI_PARMS ; read PARM01 : OK
(PID.TID 0000.0001)  INI_PARMS ; starts to read PARM02
(PID.TID 0000.0001)  INI_PARMS ; read PARM02 : OK
(PID.TID 0000.0001)  INI_PARMS ; starts to read PARM03
(PID.TID 0000.0001)  INI_PARMS ; read PARM03 : OK
(PID.TID 0000.0001)  INI_PARMS ; starts to read PARM04
(PID.TID 0000.0001)  INI_PARMS ; read PARM04 : OK
(PID.TID 0000.0001)  INI_PARMS ; starts to read PARM05
(PID.TID 0000.0001)  INI_PARMS ; read PARM05 : OK
(PID.TID 0000.0001)  INI_PARMS: finished reading file "data"
(PID.TID 0000.0001)  PACKAGES_BOOT: opening data.pkg
(PID.TID 0000.0001)  OPEN_COPY_DATA_FILE: opening file data.pkg
(PID.TID 0000.0001) // =======================================================
(PID.TID 0000.0001) // Parameter file "data.pkg"
(PID.TID 0000.0001) // =======================================================
(PID.TID 0000.0001) ># Packages
(PID.TID 0000.0001) > &PACKAGES
(PID.TID 0000.0001) > useDiagnostics = .TRUE.,
(PID.TID 0000.0001) > useShelfIce=.true.,
(PID.TID 0000.0001) > useIcefront=.true.,
(PID.TID 0000.0001) > /
(PID.TID 0000.0001) 
(PID.TID 0000.0001)  PACKAGES_BOOT: finished reading data.pkg
(PID.TID 0000.0001)  SHELFICE_READPARMS: opening data.shelfice
(PID.TID 0000.0001)  OPEN_COPY_DATA_FILE: opening file data.shelfice
(PID.TID 0000.0001) // =======================================================
(PID.TID 0000.0001) // Parameter file "data.shelfice"
(PID.TID 0000.0001) // =======================================================
(PID.TID 0000.0001) ># ===================================
(PID.TID 0000.0001) ># | Parameters for SHELFICE package |
(PID.TID 0000.0001) ># ===================================
(PID.TID 0000.0001) > &SHELFICE_PARM01
(PID.TID 0000.0001) > SHELFICEboundaryLayer = .TRUE.,
(PID.TID 0000.0001) > SHELFICEtopoFile='icetopo.exp1',
(PID.TID 0000.0001) > SHELFICEloadAnomalyFile = 'phi0surf.exp1.jmd95z',
(PID.TID 0000.0001) > SHELFICEconserve = .true.,
(PID.TID 0000.0001) > useISOMIPTD = .FALSE.,
(PID.TID 0000.0001) > no_slip_shelfice = .false.,
(PID.TID 0000.0001) > SHELFICEwriteState = .TRUE.,
(PID.TID 0000.0001) > /
(PID.TID 0000.0001) 
(PID.TID 0000.0001)  SHELFICE_READPARMS: finished reading data.shelfice
(PID.TID 0000.0001)  ICEFRONT_READPARMS: opening data.icefront
(PID.TID 0000.0001)  OPEN_COPY_DATA_FILE: opening file data.icefront
(PID.TID 0000.0001) // =======================================================
(PID.TID 0000.0001) // Parameter file "data.icefront"
(PID.TID 0000.0001) // =======================================================
(PID.TID 0000.0001) ># ===================================
(PID.TID 0000.0001) ># | Parameters for ICEFRONT package |
(PID.TID 0000.0001) ># ===================================
(PID.TID 0000.0001) > &ICEFRONT_PARM01
(PID.TID 0000.0001) > ICEFRONTdepthFile='frontdepth.xuyun',
(PID.TID 0000.0001) > ICEFRONTlengthFile = 'frontcircum.xuyun',
(PID.TID 0000.0001) > applyIcefrontTendT = .true.,
(PID.TID 0000.0001) > applyIcefrontTendS = .true.,
(PID.TID 0000.0001) > /
(PID.TID 0000.0001) 
(PID.TID 0000.0001)  ICEFRONT_READPARMS: finished reading data.icefront
(PID.TID 0000.0001)  DIAGNOSTICS_READPARMS: opening data.diagnostics
(PID.TID 0000.0001)  OPEN_COPY_DATA_FILE: opening file data.diagnostics
(PID.TID 0000.0001) // =======================================================
(PID.TID 0000.0001) // Parameter file "data.diagnostics"
(PID.TID 0000.0001) // =======================================================
(PID.TID 0000.0001) ># Diagnostic Package Choices
(PID.TID 0000.0001) >#--------------------
(PID.TID 0000.0001) >#  dumpAtLast (logical): always write output at the end of simulation (default=F)
(PID.TID 0000.0001) >#  diag_mnc   (logical): write to NetCDF files (default=useMNC)
(PID.TID 0000.0001) >#--for each output-stream:
(PID.TID 0000.0001) >#  fileName(n) : prefix of the output file name (max 80c long) for outp.stream n
(PID.TID 0000.0001) >#  frequency(n):< 0 : write snap-shot output every |frequency| seconds
(PID.TID 0000.0001) >#               > 0 : write time-average output every frequency seconds
(PID.TID 0000.0001) >#  timePhase(n)     : write at time = timePhase + multiple of |frequency|
(PID.TID 0000.0001) >#    averagingFreq  : frequency (in s) for periodic averaging interval
(PID.TID 0000.0001) >#    averagingPhase : phase     (in s) for periodic averaging interval
(PID.TID 0000.0001) >#    repeatCycle    : number of averaging intervals in 1 cycle
(PID.TID 0000.0001) >#  levels(:,n) : list of levels to write to file (Notes: declared as REAL)
(PID.TID 0000.0001) >#                when this entry is missing, select all common levels of this list
(PID.TID 0000.0001) >#  fields(:,n) : list of selected diagnostics fields (8.c) in outp.stream n
(PID.TID 0000.0001) >#                (see "available_diagnostics.log" file for the full list of diags)
(PID.TID 0000.0001) >#  missing_value(n) : missing value for real-type fields in output file "n"
(PID.TID 0000.0001) >#  fileFlags(n)     : specific code (8c string) for output file "n"
(PID.TID 0000.0001) >#--------------------
(PID.TID 0000.0001) > &DIAGNOSTICS_LIST
(PID.TID 0000.0001) >  fields(1:2,1)  = 'SHIfwFlx','SHIhtFlx',
(PID.TID 0000.0001) >   fileName(1) = 'shelficeDiag',
(PID.TID 0000.0001) >  frequency(1) = 18000.,
(PID.TID 0000.0001) >  fields(1:2,2)  = 'ICFfwFlx','ICFhtFlx',
(PID.TID 0000.0001) >   fileName(2) = 'icefrontDiag',
(PID.TID 0000.0001) >  frequency(2) = 18000.,
(PID.TID 0000.0001) > /
(PID.TID 0000.0001) >
(PID.TID 0000.0001) >#--------------------
(PID.TID 0000.0001) ># Parameter for Diagnostics of per level statistics:
(PID.TID 0000.0001) >#--------------------
(PID.TID 0000.0001) >#  diagSt_mnc (logical): write stat-diags to NetCDF files (default=diag_mnc)
(PID.TID 0000.0001) >#  diagSt_regMaskFile : file containing the region-mask to read-in
(PID.TID 0000.0001) >#  nSetRegMskFile   : number of region-mask sets within the region-mask file
(PID.TID 0000.0001) >#  set_regMask(i)   : region-mask set-index that identifies the region "i"
(PID.TID 0000.0001) >#  val_regMask(i)   : region "i" identifier value in the region mask
(PID.TID 0000.0001) >#--for each output-stream:
(PID.TID 0000.0001) >#  stat_fName(n) : prefix of the output file name (max 80c long) for outp.stream n
(PID.TID 0000.0001) >#  stat_freq(n):< 0 : write snap-shot output every |stat_freq| seconds
(PID.TID 0000.0001) >#               > 0 : write time-average output every stat_freq seconds
(PID.TID 0000.0001) >#  stat_phase(n)    : write at time = stat_phase + multiple of |stat_freq|
(PID.TID 0000.0001) >#  stat_region(:,n) : list of "regions" (default: 1 region only=global)
(PID.TID 0000.0001) >#  stat_fields(:,n) : list of selected diagnostics fields (8.c) in outp.stream n
(PID.TID 0000.0001) >#                (see "available_diagnostics.log" file for the full list of diags)
(PID.TID 0000.0001) >#--------------------
(PID.TID 0000.0001) > &DIAG_STATIS_PARMS
(PID.TID 0000.0001) >#stat_fields(1:5,1)  = 'ETAN    ','UVEL    ','VVEL    ','WVEL    ', 'THETA   ',
(PID.TID 0000.0001) ># stat_fName(1) = 'dynStDiag',
(PID.TID 0000.0001) >#  stat_freq(1) = -3600.,
(PID.TID 0000.0001) ># stat_phase(1) = 0.,
(PID.TID 0000.0001) > /
(PID.TID 0000.0001) 
(PID.TID 0000.0001) S/R DIAGNOSTICS_READPARMS, read namelist "diagnostics_list": start
(PID.TID 0000.0001) S/R DIAGNOSTICS_READPARMS, read namelist "diagnostics_list": OK
(PID.TID 0000.0001) S/R DIAGNOSTICS_READPARMS, read namelist "DIAG_STATIS_PARMS": start
(PID.TID 0000.0001) S/R DIAGNOSTICS_READPARMS, read namelist "DIAG_STATIS_PARMS": OK
(PID.TID 0000.0001)  DIAGNOSTICS_READPARMS: global parameter summary:
(PID.TID 0000.0001)  dumpAtLast = /* always write time-ave diags at the end */
(PID.TID 0000.0001)                   F
(PID.TID 0000.0001)     ;
(PID.TID 0000.0001)  diag_mnc =   /* write NetCDF output files */
(PID.TID 0000.0001)                   F
(PID.TID 0000.0001)     ;
(PID.TID 0000.0001)  useMissingValue = /* put MissingValue where mask = 0 */
(PID.TID 0000.0001)                   F
(PID.TID 0000.0001)     ;
(PID.TID 0000.0001)  diagCG_maxIters = /* max number of iters in diag_cg2d */
(PID.TID 0000.0001)                    1000
(PID.TID 0000.0001)     ;
(PID.TID 0000.0001)  diagCG_resTarget = /* residual target for diag_cg2d */
(PID.TID 0000.0001)                 1.000000000000000E-13
(PID.TID 0000.0001)     ;
(PID.TID 0000.0001) -----------------------------------------------------
(PID.TID 0000.0001)  DIAGNOSTICS_READPARMS: active diagnostics summary:
(PID.TID 0000.0001) -----------------------------------------------------
(PID.TID 0000.0001) Creating Output Stream: shelficeDiag
(PID.TID 0000.0001) Output Frequency:      18000.000000 ; Phase:           0.000000
(PID.TID 0000.0001)  Averaging Freq.:      18000.000000 , Phase:           0.000000 , Cycle:   1
(PID.TID 0000.0001)  missing value: -9.990000000000E+02
(PID.TID 0000.0001)  Levels:    will be set later
(PID.TID 0000.0001)  Fields:    SHIfwFlx SHIhtFlx
(PID.TID 0000.0001) Creating Output Stream: icefrontDiag
(PID.TID 0000.0001) Output Frequency:      18000.000000 ; Phase:           0.000000
(PID.TID 0000.0001)  Averaging Freq.:      18000.000000 , Phase:           0.000000 , Cycle:   1
(PID.TID 0000.0001)  missing value: -9.990000000000E+02
(PID.TID 0000.0001)  Levels:    will be set later
(PID.TID 0000.0001)  Fields:    ICFfwFlx ICFhtFlx
(PID.TID 0000.0001) -----------------------------------------------------
(PID.TID 0000.0001)  DIAGNOSTICS_READPARMS: statistics diags. summary:
(PID.TID 0000.0001) -----------------------------------------------------
(PID.TID 0000.0001) 
(PID.TID 0000.0001) SET_PARMS: done
(PID.TID 0000.0001) Enter INI_VERTICAL_GRID: setInterFDr=    T ; setCenterDr=    F
(PID.TID 0000.0001) %MON XC_max                       =   1.4850000000000E+01
(PID.TID 0000.0001) %MON XC_min                       =   1.5000000000000E-01
(PID.TID 0000.0001) %MON XC_mean                      =   7.5000000000000E+00
(PID.TID 0000.0001) %MON XC_sd                        =   4.3292609068985E+00
(PID.TID 0000.0001) %MON XG_max                       =   1.4700000000000E+01
(PID.TID 0000.0001) %MON XG_min                       =   1.1102230246252E-16
(PID.TID 0000.0001) %MON XG_mean                      =   7.3500000000000E+00
(PID.TID 0000.0001) %MON XG_sd                        =   4.3292609068985E+00
(PID.TID 0000.0001) %MON DXC_max                      =   1.1380125394806E+04
(PID.TID 0000.0001) %MON DXC_min                      =   5.8203914905589E+03
(PID.TID 0000.0001) %MON DXC_mean                     =   8.6215028627207E+03
(PID.TID 0000.0001) %MON DXC_sd                       =   1.6219001271572E+03
(PID.TID 0000.0001) %MON DXF_max                      =   1.1380125394806E+04
(PID.TID 0000.0001) %MON DXF_min                      =   5.8203914905589E+03
(PID.TID 0000.0001) %MON DXF_mean                     =   8.6215028627207E+03
(PID.TID 0000.0001) %MON DXF_sd                       =   1.6219001271572E+03
(PID.TID 0000.0001) %MON DXG_max                      =   1.1352761512017E+04
(PID.TID 0000.0001) %MON DXG_min                      =   5.7917296935586E+03
(PID.TID 0000.0001) %MON DXG_mean                     =   8.5934208253080E+03
(PID.TID 0000.0001) %MON DXG_sd                       =   1.6222785520817E+03
(PID.TID 0000.0001) %MON DXV_max                      =   1.1352761512017E+04
(PID.TID 0000.0001) %MON DXV_min                      =   5.7917296935586E+03
(PID.TID 0000.0001) %MON DXV_mean                     =   8.5934208253080E+03
(PID.TID 0000.0001) %MON DXV_sd                       =   1.6222785520817E+03
(PID.TID 0000.0001) %MON YC_max                       =  -7.0050000000001E+01
(PID.TID 0000.0001) %MON YC_min                       =  -7.9950000000000E+01
(PID.TID 0000.0001) %MON YC_mean                      =  -7.5000000000000E+01
(PID.TID 0000.0001) %MON YC_sd                        =   2.8866070047720E+00
(PID.TID 0000.0001) %MON YG_max                       =  -7.0100000000001E+01
(PID.TID 0000.0001) %MON YG_min                       =  -8.0000000000000E+01
(PID.TID 0000.0001) %MON YG_mean                      =  -7.5050000000000E+01
(PID.TID 0000.0001) %MON YG_sd                        =   2.8866070047721E+00
(PID.TID 0000.0001) %MON DYC_max                      =   1.1117747335204E+04
(PID.TID 0000.0001) %MON DYC_min                      =   1.1117747335204E+04
(PID.TID 0000.0001) %MON DYC_mean                     =   1.1117747335204E+04
(PID.TID 0000.0001) %MON DYC_sd                       =   4.1836756281555E-11
(PID.TID 0000.0001) %MON DYF_max                      =   1.1117747335204E+04
(PID.TID 0000.0001) %MON DYF_min                      =   1.1117747335204E+04
(PID.TID 0000.0001) %MON DYF_mean                     =   1.1117747335204E+04
(PID.TID 0000.0001) %MON DYF_sd                       =   4.1836756281555E-11
(PID.TID 0000.0001) %MON DYG_max                      =   1.1117747335204E+04
(PID.TID 0000.0001) %MON DYG_min                      =   1.1117747335204E+04
(PID.TID 0000.0001) %MON DYG_mean                     =   1.1117747335204E+04
(PID.TID 0000.0001) %MON DYG_sd                       =   4.1836756281555E-11
(PID.TID 0000.0001) %MON DYU_max                      =   1.1117747335204E+04
(PID.TID 0000.0001) %MON DYU_min                      =   1.1117747335204E+04
(PID.TID 0000.0001) %MON DYU_mean                     =   1.1117747335204E+04
(PID.TID 0000.0001) %MON DYU_sd                       =   4.1836756281555E-11
(PID.TID 0000.0001) %MON RA_max                       =   1.2652134272379E+08
(PID.TID 0000.0001) %MON RA_min                       =   6.4709633770803E+07
(PID.TID 0000.0001) %MON RA_mean                      =   9.5851678311587E+07
(PID.TID 0000.0001) %MON RA_sd                        =   1.8031873527992E+07
(PID.TID 0000.0001) %MON RAW_max                      =   1.2652134272379E+08
(PID.TID 0000.0001) %MON RAW_min                      =   6.4709633770803E+07
(PID.TID 0000.0001) %MON RAW_mean                     =   9.5851678311587E+07
(PID.TID 0000.0001) %MON RAW_sd                       =   1.8031873527992E+07
(PID.TID 0000.0001) %MON RAS_max                      =   1.2621711802744E+08
(PID.TID 0000.0001) %MON RAS_min                      =   6.4390979194019E+07
(PID.TID 0000.0001) %MON RAS_mean                     =   9.5539469354603E+07
(PID.TID 0000.0001) %MON RAS_sd                       =   1.8036080760153E+07
(PID.TID 0000.0001) %MON RAZ_max                      =   1.2621711802744E+08
(PID.TID 0000.0001) %MON RAZ_min                      =   6.4390979194019E+07
(PID.TID 0000.0001) %MON RAZ_mean                     =   9.5539469354603E+07
(PID.TID 0000.0001) %MON RAZ_sd                       =   1.8036080760153E+07
(PID.TID 0000.0001) %MON AngleCS_max                  =   1.0000000000000E+00
(PID.TID 0000.0001) %MON AngleCS_min                  =   1.0000000000000E+00
(PID.TID 0000.0001) %MON AngleCS_mean                 =   1.0000000000000E+00
(PID.TID 0000.0001) %MON AngleCS_sd                   =   0.0000000000000E+00
(PID.TID 0000.0001) %MON AngleSN_max                  =   0.0000000000000E+00
(PID.TID 0000.0001) %MON AngleSN_min                  =   0.0000000000000E+00
(PID.TID 0000.0001) %MON AngleSN_mean                 =   0.0000000000000E+00
(PID.TID 0000.0001) %MON AngleSN_sd                   =   0.0000000000000E+00
(PID.TID 0000.0001)  MDS_READ_FIELD: opening global file: bathy.box
(PID.TID 0000.0001)  MDS_READ_FIELD: opening global file: icetopo.exp1
(PID.TID 0000.0001) // =======================================================
(PID.TID 0000.0001) // Field Model R_low (ini_masks_etc)
(PID.TID 0000.0001) // CMIN =         -9.000000000000000E+02
(PID.TID 0000.0001) // CMAX =         -9.000000000000000E+02
(PID.TID 0000.0001) // CINT =          0.000000000000000E+00
(PID.TID 0000.0001) // SYMBOLS (CMIN->CMAX): -abcdefghijklmnopqrstuvwxyz+
(PID.TID 0000.0001) //                  0.0: .
(PID.TID 0000.0001) // RANGE I (Lo:Hi:Step):(    -2:    53:     1)
(PID.TID 0000.0001) // RANGE J (Lo:Hi:Step):(   103:    -2:    -1)
(PID.TID 0000.0001) // RANGE K (Lo:Hi:Step):(   1:   1:   1)
(PID.TID 0000.0001) // =======================================================
(PID.TID 0000.0001) // =======================================================
(PID.TID 0000.0001) // END OF FIELD                                          =
(PID.TID 0000.0001) // =======================================================
(PID.TID 0000.0001) 
(PID.TID 0000.0001) // =======================================================
(PID.TID 0000.0001) // Field Model Ro_surf (ini_masks_etc)
(PID.TID 0000.0001) // CMIN =         -6.812500000000010E+02
(PID.TID 0000.0001) // CMAX =         -2.000000000000000E+02
(PID.TID 0000.0001) // CINT =          1.782407407407411E+01
(PID.TID 0000.0001) // SYMBOLS (CMIN->CMAX): -abcdefghijklmnopqrstuvwxyz+
(PID.TID 0000.0001) //                  0.0: .
(PID.TID 0000.0001) // RANGE I (Lo:Hi:Step):(    -2:    53:     1)
(PID.TID 0000.0001) // RANGE J (Lo:Hi:Step):(   103:    -2:    -1)
(PID.TID 0000.0001) // RANGE K (Lo:Hi:Step):(   1:   1:   1)
(PID.TID 0000.0001) // =======================================================
(PID.TID 0000.0001) K =   1
(PID.TID 0000.0001) //                I=7       I=17      I=27      I=31      I=41      I=51
(PID.TID 0000.0001) // |--J--|210123456|890123456|890123456|834567890|234567890|234567890|23
(PID.TID 0000.0001) //    103 aaa.aaaaaaaaaaaaaaaaaaaaaaaaaaaaaaaaaaaaaaaaaaaaaaaaaaaaaaa.aa
(PID.TID 0000.0001) //    102 ---.-------------------------------------------------------.--
(PID.TID 0000.0001) //    101 ..............................................................
(PID.TID 0000.0001) //    100 ..............................................................
(PID.TID 0000.0001) //     99 ..............................................................
(PID.TID 0000.0001) //     98 ..............................................................
(PID.TID 0000.0001) //     97 ..............................................................
(PID.TID 0000.0001) //     96 ..............................................................
(PID.TID 0000.0001) //     95 ..............................................................
(PID.TID 0000.0001) //     94 ..............................................................
(PID.TID 0000.0001) //     93 ..............................................................
(PID.TID 0000.0001) //     92 ..............................................................
(PID.TID 0000.0001) //     91 ..............................................................
(PID.TID 0000.0001) //     90 ..............................................................
(PID.TID 0000.0001) //     89 ..............................................................
(PID.TID 0000.0001) //     88 ..............................................................
(PID.TID 0000.0001) //     87 ..............................................................
(PID.TID 0000.0001) //     86 ..............................................................
(PID.TID 0000.0001) //     85 ..............................................................
(PID.TID 0000.0001) //     84 ..............................................................
(PID.TID 0000.0001) //     83 ..............................................................
(PID.TID 0000.0001) //     82 ..............................................................
(PID.TID 0000.0001) //     81 ..............................................................
(PID.TID 0000.0001) //     80 ..............................................................
(PID.TID 0000.0001) //     79 ..............................................................
(PID.TID 0000.0001) //     78 ..............................................................
(PID.TID 0000.0001) //     77 ..............................................................
(PID.TID 0000.0001) //     76 ..............................................................
(PID.TID 0000.0001) //     75 ..............................................................
(PID.TID 0000.0001) //     74 ..............................................................
(PID.TID 0000.0001) //     73 ..............................................................
(PID.TID 0000.0001) //     78 ..............................................................
(PID.TID 0000.0001) //     77 ..............................................................
(PID.TID 0000.0001) //     76 ..............................................................
(PID.TID 0000.0001) //     75 ..............................................................
(PID.TID 0000.0001) //     74 ..............................................................
(PID.TID 0000.0001) //     73 ..............................................................
(PID.TID 0000.0001) //     72 ..............................................................
(PID.TID 0000.0001) //     71 ..............................................................
(PID.TID 0000.0001) //     70 ..............................................................
(PID.TID 0000.0001) //     69 ..............................................................
(PID.TID 0000.0001) //     68 ..............................................................
(PID.TID 0000.0001) //     67 ..............................................................
(PID.TID 0000.0001) //     66 ..............................................................
(PID.TID 0000.0001) //     65 ..............................................................
(PID.TID 0000.0001) //     64 ..............................................................
(PID.TID 0000.0001) //     63 ..............................................................
(PID.TID 0000.0001) //     62 ..............................................................
(PID.TID 0000.0001) //     61 ..............................................................
(PID.TID 0000.0001) //     60 ..............................................................
(PID.TID 0000.0001) //     59 ..............................................................
(PID.TID 0000.0001) //     58 ..............................................................
(PID.TID 0000.0001) //     57 ..............................................................
(PID.TID 0000.0001) //     56 ..............................................................
(PID.TID 0000.0001) //     55 ..............................................................
(PID.TID 0000.0001) //     54 ..............................................................
(PID.TID 0000.0001) //     53 ..............................................................
(PID.TID 0000.0001) //     52 ..............................................................
(PID.TID 0000.0001) //     51 ..............................................................
(PID.TID 0000.0001) //     50 +++.+++++++++++++++++++++++++++++++++++++++++++++++++++++++.++
(PID.TID 0000.0001) //     49 +++.+++++++++++++++++++++++++++++++++++++++++++++++++++++++.++
(PID.TID 0000.0001) //     48 +++.+++++++++++++++++++++++++++++++++++++++++++++++++++++++.++
(PID.TID 0000.0001) //     53 ..............................................................
(PID.TID 0000.0001) //     52 ..............................................................
(PID.TID 0000.0001) //     51 ..............................................................
(PID.TID 0000.0001) //     50 +++.+++++++++++++++++++++++++++++++++++++++++++++++++++++++.++
(PID.TID 0000.0001) //     49 +++.+++++++++++++++++++++++++++++++++++++++++++++++++++++++.++
(PID.TID 0000.0001) //     48 +++.+++++++++++++++++++++++++++++++++++++++++++++++++++++++.++
(PID.TID 0000.0001) //     47 +++.+++++++++++++++++++++++++++++++++++++++++++++++++++++++.++
(PID.TID 0000.0001) //     46 +++.+++++++++++++++++++++++++++++++++++++++++++++++++++++++.++
(PID.TID 0000.0001) //     45 +++.+++++++++++++++++++++++++++++++++++++++++++++++++++++++.++
(PID.TID 0000.0001) //     44 +++.+++++++++++++++++++++++++++++++++++++++++++++++++++++++.++
(PID.TID 0000.0001) //     43 +++.+++++++++++++++++++++++++++++++++++++++++++++++++++++++.++
(PID.TID 0000.0001) //     42 +++.+++++++++++++++++++++++++++++++++++++++++++++++++++++++.++
(PID.TID 0000.0001) //     41 +++.+++++++++++++++++++++++++++++++++++++++++++++++++++++++.++
(PID.TID 0000.0001) //     40 +++.+++++++++++++++++++++++++++++++++++++++++++++++++++++++.++
(PID.TID 0000.0001) //     39 zzz.zzzzzzzzzzzzzzzzzzzzzzzzzzzzzzzzzzzzzzzzzzzzzzzzzzzzzzz.zz
(PID.TID 0000.0001) //     38 yyy.yyyyyyyyyyyyyyyyyyyyyyyyyyyyyyyyyyyyyyyyyyyyyyyyyyyyyyy.yy
(PID.TID 0000.0001) //     37 yyy.yyyyyyyyyyyyyyyyyyyyyyyyyyyyyyyyyyyyyyyyyyyyyyyyyyyyyyy.yy
(PID.TID 0000.0001) //     36 xxx.xxxxxxxxxxxxxxxxxxxxxxxxxxxxxxxxxxxxxxxxxxxxxxxxxxxxxxx.xx
(PID.TID 0000.0001) //     35 www.wwwwwwwwwwwwwwwwwwwwwwwwwwwwwwwwwwwwwwwwwwwwwwwwwwwwwww.ww
(PID.TID 0000.0001) //     34 vvv.vvvvvvvvvvvvvvvvvvvvvvvvvvvvvvvvvvvvvvvvvvvvvvvvvvvvvvv.vv
(PID.TID 0000.0001) //     33 vvv.vvvvvvvvvvvvvvvvvvvvvvvvvvvvvvvvvvvvvvvvvvvvvvvvvvvvvvv.vv
(PID.TID 0000.0001) //     32 uuu.uuuuuuuuuuuuuuuuuuuuuuuuuuuuuuuuuuuuuuuuuuuuuuuuuuuuuuu.uu
(PID.TID 0000.0001) //     31 ttt.ttttttttttttttttttttttttttttttttttttttttttttttttttttttt.tt
(PID.TID 0000.0001) //     30 ttt.ttttttttttttttttttttttttttttttttttttttttttttttttttttttt.tt
(PID.TID 0000.0001) //     29 sss.sssssssssssssssssssssssssssssssssssssssssssssssssssssss.ss
(PID.TID 0000.0001) //     28 rrr.rrrrrrrrrrrrrrrrrrrrrrrrrrrrrrrrrrrrrrrrrrrrrrrrrrrrrrr.rr
(PID.TID 0000.0001) //     27 rrr.rrrrrrrrrrrrrrrrrrrrrrrrrrrrrrrrrrrrrrrrrrrrrrrrrrrrrrr.rr
(PID.TID 0000.0001) //     26 qqq.qqqqqqqqqqqqqqqqqqqqqqqqqqqqqqqqqqqqqqqqqqqqqqqqqqqqqqq.qq
(PID.TID 0000.0001) //     25 ppp.ppppppppppppppppppppppppppppppppppppppppppppppppppppppp.pp
(PID.TID 0000.0001) //     24 ooo.ooooooooooooooooooooooooooooooooooooooooooooooooooooooo.oo
(PID.TID 0000.0001) //     23 ooo.ooooooooooooooooooooooooooooooooooooooooooooooooooooooo.oo
(PID.TID 0000.0001) //     28 rrr.rrrrrrrrrrrrrrrrrrrrrrrrrrrrrrrrrrrrrrrrrrrrrrrrrrrrrrr.rr
(PID.TID 0000.0001) //     27 rrr.rrrrrrrrrrrrrrrrrrrrrrrrrrrrrrrrrrrrrrrrrrrrrrrrrrrrrrr.rr
(PID.TID 0000.0001) //     26 qqq.qqqqqqqqqqqqqqqqqqqqqqqqqqqqqqqqqqqqqqqqqqqqqqqqqqqqqqq.qq
(PID.TID 0000.0001) //     25 ppp.ppppppppppppppppppppppppppppppppppppppppppppppppppppppp.pp
(PID.TID 0000.0001) //     24 ooo.ooooooooooooooooooooooooooooooooooooooooooooooooooooooo.oo
(PID.TID 0000.0001) //     23 ooo.ooooooooooooooooooooooooooooooooooooooooooooooooooooooo.oo
(PID.TID 0000.0001) //     22 nnn.nnnnnnnnnnnnnnnnnnnnnnnnnnnnnnnnnnnnnnnnnnnnnnnnnnnnnnn.nn
(PID.TID 0000.0001) //     21 mmm.mmmmmmmmmmmmmmmmmmmmmmmmmmmmmmmmmmmmmmmmmmmmmmmmmmmmmmm.mm
(PID.TID 0000.0001) //     20 mmm.mmmmmmmmmmmmmmmmmmmmmmmmmmmmmmmmmmmmmmmmmmmmmmmmmmmmmmm.mm
(PID.TID 0000.0001) //     19 lll.lllllllllllllllllllllllllllllllllllllllllllllllllllllll.ll
(PID.TID 0000.0001) //     18 kkk.kkkkkkkkkkkkkkkkkkkkkkkkkkkkkkkkkkkkkkkkkkkkkkkkkkkkkkk.kk
(PID.TID 0000.0001) //     17 kkk.kkkkkkkkkkkkkkkkkkkkkkkkkkkkkkkkkkkkkkkkkkkkkkkkkkkkkkk.kk
(PID.TID 0000.0001) //     16 jjj.jjjjjjjjjjjjjjjjjjjjjjjjjjjjjjjjjjjjjjjjjjjjjjjjjjjjjjj.jj
(PID.TID 0000.0001) //     15 iii.iiiiiiiiiiiiiiiiiiiiiiiiiiiiiiiiiiiiiiiiiiiiiiiiiiiiiii.ii
(PID.TID 0000.0001) //     14 hhh.hhhhhhhhhhhhhhhhhhhhhhhhhhhhhhhhhhhhhhhhhhhhhhhhhhhhhhh.hh
(PID.TID 0000.0001) //     13 hhh.hhhhhhhhhhhhhhhhhhhhhhhhhhhhhhhhhhhhhhhhhhhhhhhhhhhhhhh.hh
(PID.TID 0000.0001) //     12 ggg.ggggggggggggggggggggggggggggggggggggggggggggggggggggggg.gg
(PID.TID 0000.0001) //     11 fff.fffffffffffffffffffffffffffffffffffffffffffffffffffffff.ff
(PID.TID 0000.0001) //     10 fff.fffffffffffffffffffffffffffffffffffffffffffffffffffffff.ff
(PID.TID 0000.0001) //      9 eee.eeeeeeeeeeeeeeeeeeeeeeeeeeeeeeeeeeeeeeeeeeeeeeeeeeeeeee.ee
(PID.TID 0000.0001) //      8 ddd.ddddddddddddddddddddddddddddddddddddddddddddddddddddddd.dd
(PID.TID 0000.0001) //      7 ddd.ddddddddddddddddddddddddddddddddddddddddddddddddddddddd.dd
(PID.TID 0000.0001) //      6 ccc.ccccccccccccccccccccccccccccccccccccccccccccccccccccccc.cc
(PID.TID 0000.0001) //      5 bbb.bbbbbbbbbbbbbbbbbbbbbbbbbbbbbbbbbbbbbbbbbbbbbbbbbbbbbbb.bb
(PID.TID 0000.0001) //      4 aaa.aaaaaaaaaaaaaaaaaaaaaaaaaaaaaaaaaaaaaaaaaaaaaaaaaaaaaaa.aa
(PID.TID 0000.0001) //      3 aaa.aaaaaaaaaaaaaaaaaaaaaaaaaaaaaaaaaaaaaaaaaaaaaaaaaaaaaaa.aa
(PID.TID 0000.0001) //      2 ---.-------------------------------------------------------.--
(PID.TID 0000.0001) //      1 ..............................................................
(PID.TID 0000.0001) //      0 ..............................................................
(PID.TID 0000.0001) //     -1 ..............................................................
(PID.TID 0000.0001) //     -2 ..............................................................
(PID.TID 0000.0001) // =======================================================
(PID.TID 0000.0001) // END OF FIELD                                          =
(PID.TID 0000.0001) // =======================================================
(PID.TID 0000.0001) 
(PID.TID 0000.0001) // =======================================================
(PID.TID 0000.0001) // Field hFacC at iteration          0
(PID.TID 0000.0001) // CMIN =          1.000000000000000E+00
(PID.TID 0000.0001) // CMAX =          1.000000000000000E+00
(PID.TID 0000.0001) // CINT =          0.000000000000000E+00
(PID.TID 0000.0001) // SYMBOLS (CMIN->CMAX): -abcdefghijklmnopqrstuvwxyz+
(PID.TID 0000.0001) //                  0.0: .
(PID.TID 0000.0001) // RANGE I (Lo:Hi:Step):(    -2:    53:     1)
(PID.TID 0000.0001) // RANGE J (Lo:Hi:Step):(   103:    -2:    -1)
(PID.TID 0000.0001) // RANGE K (Lo:Hi:Step):(   1:   1:   1)
(PID.TID 0000.0001) // =======================================================
(PID.TID 0000.0001) // =======================================================
(PID.TID 0000.0001) // END OF FIELD                                          =
(PID.TID 0000.0001) // =======================================================
(PID.TID 0000.0001) 
(PID.TID 0000.0001) // =======================================================
(PID.TID 0000.0001) // Field hFacW at iteration          0
(PID.TID 0000.0001) // CMIN =          1.000000000000000E+00
(PID.TID 0000.0001) // CMAX =          1.000000000000000E+00
(PID.TID 0000.0001) // CINT =          0.000000000000000E+00
(PID.TID 0000.0001) // SYMBOLS (CMIN->CMAX): -abcdefghijklmnopqrstuvwxyz+
(PID.TID 0000.0001) //                  0.0: .
(PID.TID 0000.0001) // RANGE I (Lo:Hi:Step):(    -2:    53:     1)
(PID.TID 0000.0001) // RANGE J (Lo:Hi:Step):(   103:    -2:    -1)
(PID.TID 0000.0001) // RANGE K (Lo:Hi:Step):(   1:   1:   1)
(PID.TID 0000.0001) // =======================================================
(PID.TID 0000.0001) // =======================================================
(PID.TID 0000.0001) // END OF FIELD                                          =
(PID.TID 0000.0001) // =======================================================
(PID.TID 0000.0001) 
(PID.TID 0000.0001) // =======================================================
(PID.TID 0000.0001) // Field hFacS at iteration          0
(PID.TID 0000.0001) // CMIN =          1.000000000000000E+00
(PID.TID 0000.0001) // CMAX =          1.000000000000000E+00
(PID.TID 0000.0001) // CINT =          0.000000000000000E+00
(PID.TID 0000.0001) // SYMBOLS (CMIN->CMAX): -abcdefghijklmnopqrstuvwxyz+
(PID.TID 0000.0001) //                  0.0: .
(PID.TID 0000.0001) // RANGE I (Lo:Hi:Step):(    -2:    53:     1)
(PID.TID 0000.0001) // RANGE J (Lo:Hi:Step):(   103:    -2:    -1)
(PID.TID 0000.0001) // RANGE K (Lo:Hi:Step):(   1:   1:   1)
(PID.TID 0000.0001) // =======================================================
(PID.TID 0000.0001) // =======================================================
(PID.TID 0000.0001) // END OF FIELD                                          =
(PID.TID 0000.0001) // =======================================================
(PID.TID 0000.0001) 
(PID.TID 0000.0001) GAD_INIT_FIXED: GAD_OlMinSize=  1  0  1
(PID.TID 0000.0001) 
(PID.TID 0000.0001) // ===================================
(PID.TID 0000.0001) // GAD parameters :
(PID.TID 0000.0001) // ===================================
(PID.TID 0000.0001) tempAdvScheme =   /* Temp. Horiz.Advection scheme selector */
(PID.TID 0000.0001)                       2
(PID.TID 0000.0001)     ;
(PID.TID 0000.0001) tempVertAdvScheme =   /* Temp. Vert. Advection scheme selector */
(PID.TID 0000.0001)                       2
(PID.TID 0000.0001)     ;
(PID.TID 0000.0001) tempMultiDimAdvec =   /* use Muti-Dim Advec method for Temp */
(PID.TID 0000.0001)                   F
(PID.TID 0000.0001)     ;
(PID.TID 0000.0001) tempSOM_Advection = /* use 2nd Order Moment Advection for Temp */
(PID.TID 0000.0001)                   F
(PID.TID 0000.0001)     ;
(PID.TID 0000.0001) AdamsBashforthGt = /* apply Adams-Bashforth extrapolation on Gt */
(PID.TID 0000.0001)                   T
(PID.TID 0000.0001)     ;
(PID.TID 0000.0001) AdamsBashforth_T = /* apply Adams-Bashforth extrapolation on Temp */
(PID.TID 0000.0001)                   F
(PID.TID 0000.0001)     ;
(PID.TID 0000.0001) saltAdvScheme =   /* Salt. Horiz.advection scheme selector */
(PID.TID 0000.0001)                       2
(PID.TID 0000.0001)     ;
(PID.TID 0000.0001) saltVertAdvScheme =   /* Salt. Vert. Advection scheme selector */
(PID.TID 0000.0001)                       2
(PID.TID 0000.0001)     ;
(PID.TID 0000.0001) saltMultiDimAdvec =   /* use Muti-Dim Advec method for Salt */
(PID.TID 0000.0001)                   F
(PID.TID 0000.0001)     ;
(PID.TID 0000.0001) saltSOM_Advection = /* use 2nd Order Moment Advection for Salt */
(PID.TID 0000.0001)                   F
(PID.TID 0000.0001)     ;
(PID.TID 0000.0001) AdamsBashforthGs = /* apply Adams-Bashforth extrapolation on Gs */
(PID.TID 0000.0001)                   T
(PID.TID 0000.0001)     ;
(PID.TID 0000.0001) AdamsBashforth_S = /* apply Adams-Bashforth extrapolation on Salt */
(PID.TID 0000.0001)                   F
(PID.TID 0000.0001)     ;
(PID.TID 0000.0001) // ===================================
(PID.TID 0000.0001)  MDS_READ_FIELD: opening global file: phi0surf.exp1.jmd95z
(PID.TID 0000.0001)  MDS_READ_FIELD: opening global file: frontcircum.xuyun
(PID.TID 0000.0001)  MDS_READ_FIELD: opening global file: frontdepth.xuyun
(PID.TID 0000.0001) ------------------------------------------------------------
(PID.TID 0000.0001) DIAGNOSTICS_SET_LEVELS: done
(PID.TID 0000.0001)  Total Nb of available Diagnostics: ndiagt=   199
(PID.TID 0000.0001)  write list of available Diagnostics to file: available_diagnostics.log
(PID.TID 0000.0001) SETDIAG: Allocate  1 x  1 Levels for Diagnostic #   190 SHIfwFlx
(PID.TID 0000.0001) SETDIAG: Allocate  1 x  1 Levels for Diagnostic #   191 SHIhtFlx
(PID.TID 0000.0001) SETDIAG: Allocate 30 x  1 Levels for Diagnostic #   198 ICFfwFlx
(PID.TID 0000.0001) SETDIAG: Allocate 30 x  1 Levels for Diagnostic #   199 ICFhtFlx
(PID.TID 0000.0001)   space allocated for all diagnostics:      62 levels
(PID.TID 0000.0001) DIAGNOSTICS_SET_POINTERS: Set levels for Outp.Stream: shelficeDiag
(PID.TID 0000.0001)  Levels:       1.
(PID.TID 0000.0001) DIAGNOSTICS_SET_POINTERS: Set levels for Outp.Stream: icefrontDiag
(PID.TID 0000.0001)  Levels:       1.   2.   3.   4.   5.   6.   7.   8.   9.  10.  11.  12.  13.  14.  15.  16.  17.  18.  19.  20.
(PID.TID 0000.0001)  Levels:      21.  22.  23.  24.  25.  26.  27.  28.  29.  30.
(PID.TID 0000.0001) DIAGNOSTICS_SET_POINTERS: done
(PID.TID 0000.0001) ------------------------------------------------------------
(PID.TID 0000.0001) DIAGSTATS_SET_REGIONS: define no region
(PID.TID 0000.0001) ------------------------------------------------------------
(PID.TID 0000.0001)   space allocated for all stats-diags:       0 levels
(PID.TID 0000.0001) DIAGSTATS_SET_POINTERS: done
(PID.TID 0000.0001) ------------------------------------------------------------
(PID.TID 0000.0001) %MON fCori_max                    =  -1.3709057042516E-04
(PID.TID 0000.0001) %MON fCori_min                    =  -1.4360464034757E-04
(PID.TID 0000.0001) %MON fCori_mean                   =  -1.4069429304698E-04
(PID.TID 0000.0001) %MON fCori_sd                     =   1.9069739624987E-06
(PID.TID 0000.0001) %MON fCoriG_max                   =  -1.3713394327439E-04
(PID.TID 0000.0001) %MON fCoriG_min                   =  -1.4362679550910E-04
(PID.TID 0000.0001) %MON fCoriG_mean                  =  -1.4072713798624E-04
(PID.TID 0000.0001) %MON fCoriG_sd                    =   1.9008093726821E-06
(PID.TID 0000.0001) %MON fCoriCos_max                 =   4.9761447480159E-05
(PID.TID 0000.0001) %MON fCoriCos_min                 =   2.5450607565678E-05
(PID.TID 0000.0001) %MON fCoriCos_mean                =   3.7698922201606E-05
(PID.TID 0000.0001) %MON fCoriCos_sd                  =   7.0920218535055E-06
(PID.TID 0000.0001) INI_CG2D: CG2D normalisation factor =  8.6553958581495505E-04
(PID.TID 0000.0001) 
(PID.TID 0000.0001) // =======================================================
(PID.TID 0000.0001) // Model configuration
(PID.TID 0000.0001) // =======================================================
(PID.TID 0000.0001) //
(PID.TID 0000.0001) // "Physical" paramters ( PARM01 in namelist )
(PID.TID 0000.0001) //
(PID.TID 0000.0001) buoyancyRelation = /* Type of relation to get Buoyancy */
(PID.TID 0000.0001)               'OCEANIC'
(PID.TID 0000.0001)     ;
(PID.TID 0000.0001) fluidIsAir   =  /* fluid major constituent is Air */
(PID.TID 0000.0001)                   F
(PID.TID 0000.0001)     ;
(PID.TID 0000.0001) fluidIsWater =  /* fluid major constituent is Water */
(PID.TID 0000.0001)                   T
(PID.TID 0000.0001)     ;
(PID.TID 0000.0001) usingPCoords =  /* use p (or p*) vertical coordinate */
(PID.TID 0000.0001)                   F
(PID.TID 0000.0001)     ;
(PID.TID 0000.0001) usingZCoords =  /* use z (or z*) vertical coordinate */
(PID.TID 0000.0001)                   T
(PID.TID 0000.0001)     ;
(PID.TID 0000.0001) tRef =   /* Reference temperature profile ( oC or K ) */
(PID.TID 0000.0001)    30 @ -1.900000000000000E+00              /* K =  1: 30 */
(PID.TID 0000.0001)     ;
(PID.TID 0000.0001) sRef =   /* Reference salinity profile ( psu ) */
(PID.TID 0000.0001)    30 @  3.440000000000000E+01              /* K =  1: 30 */
(PID.TID 0000.0001)     ;
(PID.TID 0000.0001) useStrainTensionVisc= /* Use StrainTension Form of Viscous Operator */
(PID.TID 0000.0001)                   F
(PID.TID 0000.0001)     ;
(PID.TID 0000.0001) useVariableVisc = /* Use variable horizontal viscosity */
(PID.TID 0000.0001)                   F
(PID.TID 0000.0001)     ;
(PID.TID 0000.0001) useHarmonicVisc = /* Use harmonic horizontal viscosity */
(PID.TID 0000.0001)                   T
(PID.TID 0000.0001)     ;
(PID.TID 0000.0001) useBiharmonicVisc= /* Use biharmonic horiz.  viscosity */
(PID.TID 0000.0001)                   F
(PID.TID 0000.0001)     ;
(PID.TID 0000.0001) useSmag3D = /* Use isotropic 3-D Smagorinsky viscosity */
(PID.TID 0000.0001)                   F
(PID.TID 0000.0001)     ;
(PID.TID 0000.0001) viscAh  =   /* Lateral harmonic viscosity ( m^2/s ) */
(PID.TID 0000.0001)                 6.000000000000000E+02
(PID.TID 0000.0001)     ;
(PID.TID 0000.0001) viscA4  =   /* Lateral biharmonic viscosity ( m^4/s ) */
(PID.TID 0000.0001)                 0.000000000000000E+00
(PID.TID 0000.0001)     ;
(PID.TID 0000.0001) no_slip_sides =  /* Viscous BCs: No-slip sides */
(PID.TID 0000.0001)                   F
(PID.TID 0000.0001)     ;
(PID.TID 0000.0001) sideDragFactor = /* side-drag scaling factor (non-dim) */
(PID.TID 0000.0001)                 2.000000000000000E+00
(PID.TID 0000.0001)     ;
(PID.TID 0000.0001) viscArNr = /* vertical profile of vertical viscosity ( m^2/s )*/
(PID.TID 0000.0001)    30 @  1.000000000000000E-03              /* K =  1: 30 */
(PID.TID 0000.0001)     ;
(PID.TID 0000.0001) no_slip_bottom =  /* Viscous BCs: No-slip bottom */
(PID.TID 0000.0001)                   F
(PID.TID 0000.0001)     ;
(PID.TID 0000.0001) bottomDragLinear = /* linear bottom-drag coefficient ( m/s ) */
(PID.TID 0000.0001)                 0.000000000000000E+00
(PID.TID 0000.0001)     ;
(PID.TID 0000.0001) bottomDragQuadratic = /* quadratic bottom-drag coefficient (-) */
(PID.TID 0000.0001)                 2.500000000000000E-03
(PID.TID 0000.0001)     ;
(PID.TID 0000.0001) diffKhT =   /* Laplacian diffusion of heat laterally ( m^2/s ) */
(PID.TID 0000.0001)                 1.000000000000000E+02
(PID.TID 0000.0001)     ;
(PID.TID 0000.0001) diffK4T =   /* Biharmonic diffusion of heat laterally ( m^4/s ) */
(PID.TID 0000.0001)                 0.000000000000000E+00
(PID.TID 0000.0001)     ;
(PID.TID 0000.0001) diffKhS =   /* Laplacian diffusion of salt laterally ( m^2/s ) */
(PID.TID 0000.0001)                 1.000000000000000E+02
(PID.TID 0000.0001)     ;
(PID.TID 0000.0001) diffK4S =   /* Biharmonic diffusion of salt laterally ( m^4/s ) */
(PID.TID 0000.0001)                 0.000000000000000E+00
(PID.TID 0000.0001)     ;
(PID.TID 0000.0001) diffKrNrT = /* vertical profile of vertical diffusion of Temp ( m^2/s )*/
(PID.TID 0000.0001)    30 @  5.000000000000000E-05              /* K =  1: 30 */
(PID.TID 0000.0001)     ;
(PID.TID 0000.0001) diffKrNrS = /* vertical profile of vertical diffusion of Salt ( m^2/s )*/
(PID.TID 0000.0001)    30 @  5.000000000000000E-05              /* K =  1: 30 */
(PID.TID 0000.0001)     ;
(PID.TID 0000.0001) diffKrBL79surf = /* Surface diffusion for Bryan and Lewis 79 ( m^2/s ) */
(PID.TID 0000.0001)                 0.000000000000000E+00
(PID.TID 0000.0001)     ;
(PID.TID 0000.0001) diffKrBL79deep = /* Deep diffusion for Bryan and Lewis 1979 ( m^2/s ) */
(PID.TID 0000.0001)                 0.000000000000000E+00
(PID.TID 0000.0001)     ;
(PID.TID 0000.0001) diffKrBL79scl = /* Depth scale for Bryan and Lewis 1979 ( m ) */
(PID.TID 0000.0001)                 2.000000000000000E+02
(PID.TID 0000.0001)     ;
(PID.TID 0000.0001) diffKrBL79Ho = /* Turning depth for Bryan and Lewis 1979 ( m ) */
(PID.TID 0000.0001)                -2.000000000000000E+03
(PID.TID 0000.0001)     ;
(PID.TID 0000.0001) ivdc_kappa = /* Implicit Vertical Diffusivity for Convection ( m^2/s) */
(PID.TID 0000.0001)                 0.000000000000000E+00
(PID.TID 0000.0001)     ;
(PID.TID 0000.0001) hMixCriteria=  /* Criteria for mixed-layer diagnostic */
(PID.TID 0000.0001)                -8.000000000000000E-01
(PID.TID 0000.0001)     ;
(PID.TID 0000.0001) dRhoSmall =  /* Parameter for mixed-layer diagnostic */
(PID.TID 0000.0001)                 1.000000000000000E-06
(PID.TID 0000.0001)     ;
(PID.TID 0000.0001) hMixSmooth=  /* Smoothing parameter for mixed-layer diagnostic */
(PID.TID 0000.0001)                 0.000000000000000E+00
(PID.TID 0000.0001)     ;
(PID.TID 0000.0001) eosType =  /* Type of Equation of State */
(PID.TID 0000.0001)               'JMD95Z'
(PID.TID 0000.0001)     ;
(PID.TID 0000.0001) celsius2K = /* 0 degree Celsius converted to Kelvin ( K ) */
(PID.TID 0000.0001)                 2.731500000000000E+02
(PID.TID 0000.0001)     ;
(PID.TID 0000.0001) rhoConst  = /* Reference density (Boussinesq)  ( kg/m^3 ) */
(PID.TID 0000.0001)                 1.030000000000000E+03
(PID.TID 0000.0001)     ;
(PID.TID 0000.0001) rhoFacC = /* normalized Reference density @ cell-Center (-) */
(PID.TID 0000.0001)    30 @  1.000000000000000E+00              /* K =  1: 30 */
(PID.TID 0000.0001)     ;
(PID.TID 0000.0001) rhoFacF = /* normalized Reference density @ W-Interface (-) */
(PID.TID 0000.0001)    31 @  1.000000000000000E+00              /* K =  1: 31 */
(PID.TID 0000.0001)     ;
(PID.TID 0000.0001) rhoConstFresh = /* Fresh-water reference density ( kg/m^3 ) */
(PID.TID 0000.0001)                 1.030000000000000E+03
(PID.TID 0000.0001)     ;
(PID.TID 0000.0001) gravity =   /* Gravitational acceleration ( m/s^2 ) */
(PID.TID 0000.0001)                 9.810000000000000E+00
(PID.TID 0000.0001)     ;
(PID.TID 0000.0001) gBaro =   /* Barotropic gravity ( m/s^2 ) */
(PID.TID 0000.0001)                 9.810000000000000E+00
(PID.TID 0000.0001)     ;
(PID.TID 0000.0001) rotationPeriod =   /* Rotation Period ( s ) */
(PID.TID 0000.0001)                 8.616400000000000E+04
(PID.TID 0000.0001)     ;
(PID.TID 0000.0001) omega =   /* Angular velocity ( rad/s ) */
(PID.TID 0000.0001)                 7.292123516990375E-05
(PID.TID 0000.0001)     ;
(PID.TID 0000.0001) f0 =   /* Reference coriolis parameter ( 1/s ) */
(PID.TID 0000.0001)                 1.000000000000000E-04
(PID.TID 0000.0001)     ;
(PID.TID 0000.0001) beta =   /* Beta ( 1/(m.s) ) */
(PID.TID 0000.0001)                 9.999999999999999E-12
(PID.TID 0000.0001)     ;
(PID.TID 0000.0001) fPrime =   /* Second coriolis parameter ( 1/s ) */
(PID.TID 0000.0001)                 0.000000000000000E+00
(PID.TID 0000.0001)     ;
(PID.TID 0000.0001) rigidLid =   /* Rigid lid on/off flag */
(PID.TID 0000.0001)                   F
(PID.TID 0000.0001)     ;
(PID.TID 0000.0001) implicitFreeSurface =   /* Implicit free surface on/off flag */
(PID.TID 0000.0001)                   T
(PID.TID 0000.0001)     ;
(PID.TID 0000.0001) freeSurfFac =   /* Implicit free surface factor */
(PID.TID 0000.0001)                 1.000000000000000E+00
(PID.TID 0000.0001)     ;
(PID.TID 0000.0001) implicSurfPress =  /* Surface Pressure implicit factor (0-1)*/
(PID.TID 0000.0001)                 1.000000000000000E+00
(PID.TID 0000.0001)     ;
(PID.TID 0000.0001) implicDiv2Dflow =  /* Barot. Flow Div. implicit factor (0-1)*/
(PID.TID 0000.0001)                 1.000000000000000E+00
(PID.TID 0000.0001)     ;
(PID.TID 0000.0001) uniformLin_PhiSurf = /* use uniform Bo_surf on/off flag*/
(PID.TID 0000.0001)                   T
(PID.TID 0000.0001)     ;
(PID.TID 0000.0001) uniformFreeSurfLev = /* free-surface level-index is uniform */
(PID.TID 0000.0001)                   F
(PID.TID 0000.0001)     ;
(PID.TID 0000.0001) hFacMin =   /* minimum partial cell factor (hFac) */
(PID.TID 0000.0001)                 5.000000000000000E-02
(PID.TID 0000.0001)     ;
(PID.TID 0000.0001) hFacMinDr = /* minimum partial cell thickness ( m) */
(PID.TID 0000.0001)                 5.000000000000000E-02
(PID.TID 0000.0001)     ;
(PID.TID 0000.0001) exactConserv =  /* Exact Volume Conservation on/off flag*/
(PID.TID 0000.0001)                   T
(PID.TID 0000.0001)     ;
(PID.TID 0000.0001) linFSConserveTr = /* Tracer correction for Lin Free Surface on/off flag*/
(PID.TID 0000.0001)                   F
(PID.TID 0000.0001)     ;
(PID.TID 0000.0001) nonlinFreeSurf = /* Non-linear Free Surf. options (-1,0,1,2,3)*/
(PID.TID 0000.0001)                       0
(PID.TID 0000.0001)      -1,0= Off ; 1,2,3= On, 2=+rescale gU,gV, 3=+update cg2d solv.
(PID.TID 0000.0001)     ;
(PID.TID 0000.0001) hFacInf =   /* lower threshold for hFac (nonlinFreeSurf only)*/
(PID.TID 0000.0001)                 2.000000000000000E-01
(PID.TID 0000.0001)     ;
(PID.TID 0000.0001) hFacSup =   /* upper threshold for hFac (nonlinFreeSurf only)*/
(PID.TID 0000.0001)                 2.000000000000000E+00
(PID.TID 0000.0001)     ;
(PID.TID 0000.0001) select_rStar = /* r* Vertical coord. options (=0 r coord.; >0 uses r*)*/
(PID.TID 0000.0001)                       0
(PID.TID 0000.0001)     ;
(PID.TID 0000.0001) useRealFreshWaterFlux = /* Real Fresh Water Flux on/off flag*/
(PID.TID 0000.0001)                   F
(PID.TID 0000.0001)     ;
(PID.TID 0000.0001) temp_EvPrRn = /* Temp. of Evap/Prec/R (UNSET=use local T)(oC)*/
(PID.TID 0000.0001)                 1.234567000000000E+05
(PID.TID 0000.0001)     ;
(PID.TID 0000.0001) salt_EvPrRn = /* Salin. of Evap/Prec/R (UNSET=use local S)(psu)*/
(PID.TID 0000.0001)                 0.000000000000000E+00
(PID.TID 0000.0001)     ;
(PID.TID 0000.0001) selectAddFluid = /* option for mass source/sink of fluid (=0: off) */
(PID.TID 0000.0001)                       0
(PID.TID 0000.0001)     ;
(PID.TID 0000.0001) temp_addMass = /* Temp. of addMass array (UNSET=use local T)(oC)*/
(PID.TID 0000.0001)                 1.234567000000000E+05
(PID.TID 0000.0001)     ;
(PID.TID 0000.0001) salt_addMass = /* Salin. of addMass array (UNSET=use local S)(psu)*/
(PID.TID 0000.0001)                 0.000000000000000E+00
(PID.TID 0000.0001)     ;
(PID.TID 0000.0001) convertFW2Salt = /* convert F.W. Flux to Salt Flux (-1=use local S)(psu)*/
(PID.TID 0000.0001)                 3.340000000000000E+01
(PID.TID 0000.0001)     ;
(PID.TID 0000.0001) use3Dsolver = /* use 3-D pressure solver on/off flag */
(PID.TID 0000.0001)                   F
(PID.TID 0000.0001)     ;
(PID.TID 0000.0001) nonHydrostatic =  /* Non-Hydrostatic on/off flag */
(PID.TID 0000.0001)                   F
(PID.TID 0000.0001)     ;
(PID.TID 0000.0001) nh_Am2 = /* Non-Hydrostatic terms scaling factor */
(PID.TID 0000.0001)                 1.000000000000000E+00
(PID.TID 0000.0001)     ;
(PID.TID 0000.0001) implicitNHPress = /* Non-Hyd Pressure implicit factor (0-1)*/
(PID.TID 0000.0001)                 1.000000000000000E+00
(PID.TID 0000.0001)     ;
(PID.TID 0000.0001) selectNHfreeSurf = /* Non-Hyd (free-)Surface option */
(PID.TID 0000.0001)                       0
(PID.TID 0000.0001)     ;
(PID.TID 0000.0001) quasiHydrostatic = /* Quasi-Hydrostatic on/off flag */
(PID.TID 0000.0001)                   F
(PID.TID 0000.0001)     ;
(PID.TID 0000.0001) calc_wVelocity = /* vertical velocity calculation on/off flag */
(PID.TID 0000.0001)                   T
(PID.TID 0000.0001)     ;
(PID.TID 0000.0001) momStepping =  /* Momentum equation on/off flag */
(PID.TID 0000.0001)                   T
(PID.TID 0000.0001)     ;
(PID.TID 0000.0001) vectorInvariantMomentum= /* Vector-Invariant Momentum on/off */
(PID.TID 0000.0001)                   F
(PID.TID 0000.0001)     ;
(PID.TID 0000.0001) momAdvection =  /* Momentum advection on/off flag */
(PID.TID 0000.0001)                   T
(PID.TID 0000.0001)     ;
(PID.TID 0000.0001) momViscosity =  /* Momentum viscosity on/off flag */
(PID.TID 0000.0001)                   T
(PID.TID 0000.0001)     ;
(PID.TID 0000.0001) momImplVertAdv= /* Momentum implicit vert. advection on/off*/
(PID.TID 0000.0001)                   F
(PID.TID 0000.0001)     ;
(PID.TID 0000.0001) implicitViscosity = /* Implicit viscosity on/off flag */
(PID.TID 0000.0001)                   F
(PID.TID 0000.0001)     ;
(PID.TID 0000.0001) metricTerms =  /* metric-Terms on/off flag */
(PID.TID 0000.0001)                   T
(PID.TID 0000.0001)     ;
(PID.TID 0000.0001) useNHMTerms = /* Non-Hydrostatic Metric-Terms on/off */
(PID.TID 0000.0001)                   F
(PID.TID 0000.0001)     ;
(PID.TID 0000.0001) selectCoriMap = /* Coriolis Map options (0,1,2,3)*/
(PID.TID 0000.0001)                       2
(PID.TID 0000.0001)     0= f-Plane ; 1= Beta-Plane ; 2= Spherical ; 3= read from file
(PID.TID 0000.0001)     ;
(PID.TID 0000.0001) use3dCoriolis = /* 3-D Coriolis on/off flag */
(PID.TID 0000.0001)                   F
(PID.TID 0000.0001)     ;
(PID.TID 0000.0001) useCoriolis =  /* Coriolis on/off flag */
(PID.TID 0000.0001)                   T
(PID.TID 0000.0001)     ;
(PID.TID 0000.0001) useCDscheme =  /* CD scheme on/off flag */
(PID.TID 0000.0001)                   T
(PID.TID 0000.0001)     ;
(PID.TID 0000.0001) useEnergyConservingCoriolis= /* Flx-Form Coriolis scheme flag */
(PID.TID 0000.0001)                   F
(PID.TID 0000.0001)     ;
(PID.TID 0000.0001) useJamartWetPoints= /* Coriolis WetPoints method flag */
(PID.TID 0000.0001)                   F
(PID.TID 0000.0001)     ;
(PID.TID 0000.0001) useJamartMomAdv= /* V.I Non-linear terms Jamart flag */
(PID.TID 0000.0001)                   F
(PID.TID 0000.0001)     ;
(PID.TID 0000.0001) useAbsVorticity= /* V.I Works with f+zeta in Coriolis */
(PID.TID 0000.0001)                   F
(PID.TID 0000.0001)     ;
(PID.TID 0000.0001) selectVortScheme= /* V.I Scheme selector for Vorticity-Term */
(PID.TID 0000.0001)               123456789
(PID.TID 0000.0001)    = 0 : enstrophy (Shallow-Water Eq.) conserving scheme by Sadourny, JAS 75
(PID.TID 0000.0001)    = 1 : same as 0 with modified hFac
(PID.TID 0000.0001)    = 2 : energy conserving scheme (used by Sadourny in JAS 75 paper)
(PID.TID 0000.0001)    = 3 : energy (general) and enstrophy (2D, nonDiv.) conserving scheme
(PID.TID 0000.0001)          from Sadourny (Burridge & Haseler, ECMWF Rep.4, 1977)
(PID.TID 0000.0001)     ;
(PID.TID 0000.0001) upwindVorticity= /* V.I Upwind bias vorticity flag */
(PID.TID 0000.0001)                   F
(PID.TID 0000.0001)     ;
(PID.TID 0000.0001) highOrderVorticity= /* V.I High order vort. advect. flag */
(PID.TID 0000.0001)                   F
(PID.TID 0000.0001)     ;
(PID.TID 0000.0001) upwindShear= /* V.I Upwind vertical Shear advection flag */
(PID.TID 0000.0001)                   F
(PID.TID 0000.0001)     ;
(PID.TID 0000.0001) selectKEscheme= /* V.I Kinetic Energy scheme selector */
(PID.TID 0000.0001)                       0
(PID.TID 0000.0001)     ;
(PID.TID 0000.0001) momForcing =  /* Momentum forcing on/off flag */
(PID.TID 0000.0001)                   T
(PID.TID 0000.0001)     ;
(PID.TID 0000.0001) momPressureForcing =  /* Momentum pressure term on/off flag */
(PID.TID 0000.0001)                   T
(PID.TID 0000.0001)     ;
(PID.TID 0000.0001) implicitIntGravWave= /* Implicit Internal Gravity Wave flag */
(PID.TID 0000.0001)                   F
(PID.TID 0000.0001)     ;
(PID.TID 0000.0001) staggerTimeStep =    /* Stagger time stepping on/off flag */
(PID.TID 0000.0001)                   F
(PID.TID 0000.0001)     ;
(PID.TID 0000.0001) doResetHFactors = /* reset thickness factors @ each time-step */
(PID.TID 0000.0001)                   F
(PID.TID 0000.0001)     ;
(PID.TID 0000.0001) multiDimAdvection =  /* enable/disable Multi-Dim Advection */
(PID.TID 0000.0001)                   T
(PID.TID 0000.0001)     ;
(PID.TID 0000.0001) useMultiDimAdvec =   /* Multi-Dim Advection is/is-not used */
(PID.TID 0000.0001)                   F
(PID.TID 0000.0001)     ;
(PID.TID 0000.0001) implicitDiffusion = /* Implicit Diffusion on/off flag */
(PID.TID 0000.0001)                   F
(PID.TID 0000.0001)     ;
(PID.TID 0000.0001) tempStepping =  /* Temperature equation on/off flag */
(PID.TID 0000.0001)                   T
(PID.TID 0000.0001)     ;
(PID.TID 0000.0001) tempAdvection = /* Temperature advection on/off flag */
(PID.TID 0000.0001)                   T
(PID.TID 0000.0001)     ;
(PID.TID 0000.0001) tempImplVertAdv = /* Temp. implicit vert. advection on/off */
(PID.TID 0000.0001)                   F
(PID.TID 0000.0001)     ;
(PID.TID 0000.0001) tempForcing  =  /* Temperature forcing on/off flag */
(PID.TID 0000.0001)                   T
(PID.TID 0000.0001)     ;
(PID.TID 0000.0001) doThetaClimRelax = /* apply SST relaxation on/off flag */
(PID.TID 0000.0001)                   F
(PID.TID 0000.0001)     ;
(PID.TID 0000.0001) tempIsActiveTr = /* Temp. is a dynamically Active Tracer */
(PID.TID 0000.0001)                   T
(PID.TID 0000.0001)     ;
(PID.TID 0000.0001) saltStepping =  /* Salinity equation on/off flag */
(PID.TID 0000.0001)                   T
(PID.TID 0000.0001)     ;
(PID.TID 0000.0001) saltAdvection = /* Salinity advection on/off flag */
(PID.TID 0000.0001)                   T
(PID.TID 0000.0001)     ;
(PID.TID 0000.0001) saltImplVertAdv = /* Sali. implicit vert. advection on/off */
(PID.TID 0000.0001)                   F
(PID.TID 0000.0001)     ;
(PID.TID 0000.0001) saltForcing  =  /* Salinity forcing on/off flag */
(PID.TID 0000.0001)                   T
(PID.TID 0000.0001)     ;
(PID.TID 0000.0001) doSaltClimRelax = /* apply SSS relaxation on/off flag */
(PID.TID 0000.0001)                   F
(PID.TID 0000.0001)     ;
(PID.TID 0000.0001) saltIsActiveTr = /* Salt  is a dynamically Active Tracer */
(PID.TID 0000.0001)                   T
(PID.TID 0000.0001)     ;
(PID.TID 0000.0001)  readBinaryPrec = /* Precision used for reading binary files */
(PID.TID 0000.0001)                      64
(PID.TID 0000.0001)     ;
(PID.TID 0000.0001) writeBinaryPrec = /* Precision used for writing binary files */
(PID.TID 0000.0001)                      32
(PID.TID 0000.0001)     ;
(PID.TID 0000.0001)  globalFiles = /* write "global" (=not per tile) files */
(PID.TID 0000.0001)                   F
(PID.TID 0000.0001)     ;
(PID.TID 0000.0001)  useSingleCpuIO = /* only master MPI process does I/O */
(PID.TID 0000.0001)                   F
(PID.TID 0000.0001)     ;
(PID.TID 0000.0001) /* debLev[*]  : level of debug & auxiliary message printing */
(PID.TID 0000.0001) debLevZero =  0 ; /* level of disabled aux. msg printing */
(PID.TID 0000.0001)    debLevA =  1 ; /* level of minimum  aux. msg printing */
(PID.TID 0000.0001)    debLevB =  2 ; /* level of low aux. print (report read-file opening)*/
(PID.TID 0000.0001)    debLevC =  3 ; /* level of moderate debug prt (most pkgs debug msg) */
(PID.TID 0000.0001)    debLevD =  4 ; /* level of enhanced debug prt (add DEBUG_STATS prt) */
(PID.TID 0000.0001)    debLevE =  5 ; /* level of extensive debug printing */
(PID.TID 0000.0001) debugLevel =  /* select debug printing level */
(PID.TID 0000.0001)                       2
(PID.TID 0000.0001)     ;
(PID.TID 0000.0001) //
(PID.TID 0000.0001) // Elliptic solver(s) paramters ( PARM02 in namelist )
(PID.TID 0000.0001) //
(PID.TID 0000.0001) cg2dMaxIters =   /* Upper limit on 2d con. grad iterations  */
(PID.TID 0000.0001)                    1000
(PID.TID 0000.0001)     ;
(PID.TID 0000.0001) cg2dChkResFreq =   /* 2d con. grad convergence test frequency */
(PID.TID 0000.0001)                       1
(PID.TID 0000.0001)     ;
(PID.TID 0000.0001) cg2dUseMinResSol= /* use cg2d last-iter(=0) / min-resid.(=1) solution */
(PID.TID 0000.0001)                       0
(PID.TID 0000.0001)     ;
(PID.TID 0000.0001) cg2dTargetResidual =   /* 2d con. grad target residual  */
(PID.TID 0000.0001)                 1.000000000000000E-13
(PID.TID 0000.0001)     ;
(PID.TID 0000.0001) cg2dTargetResWunit =   /* CG2d target residual [W units] */
(PID.TID 0000.0001)                -1.000000000000000E+00
(PID.TID 0000.0001)     ;
(PID.TID 0000.0001) cg2dPreCondFreq =   /* Freq. for updating cg2d preconditioner */
(PID.TID 0000.0001)                       1
(PID.TID 0000.0001)     ;
(PID.TID 0000.0001) useSRCGSolver =  /* use single reduction CG solver(s) */
(PID.TID 0000.0001)                   F
(PID.TID 0000.0001)     ;
(PID.TID 0000.0001) printResidualFreq = /* Freq. for printing CG residual */
(PID.TID 0000.0001)                       0
(PID.TID 0000.0001)     ;
(PID.TID 0000.0001) //
(PID.TID 0000.0001) // Time stepping paramters ( PARM03 in namelist )
(PID.TID 0000.0001) //
(PID.TID 0000.0001) deltaTMom =   /* Momentum equation timestep ( s ) */
(PID.TID 0000.0001)                 1.800000000000000E+03
(PID.TID 0000.0001)     ;
(PID.TID 0000.0001) deltaTFreeSurf = /* FreeSurface equation timestep ( s ) */
(PID.TID 0000.0001)                 1.800000000000000E+03
(PID.TID 0000.0001)     ;
(PID.TID 0000.0001) dTtracerLev =  /* Tracer equation timestep ( s ) */
(PID.TID 0000.0001)    30 @  1.800000000000000E+03              /* K =  1: 30 */
(PID.TID 0000.0001)     ;
(PID.TID 0000.0001) deltaTClock  =   /* Model clock timestep ( s ) */
(PID.TID 0000.0001)                 1.800000000000000E+03
(PID.TID 0000.0001)     ;
(PID.TID 0000.0001) cAdjFreq =   /* Convective adjustment interval ( s ) */
(PID.TID 0000.0001)                 1.800000000000000E+03
(PID.TID 0000.0001)     ;
(PID.TID 0000.0001) momForcingOutAB = /* =1: take Momentum Forcing out of Adams-Bash. stepping */
(PID.TID 0000.0001)                       0
(PID.TID 0000.0001)     ;
(PID.TID 0000.0001) tracForcingOutAB = /* =1: take T,S,pTr Forcing out of Adams-Bash. stepping */
(PID.TID 0000.0001)                       0
(PID.TID 0000.0001)     ;
(PID.TID 0000.0001) momDissip_In_AB = /* put Dissipation Tendency in Adams-Bash. stepping */
(PID.TID 0000.0001)                   T
(PID.TID 0000.0001)     ;
(PID.TID 0000.0001) doAB_onGtGs = /* apply AB on Tendencies (rather than on T,S)*/
(PID.TID 0000.0001)                   T
(PID.TID 0000.0001)     ;
(PID.TID 0000.0001) abEps =   /* Adams-Bashforth-2 stabilizing weight */
(PID.TID 0000.0001)                 1.000000000000000E-01
(PID.TID 0000.0001)     ;
(PID.TID 0000.0001) tauCD =   /* CD coupling time-scale ( s ) */
(PID.TID 0000.0001)                 4.000000000000000E+05
(PID.TID 0000.0001)     ;
(PID.TID 0000.0001) rCD =   /* Normalised CD coupling parameter */
(PID.TID 0000.0001)                 9.955000000000001E-01
(PID.TID 0000.0001)     ;
(PID.TID 0000.0001) epsAB_CD = /* AB-2 stabilizing weight for CD-scheme*/
(PID.TID 0000.0001)                 1.000000000000000E-01
(PID.TID 0000.0001)     ;
(PID.TID 0000.0001) pickupStrictlyMatch= /* stop if pickup do not strictly match */
(PID.TID 0000.0001)                   T
(PID.TID 0000.0001)     ;
(PID.TID 0000.0001) nIter0   =   /* Run starting timestep number */
(PID.TID 0000.0001)                       0
(PID.TID 0000.0001)     ;
(PID.TID 0000.0001) nTimeSteps = /* Number of timesteps */
(PID.TID 0000.0001)                      20
(PID.TID 0000.0001)     ;
(PID.TID 0000.0001) nEndIter =   /* Run ending timestep number */
(PID.TID 0000.0001)                      20
(PID.TID 0000.0001)     ;
(PID.TID 0000.0001) baseTime =   /* Model base time ( s ) */
(PID.TID 0000.0001)                 0.000000000000000E+00
(PID.TID 0000.0001)     ;
(PID.TID 0000.0001) startTime =  /* Run start time ( s ) */
(PID.TID 0000.0001)                 0.000000000000000E+00
(PID.TID 0000.0001)     ;
(PID.TID 0000.0001) endTime  =   /* Integration ending time ( s ) */
(PID.TID 0000.0001)                 3.600000000000000E+04
(PID.TID 0000.0001)     ;
(PID.TID 0000.0001) pChkPtFreq = /* Permanent restart/pickup file interval ( s ) */
(PID.TID 0000.0001)                 0.000000000000000E+00
(PID.TID 0000.0001)     ;
(PID.TID 0000.0001) chkPtFreq  = /* Rolling restart/pickup file interval ( s ) */
(PID.TID 0000.0001)                 0.000000000000000E+00
(PID.TID 0000.0001)     ;
(PID.TID 0000.0001) pickup_write_mdsio =   /* Model IO flag. */
(PID.TID 0000.0001)                   T
(PID.TID 0000.0001)     ;
(PID.TID 0000.0001) pickup_read_mdsio =   /* Model IO flag. */
(PID.TID 0000.0001)                   T
(PID.TID 0000.0001)     ;
(PID.TID 0000.0001) pickup_write_mnc =   /* Model IO flag. */
(PID.TID 0000.0001)                   F
(PID.TID 0000.0001)     ;
(PID.TID 0000.0001) pickup_read_mnc =   /* Model IO flag. */
(PID.TID 0000.0001)                   F
(PID.TID 0000.0001)     ;
(PID.TID 0000.0001) pickup_write_immed =   /* Model IO flag. */
(PID.TID 0000.0001)                   F
(PID.TID 0000.0001)     ;
(PID.TID 0000.0001) writePickupAtEnd =   /* Model IO flag. */
(PID.TID 0000.0001)                   T
(PID.TID 0000.0001)     ;
(PID.TID 0000.0001) dumpFreq =   /* Model state write out interval ( s ). */
(PID.TID 0000.0001)                 0.000000000000000E+00
(PID.TID 0000.0001)     ;
(PID.TID 0000.0001) dumpInitAndLast= /* write out Initial & Last iter. model state */
(PID.TID 0000.0001)                   T
(PID.TID 0000.0001)     ;
(PID.TID 0000.0001) snapshot_mdsio =   /* Model IO flag. */
(PID.TID 0000.0001)                   T
(PID.TID 0000.0001)     ;
(PID.TID 0000.0001) snapshot_mnc =   /* Model IO flag. */
(PID.TID 0000.0001)                   F
(PID.TID 0000.0001)     ;
(PID.TID 0000.0001) monitorFreq =   /* Monitor output interval ( s ). */
(PID.TID 0000.0001)                 1.000000000000000E+00
(PID.TID 0000.0001)     ;
(PID.TID 0000.0001) monitorSelect = /* select group of variables to monitor */
(PID.TID 0000.0001)                       2
(PID.TID 0000.0001)     ;
(PID.TID 0000.0001) monitor_stdio =   /* Model IO flag. */
(PID.TID 0000.0001)                   T
(PID.TID 0000.0001)     ;
(PID.TID 0000.0001) monitor_mnc =   /* Model IO flag. */
(PID.TID 0000.0001)                   F
(PID.TID 0000.0001)     ;
(PID.TID 0000.0001) externForcingPeriod =   /* forcing period (s) */
(PID.TID 0000.0001)                 0.000000000000000E+00
(PID.TID 0000.0001)     ;
(PID.TID 0000.0001) externForcingCycle =   /* period of the cyle (s). */
(PID.TID 0000.0001)                 0.000000000000000E+00
(PID.TID 0000.0001)     ;
(PID.TID 0000.0001) tauThetaClimRelax =   /* relaxation time scale (s) */
(PID.TID 0000.0001)                 0.000000000000000E+00
(PID.TID 0000.0001)     ;
(PID.TID 0000.0001) tauSaltClimRelax =   /* relaxation time scale (s) */
(PID.TID 0000.0001)                 0.000000000000000E+00
(PID.TID 0000.0001)     ;
(PID.TID 0000.0001) latBandClimRelax =   /* max. Lat. where relaxation */
(PID.TID 0000.0001)                 1.800000000000000E+02
(PID.TID 0000.0001)     ;
(PID.TID 0000.0001) //
(PID.TID 0000.0001) // Gridding paramters ( PARM04 in namelist )
(PID.TID 0000.0001) //
(PID.TID 0000.0001) usingCartesianGrid = /* Cartesian coordinates flag ( True/False ) */
(PID.TID 0000.0001)                   F
(PID.TID 0000.0001)     ;
(PID.TID 0000.0001) usingCylindricalGrid = /* Cylindrical coordinates flag ( True/False ) */
(PID.TID 0000.0001)                   F
(PID.TID 0000.0001)     ;
(PID.TID 0000.0001) usingSphericalPolarGrid = /* Spherical coordinates flag ( True/False ) */
(PID.TID 0000.0001)                   T
(PID.TID 0000.0001)     ;
(PID.TID 0000.0001) usingCurvilinearGrid = /* Curvilinear coordinates flag ( True/False ) */
(PID.TID 0000.0001)                   F
(PID.TID 0000.0001)     ;
(PID.TID 0000.0001) selectSigmaCoord = /* Hybrid-Sigma Vert. Coordinate option */
(PID.TID 0000.0001)                       0
(PID.TID 0000.0001)     ;
(PID.TID 0000.0001) Ro_SeaLevel = /* r(1) ( units of r ==  m ) */
(PID.TID 0000.0001)                 0.000000000000000E+00
(PID.TID 0000.0001)     ;
(PID.TID 0000.0001) rSigmaBnd = /* r/sigma transition ( units of r ==  m ) */
(PID.TID 0000.0001)                 1.234567000000000E+05
(PID.TID 0000.0001)     ;
(PID.TID 0000.0001) rkSign =   /* index orientation relative to vertical coordinate */
(PID.TID 0000.0001)                -1.000000000000000E+00
(PID.TID 0000.0001)     ;
(PID.TID 0000.0001) gravitySign = /* gravity orientation relative to vertical coordinate */
(PID.TID 0000.0001)                -1.000000000000000E+00
(PID.TID 0000.0001)     ;
(PID.TID 0000.0001) mass2rUnit = /* convert mass per unit area [kg/m2] to r-units [m] */
(PID.TID 0000.0001)                 9.708737864077669E-04
(PID.TID 0000.0001)     ;
(PID.TID 0000.0001) rUnit2mass = /* convert r-units [m] to mass per unit area [kg/m2] */
(PID.TID 0000.0001)                 1.030000000000000E+03
(PID.TID 0000.0001)     ;
(PID.TID 0000.0001) drC =   /* C spacing ( units of r ) */
(PID.TID 0000.0001)                 1.500000000000000E+01,      /* K =  1 */
(PID.TID 0000.0001)    29 @  3.000000000000000E+01,             /* K =  2: 30 */
(PID.TID 0000.0001)                 1.500000000000000E+01       /* K = 31 */
(PID.TID 0000.0001)     ;
(PID.TID 0000.0001) drF =   /* W spacing ( units of r ) */
(PID.TID 0000.0001)    30 @  3.000000000000000E+01              /* K =  1: 30 */
(PID.TID 0000.0001)     ;
(PID.TID 0000.0001) delX = /* U spacing ( m - cartesian, degrees - spherical ) */
(PID.TID 0000.0001)    50 @  3.000000000000000E-01              /* I =  1: 50 */
(PID.TID 0000.0001)     ;
(PID.TID 0000.0001) delY = /* V spacing ( m - cartesian, degrees - spherical ) */
(PID.TID 0000.0001)   100 @  1.000000000000000E-01              /* J =  1:100 */
(PID.TID 0000.0001)     ;
(PID.TID 0000.0001) xgOrigin = /* X-axis origin of West  edge (cartesian: m, lat-lon: deg) */
(PID.TID 0000.0001)                 0.000000000000000E+00
(PID.TID 0000.0001)     ;
(PID.TID 0000.0001) ygOrigin = /* Y-axis origin of South edge (cartesian: m, lat-lon: deg) */
(PID.TID 0000.0001)                -8.000000000000000E+01
(PID.TID 0000.0001)     ;
(PID.TID 0000.0001) rSphere =  /* Radius ( ignored - cartesian, m - spherical ) */
(PID.TID 0000.0001)                 6.370000000000000E+06
(PID.TID 0000.0001)     ;
(PID.TID 0000.0001) deepAtmosphere = /* Deep/Shallow Atmosphere flag (True/False) */
(PID.TID 0000.0001)                   F
(PID.TID 0000.0001)     ;
(PID.TID 0000.0001) xC =  /* xC(:,1,:,1) : P-point X coord ( deg. or m if cartesian) */
(PID.TID 0000.0001)                 1.500000000000001E-01,      /* I =  1 */
(PID.TID 0000.0001)                 4.500000000000001E-01,      /* I =  2 */
(PID.TID 0000.0001)                 7.500000000000002E-01,      /* I =  3 */
(PID.TID 0000.0001)                 1.050000000000000E+00,      /* I =  4 */
(PID.TID 0000.0001)                 1.350000000000000E+00,      /* I =  5 */
(PID.TID 0000.0001)                 1.650000000000000E+00,      /* I =  6 */
(PID.TID 0000.0001)                 1.950000000000000E+00,      /* I =  7 */
(PID.TID 0000.0001)                 2.250000000000000E+00,      /* I =  8 */
(PID.TID 0000.0001)                 2.550000000000000E+00,      /* I =  9 */
(PID.TID 0000.0001)                 2.850000000000000E+00,      /* I = 10 */
(PID.TID 0000.0001)                 3.149999999999999E+00,      /* I = 11 */
(PID.TID 0000.0001)                 3.449999999999999E+00,      /* I = 12 */
(PID.TID 0000.0001)                 3.749999999999999E+00,      /* I = 13 */
(PID.TID 0000.0001)                 4.049999999999999E+00,      /* I = 14 */
(PID.TID 0000.0001)                 4.350000000000000E+00,      /* I = 15 */
(PID.TID 0000.0001)                 4.649999999999999E+00,      /* I = 16 */
(PID.TID 0000.0001)                 4.949999999999999E+00,      /* I = 17 */
(PID.TID 0000.0001)                 5.249999999999998E+00,      /* I = 18 */
(PID.TID 0000.0001)                 5.549999999999999E+00,      /* I = 19 */
(PID.TID 0000.0001)                 5.849999999999998E+00,      /* I = 20 */
(PID.TID 0000.0001)                 6.149999999999999E+00,      /* I = 21 */
(PID.TID 0000.0001)                 6.449999999999998E+00,      /* I = 22 */
(PID.TID 0000.0001)                 6.749999999999998E+00,      /* I = 23 */
(PID.TID 0000.0001)                 7.049999999999997E+00,      /* I = 24 */
(PID.TID 0000.0001)                 7.349999999999997E+00,      /* I = 25 */
(PID.TID 0000.0001)                 7.649999999999997E+00,      /* I = 26 */
(PID.TID 0000.0001)                 7.949999999999998E+00,      /* I = 27 */
(PID.TID 0000.0001)                 8.249999999999998E+00,      /* I = 28 */
(PID.TID 0000.0001)                 8.549999999999999E+00,      /* I = 29 */
(PID.TID 0000.0001)                 8.850000000000000E+00,      /* I = 30 */
(PID.TID 0000.0001)                 9.150000000000000E+00,      /* I = 31 */
(PID.TID 0000.0001)                 9.450000000000001E+00,      /* I = 32 */
(PID.TID 0000.0001)                 9.750000000000002E+00,      /* I = 33 */
(PID.TID 0000.0001)                 1.005000000000000E+01,      /* I = 34 */
(PID.TID 0000.0001)                 1.035000000000000E+01,      /* I = 35 */
(PID.TID 0000.0001)                 1.065000000000000E+01,      /* I = 36 */
(PID.TID 0000.0001)                 1.095000000000001E+01,      /* I = 37 */
(PID.TID 0000.0001)                 1.125000000000001E+01,      /* I = 38 */
(PID.TID 0000.0001)                 1.155000000000000E+01,      /* I = 39 */
(PID.TID 0000.0001)                 1.185000000000001E+01,      /* I = 40 */
(PID.TID 0000.0001)                 1.215000000000001E+01,      /* I = 41 */
(PID.TID 0000.0001)                 1.245000000000001E+01,      /* I = 42 */
(PID.TID 0000.0001)                 1.275000000000001E+01,      /* I = 43 */
(PID.TID 0000.0001)                 1.305000000000001E+01,      /* I = 44 */
(PID.TID 0000.0001)                 1.335000000000001E+01,      /* I = 45 */
(PID.TID 0000.0001)                 1.365000000000001E+01,      /* I = 46 */
(PID.TID 0000.0001)                 1.395000000000001E+01,      /* I = 47 */
(PID.TID 0000.0001)                 1.425000000000001E+01,      /* I = 48 */
(PID.TID 0000.0001)                 1.455000000000001E+01,      /* I = 49 */
(PID.TID 0000.0001)                 1.485000000000001E+01       /* I = 50 */
(PID.TID 0000.0001)     ;
(PID.TID 0000.0001) yC =  /* yC(1,:,1,:) : P-point Y coord ( deg. or m if cartesian) */
(PID.TID 0000.0001)                -7.995000000000000E+01,      /* J =  1 */
(PID.TID 0000.0001)                -7.985000000000001E+01,      /* J =  2 */
(PID.TID 0000.0001)                -7.975000000000001E+01,      /* J =  3 */
(PID.TID 0000.0001)      . . .
(PID.TID 0000.0001)                -7.775000000000013E+01,      /* J = 23 */
(PID.TID 0000.0001)                -7.765000000000013E+01,      /* J = 24 */
(PID.TID 0000.0001)                -7.755000000000014E+01,      /* J = 25 */
(PID.TID 0000.0001)                -7.745000000000014E+01,      /* J = 26 */
(PID.TID 0000.0001)                -7.735000000000015E+01,      /* J = 27 */
(PID.TID 0000.0001)                -7.725000000000016E+01,      /* J = 28 */
(PID.TID 0000.0001)      . . .
(PID.TID 0000.0001)                -7.525000000000027E+01,      /* J = 48 */
(PID.TID 0000.0001)                -7.515000000000028E+01,      /* J = 49 */
(PID.TID 0000.0001)                -7.505000000000028E+01,      /* J = 50 */
(PID.TID 0000.0001)                -7.495000000000029E+01,      /* J = 51 */
(PID.TID 0000.0001)                -7.485000000000029E+01,      /* J = 52 */
(PID.TID 0000.0001)                -7.475000000000030E+01,      /* J = 53 */
(PID.TID 0000.0001)      . . .
(PID.TID 0000.0001)                -7.275000000000041E+01,      /* J = 73 */
(PID.TID 0000.0001)                -7.265000000000042E+01,      /* J = 74 */
(PID.TID 0000.0001)                -7.255000000000042E+01,      /* J = 75 */
(PID.TID 0000.0001)                -7.245000000000043E+01,      /* J = 76 */
(PID.TID 0000.0001)                -7.235000000000043E+01,      /* J = 77 */
(PID.TID 0000.0001)                -7.225000000000044E+01,      /* J = 78 */
(PID.TID 0000.0001)      . . .
(PID.TID 0000.0001)                -7.025000000000055E+01,      /* J = 98 */
(PID.TID 0000.0001)                -7.015000000000056E+01,      /* J = 99 */
(PID.TID 0000.0001)                -7.005000000000057E+01       /* J =100 */
(PID.TID 0000.0001)     ;
(PID.TID 0000.0001) rcoord = /* P-point R coordinate (  units of r ) */
(PID.TID 0000.0001)                -1.500000000000000E+01,      /* K =  1 */
(PID.TID 0000.0001)                -4.500000000000000E+01,      /* K =  2 */
(PID.TID 0000.0001)                -7.500000000000000E+01,      /* K =  3 */
(PID.TID 0000.0001)                -1.050000000000000E+02,      /* K =  4 */
(PID.TID 0000.0001)                -1.350000000000000E+02,      /* K =  5 */
(PID.TID 0000.0001)                -1.650000000000000E+02,      /* K =  6 */
(PID.TID 0000.0001)                -1.950000000000000E+02,      /* K =  7 */
(PID.TID 0000.0001)                -2.250000000000000E+02,      /* K =  8 */
(PID.TID 0000.0001)                -2.550000000000000E+02,      /* K =  9 */
(PID.TID 0000.0001)                -2.850000000000000E+02,      /* K = 10 */
(PID.TID 0000.0001)                -3.150000000000000E+02,      /* K = 11 */
(PID.TID 0000.0001)                -3.450000000000000E+02,      /* K = 12 */
(PID.TID 0000.0001)                -3.750000000000000E+02,      /* K = 13 */
(PID.TID 0000.0001)                -4.050000000000000E+02,      /* K = 14 */
(PID.TID 0000.0001)                -4.350000000000000E+02,      /* K = 15 */
(PID.TID 0000.0001)                -4.650000000000000E+02,      /* K = 16 */
(PID.TID 0000.0001)                -4.950000000000000E+02,      /* K = 17 */
(PID.TID 0000.0001)                -5.250000000000000E+02,      /* K = 18 */
(PID.TID 0000.0001)                -5.550000000000000E+02,      /* K = 19 */
(PID.TID 0000.0001)                -5.850000000000000E+02,      /* K = 20 */
(PID.TID 0000.0001)                -6.150000000000000E+02,      /* K = 21 */
(PID.TID 0000.0001)                -6.450000000000000E+02,      /* K = 22 */
(PID.TID 0000.0001)                -6.750000000000000E+02,      /* K = 23 */
(PID.TID 0000.0001)                -7.050000000000000E+02,      /* K = 24 */
(PID.TID 0000.0001)                -7.350000000000000E+02,      /* K = 25 */
(PID.TID 0000.0001)                -7.650000000000000E+02,      /* K = 26 */
(PID.TID 0000.0001)                -7.950000000000000E+02,      /* K = 27 */
(PID.TID 0000.0001)                -8.250000000000000E+02,      /* K = 28 */
(PID.TID 0000.0001)                -8.550000000000000E+02,      /* K = 29 */
(PID.TID 0000.0001)                -8.850000000000000E+02       /* K = 30 */
(PID.TID 0000.0001)     ;
(PID.TID 0000.0001) rF =   /* W-Interf. R coordinate (  units of r ) */
(PID.TID 0000.0001)                 0.000000000000000E+00,      /* K =  1 */
(PID.TID 0000.0001)                -3.000000000000000E+01,      /* K =  2 */
(PID.TID 0000.0001)                -6.000000000000000E+01,      /* K =  3 */
(PID.TID 0000.0001)                -9.000000000000000E+01,      /* K =  4 */
(PID.TID 0000.0001)                -1.200000000000000E+02,      /* K =  5 */
(PID.TID 0000.0001)                -1.500000000000000E+02,      /* K =  6 */
(PID.TID 0000.0001)                -1.800000000000000E+02,      /* K =  7 */
(PID.TID 0000.0001)                -2.100000000000000E+02,      /* K =  8 */
(PID.TID 0000.0001)                -2.400000000000000E+02,      /* K =  9 */
(PID.TID 0000.0001)                -2.700000000000000E+02,      /* K = 10 */
(PID.TID 0000.0001)                -3.000000000000000E+02,      /* K = 11 */
(PID.TID 0000.0001)                -3.300000000000000E+02,      /* K = 12 */
(PID.TID 0000.0001)                -3.600000000000000E+02,      /* K = 13 */
(PID.TID 0000.0001)                -3.900000000000000E+02,      /* K = 14 */
(PID.TID 0000.0001)                -4.200000000000000E+02,      /* K = 15 */
(PID.TID 0000.0001)                -4.500000000000000E+02,      /* K = 16 */
(PID.TID 0000.0001)                -4.800000000000000E+02,      /* K = 17 */
(PID.TID 0000.0001)                -5.100000000000000E+02,      /* K = 18 */
(PID.TID 0000.0001)                -5.400000000000000E+02,      /* K = 19 */
(PID.TID 0000.0001)                -5.700000000000000E+02,      /* K = 20 */
(PID.TID 0000.0001)                -6.000000000000000E+02,      /* K = 21 */
(PID.TID 0000.0001)                -6.300000000000000E+02,      /* K = 22 */
(PID.TID 0000.0001)                -6.600000000000000E+02,      /* K = 23 */
(PID.TID 0000.0001)                -6.900000000000000E+02,      /* K = 24 */
(PID.TID 0000.0001)                -7.200000000000000E+02,      /* K = 25 */
(PID.TID 0000.0001)                -7.500000000000000E+02,      /* K = 26 */
(PID.TID 0000.0001)                -7.800000000000000E+02,      /* K = 27 */
(PID.TID 0000.0001)                -8.100000000000000E+02,      /* K = 28 */
(PID.TID 0000.0001)                -8.400000000000000E+02,      /* K = 29 */
(PID.TID 0000.0001)                -8.700000000000000E+02,      /* K = 30 */
(PID.TID 0000.0001)                -9.000000000000000E+02       /* K = 31 */
(PID.TID 0000.0001)     ;
(PID.TID 0000.0001) deepFacC = /* deep-model grid factor @ cell-Center (-) */
(PID.TID 0000.0001)    30 @  1.000000000000000E+00              /* K =  1: 30 */
(PID.TID 0000.0001)     ;
(PID.TID 0000.0001) deepFacF = /* deep-model grid factor @ W-Interface (-) */
(PID.TID 0000.0001)    31 @  1.000000000000000E+00              /* K =  1: 31 */
(PID.TID 0000.0001)     ;
(PID.TID 0000.0001) rVel2wUnit = /* convert units: rVel -> wSpeed (=1 if z-coord)*/
(PID.TID 0000.0001)    31 @  1.000000000000000E+00              /* K =  1: 31 */
(PID.TID 0000.0001)     ;
(PID.TID 0000.0001) wUnit2rVel = /* convert units: wSpeed -> rVel (=1 if z-coord)*/
(PID.TID 0000.0001)    31 @  1.000000000000000E+00              /* K =  1: 31 */
(PID.TID 0000.0001)     ;
(PID.TID 0000.0001) dBdrRef = /* Vertical grad. of reference buoyancy [(m/s/r)^2] */
(PID.TID 0000.0001)    30 @  0.000000000000000E+00              /* K =  1: 30 */
(PID.TID 0000.0001)     ;
(PID.TID 0000.0001) rotateGrid = /* use rotated grid ( True/False ) */
(PID.TID 0000.0001)                   F
(PID.TID 0000.0001)     ;
(PID.TID 0000.0001) phiEuler = /* Euler angle, rotation about original z-coordinate [rad] */
(PID.TID 0000.0001)                 0.000000000000000E+00
(PID.TID 0000.0001)     ;
(PID.TID 0000.0001) thetaEuler = /* Euler angle, rotation about new x-coordinate [rad] */
(PID.TID 0000.0001)                 0.000000000000000E+00
(PID.TID 0000.0001)     ;
(PID.TID 0000.0001) psiEuler = /* Euler angle, rotation about new z-coordinate [rad] */
(PID.TID 0000.0001)                 0.000000000000000E+00
(PID.TID 0000.0001)     ;
(PID.TID 0000.0001) dxF =  /* dxF(:,1,:,1) ( units: m ) */
(PID.TID 0000.0001)    50 @  5.820391490558872E+03              /* I =  1: 50 */
(PID.TID 0000.0001)     ;
(PID.TID 0000.0001) dxF =  /* dxF(1,:,1,:) ( units: m ) */
(PID.TID 0000.0001)                 5.820391490558872E+03,      /* J =  1 */
(PID.TID 0000.0001)                 5.877701765291692E+03,      /* J =  2 */
(PID.TID 0000.0001)                 5.934994135525598E+03,      /* J =  3 */
(PID.TID 0000.0001)      . . .
(PID.TID 0000.0001)                 7.076813247621209E+03,      /* J = 23 */
(PID.TID 0000.0001)                 7.133689397375063E+03,      /* J = 24 */
(PID.TID 0000.0001)                 7.190543816673855E+03,      /* J = 25 */
(PID.TID 0000.0001)                 7.247376332329164E+03,      /* J = 26 */
(PID.TID 0000.0001)                 7.304186771219292E+03,      /* J = 27 */
(PID.TID 0000.0001)                 7.360974960289787E+03,      /* J = 28 */
(PID.TID 0000.0001)      . . .
(PID.TID 0000.0001)                 8.491800393599013E+03,      /* J = 48 */
(PID.TID 0000.0001)                 8.548081485571185E+03,      /* J = 49 */
(PID.TID 0000.0001)                 8.604336538604706E+03,      /* J = 50 */
(PID.TID 0000.0001)                 8.660565381336924E+03,      /* J = 51 */
(PID.TID 0000.0001)                 8.716767842485036E+03,      /* J = 52 */
(PID.TID 0000.0001)                 8.772943750846600E+03,      /* J = 53 */
(PID.TID 0000.0001)      . . .
(PID.TID 0000.0001)                 9.890622914885218E+03,      /* J = 73 */
(PID.TID 0000.0001)                 9.946201814818334E+03,      /* J = 74 */
(PID.TID 0000.0001)                 1.000175041689580E+04,      /* J = 75 */
(PID.TID 0000.0001)                 1.005726855190695E+04,      /* J = 76 */
(PID.TID 0000.0001)                 1.011275605073392E+04,      /* J = 77 */
(PID.TID 0000.0001)                 1.016821274435215E+04,      /* J = 78 */
(PID.TID 0000.0001)      . . .
(PID.TID 0000.0001)                 1.127061807330668E+04,      /* J = 98 */
(PID.TID 0000.0001)                 1.132538898360582E+04,      /* J = 99 */
(PID.TID 0000.0001)                 1.138012539480601E+04       /* J =100 */
(PID.TID 0000.0001)     ;
(PID.TID 0000.0001) dyF =  /* dyF(:,1,:,1) ( units: m ) */
(PID.TID 0000.0001)    50 @  1.111774733520388E+04              /* I =  1: 50 */
(PID.TID 0000.0001)     ;
(PID.TID 0000.0001) dyF =  /* dyF(1,:,1,:) ( units: m ) */
(PID.TID 0000.0001)   100 @  1.111774733520388E+04              /* J =  1:100 */
(PID.TID 0000.0001)     ;
(PID.TID 0000.0001) dxG =  /* dxG(:,1,:,1) ( units: m ) */
(PID.TID 0000.0001)    50 @  5.791729693558576E+03              /* I =  1: 50 */
(PID.TID 0000.0001)     ;
(PID.TID 0000.0001) dxG =  /* dxG(1,:,1,:) ( units: m ) */
(PID.TID 0000.0001)                 5.791729693558576E+03,      /* J =  1 */
(PID.TID 0000.0001)                 5.849048855077854E+03,      /* J =  2 */
(PID.TID 0000.0001)                 5.906350199379949E+03,      /* J =  3 */
(PID.TID 0000.0001)      . . .
(PID.TID 0000.0001)                 7.048367077963129E+03,      /* J = 23 */
(PID.TID 0000.0001)                 7.105254027978149E+03,      /* J = 24 */
(PID.TID 0000.0001)                 7.162119334157175E+03,      /* J = 25 */
(PID.TID 0000.0001)                 7.218962823278620E+03,      /* J = 26 */
(PID.TID 0000.0001)                 7.275784322187360E+03,      /* J = 27 */
(PID.TID 0000.0001)                 7.332583657795253E+03,      /* J = 28 */
(PID.TID 0000.0001)      . . .
(PID.TID 0000.0001)                 8.463650136583461E+03,      /* J = 48 */
(PID.TID 0000.0001)                 8.519944183739159E+03,      /* J = 49 */
(PID.TID 0000.0001)                 8.576212277667308E+03,      /* J = 50 */
(PID.TID 0000.0001)                 8.632454246965530E+03,      /* J = 51 */
(PID.TID 0000.0001)                 8.688669920311038E+03,      /* J = 52 */
(PID.TID 0000.0001)                 8.744859126461139E+03,      /* J = 53 */
(PID.TID 0000.0001)      . . .
(PID.TID 0000.0001)                 9.862822156126382E+03,      /* J = 73 */
(PID.TID 0000.0001)                 9.918416141504455E+03,      /* J = 74 */
(PID.TID 0000.0001)                 9.973979913666863E+03,      /* J = 75 */
(PID.TID 0000.0001)                 1.002951330335672E+04,      /* J = 76 */
(PID.TID 0000.0001)                 1.008501614140969E+04,      /* J = 77 */
(PID.TID 0000.0001)                 1.014048825875450E+04,      /* J = 78 */
(PID.TID 0000.0001)      . . .
(PID.TID 0000.0001)                 1.124321973312895E+04,      /* J = 98 */
(PID.TID 0000.0001)                 1.129800783041847E+04,      /* J = 99 */
(PID.TID 0000.0001)                 1.135276151201679E+04       /* J =100 */
(PID.TID 0000.0001)     ;
(PID.TID 0000.0001) dyG =  /* dyG(:,1,:,1) ( units: m ) */
(PID.TID 0000.0001)    50 @  1.111774733520388E+04              /* I =  1: 50 */
(PID.TID 0000.0001)     ;
(PID.TID 0000.0001) dyG =  /* dyG(1,:,1,:) ( units: m ) */
(PID.TID 0000.0001)   100 @  1.111774733520388E+04              /* J =  1:100 */
(PID.TID 0000.0001)     ;
(PID.TID 0000.0001) dxC =  /* dxC(:,1,:,1) ( units: m ) */
(PID.TID 0000.0001)    50 @  5.820391490558872E+03              /* I =  1: 50 */
(PID.TID 0000.0001)     ;
(PID.TID 0000.0001) dxC =  /* dxC(1,:,1,:) ( units: m ) */
(PID.TID 0000.0001)                 5.820391490558872E+03,      /* J =  1 */
(PID.TID 0000.0001)                 5.877701765291692E+03,      /* J =  2 */
(PID.TID 0000.0001)                 5.934994135525598E+03,      /* J =  3 */
(PID.TID 0000.0001)      . . .
(PID.TID 0000.0001)                 7.076813247621209E+03,      /* J = 23 */
(PID.TID 0000.0001)                 7.133689397375063E+03,      /* J = 24 */
(PID.TID 0000.0001)                 7.190543816673855E+03,      /* J = 25 */
(PID.TID 0000.0001)                 7.247376332329164E+03,      /* J = 26 */
(PID.TID 0000.0001)                 7.304186771219292E+03,      /* J = 27 */
(PID.TID 0000.0001)                 7.360974960289787E+03,      /* J = 28 */
(PID.TID 0000.0001)      . . .
(PID.TID 0000.0001)                 8.491800393599013E+03,      /* J = 48 */
(PID.TID 0000.0001)                 8.548081485571185E+03,      /* J = 49 */
(PID.TID 0000.0001)                 8.604336538604706E+03,      /* J = 50 */
(PID.TID 0000.0001)                 8.660565381336924E+03,      /* J = 51 */
(PID.TID 0000.0001)                 8.716767842485036E+03,      /* J = 52 */
(PID.TID 0000.0001)                 8.772943750846600E+03,      /* J = 53 */
(PID.TID 0000.0001)      . . .
(PID.TID 0000.0001)                 9.890622914885218E+03,      /* J = 73 */
(PID.TID 0000.0001)                 9.946201814818334E+03,      /* J = 74 */
(PID.TID 0000.0001)                 1.000175041689580E+04,      /* J = 75 */
(PID.TID 0000.0001)                 1.005726855190695E+04,      /* J = 76 */
(PID.TID 0000.0001)                 1.011275605073392E+04,      /* J = 77 */
(PID.TID 0000.0001)                 1.016821274435215E+04,      /* J = 78 */
(PID.TID 0000.0001)      . . .
(PID.TID 0000.0001)                 1.127061807330668E+04,      /* J = 98 */
(PID.TID 0000.0001)                 1.132538898360582E+04,      /* J = 99 */
(PID.TID 0000.0001)                 1.138012539480601E+04       /* J =100 */
(PID.TID 0000.0001)     ;
(PID.TID 0000.0001) dyC =  /* dyC(:,1,:,1) ( units: m ) */
(PID.TID 0000.0001)    50 @  1.111774733520388E+04              /* I =  1: 50 */
(PID.TID 0000.0001)     ;
(PID.TID 0000.0001) dyC =  /* dyC(1,:,1,:) ( units: m ) */
(PID.TID 0000.0001)   100 @  1.111774733520388E+04              /* J =  1:100 */
(PID.TID 0000.0001)     ;
(PID.TID 0000.0001) dxV =  /* dxV(:,1,:,1) ( units: m ) */
(PID.TID 0000.0001)    50 @  5.791729693558576E+03              /* I =  1: 50 */
(PID.TID 0000.0001)     ;
(PID.TID 0000.0001) dxV =  /* dxV(1,:,1,:) ( units: m ) */
(PID.TID 0000.0001)                 5.791729693558576E+03,      /* J =  1 */
(PID.TID 0000.0001)                 5.849048855077854E+03,      /* J =  2 */
(PID.TID 0000.0001)                 5.906350199379949E+03,      /* J =  3 */
(PID.TID 0000.0001)      . . .
(PID.TID 0000.0001)                 7.048367077963129E+03,      /* J = 23 */
(PID.TID 0000.0001)                 7.105254027978149E+03,      /* J = 24 */
(PID.TID 0000.0001)                 7.162119334157175E+03,      /* J = 25 */
(PID.TID 0000.0001)                 7.218962823278620E+03,      /* J = 26 */
(PID.TID 0000.0001)                 7.275784322187360E+03,      /* J = 27 */
(PID.TID 0000.0001)                 7.332583657795253E+03,      /* J = 28 */
(PID.TID 0000.0001)      . . .
(PID.TID 0000.0001)                 8.463650136583461E+03,      /* J = 48 */
(PID.TID 0000.0001)                 8.519944183739159E+03,      /* J = 49 */
(PID.TID 0000.0001)                 8.576212277667308E+03,      /* J = 50 */
(PID.TID 0000.0001)                 8.632454246965530E+03,      /* J = 51 */
(PID.TID 0000.0001)                 8.688669920311038E+03,      /* J = 52 */
(PID.TID 0000.0001)                 8.744859126461139E+03,      /* J = 53 */
(PID.TID 0000.0001)      . . .
(PID.TID 0000.0001)                 9.862822156126382E+03,      /* J = 73 */
(PID.TID 0000.0001)                 9.918416141504455E+03,      /* J = 74 */
(PID.TID 0000.0001)                 9.973979913666863E+03,      /* J = 75 */
(PID.TID 0000.0001)                 1.002951330335672E+04,      /* J = 76 */
(PID.TID 0000.0001)                 1.008501614140969E+04,      /* J = 77 */
(PID.TID 0000.0001)                 1.014048825875450E+04,      /* J = 78 */
(PID.TID 0000.0001)      . . .
(PID.TID 0000.0001)                 1.124321973312895E+04,      /* J = 98 */
(PID.TID 0000.0001)                 1.129800783041847E+04,      /* J = 99 */
(PID.TID 0000.0001)                 1.135276151201679E+04       /* J =100 */
(PID.TID 0000.0001)     ;
(PID.TID 0000.0001) dyU =  /* dyU(:,1,:,1) ( units: m ) */
(PID.TID 0000.0001)    50 @  1.111774733520388E+04              /* I =  1: 50 */
(PID.TID 0000.0001)     ;
(PID.TID 0000.0001) dyU =  /* dyU(1,:,1,:) ( units: m ) */
(PID.TID 0000.0001)   100 @  1.111774733520388E+04              /* J =  1:100 */
(PID.TID 0000.0001)     ;
(PID.TID 0000.0001) rA  =  /* rA (:,1,:,1) ( units: m^2 ) */
(PID.TID 0000.0001)    50 @  6.470963377080289E+07              /* I =  1: 50 */
(PID.TID 0000.0001)     ;
(PID.TID 0000.0001) rA  =  /* rA (1,:,1,:) ( units: m^2 ) */
(PID.TID 0000.0001)                 6.470963377080289E+07,      /* J =  1 */
(PID.TID 0000.0001)                 6.534679484410104E+07,      /* J =  2 */
(PID.TID 0000.0001)                 6.598375685977945E+07,      /* J =  3 */
(PID.TID 0000.0001)      . . .
(PID.TID 0000.0001)                 7.867821163932665E+07,      /* J = 23 */
(PID.TID 0000.0001)                 7.931054622142966E+07,      /* J = 24 */
(PID.TID 0000.0001)                 7.994263920984067E+07,      /* J = 25 */
(PID.TID 0000.0001)                 8.057448867913349E+07,      /* J = 26 */
(PID.TID 0000.0001)                 8.120609270456599E+07,      /* J = 27 */
(PID.TID 0000.0001)                 8.183744936212724E+07,      /* J = 28 */
(PID.TID 0000.0001)      . . .
(PID.TID 0000.0001)                 9.440967921416211E+07,      /* J = 48 */
(PID.TID 0000.0001)                 9.503539809503193E+07,      /* J = 49 */
(PID.TID 0000.0001)                 9.566082748163140E+07,      /* J = 50 */
(PID.TID 0000.0001)                 9.628596546870193E+07,      /* J = 51 */
(PID.TID 0000.0001)                 9.691081015209354E+07,      /* J = 52 */
(PID.TID 0000.0001)                 9.753535962826957E+07,      /* J = 53 */
(PID.TID 0000.0001)      . . .
(PID.TID 0000.0001)                 1.099614325987181E+08,      /* J = 73 */
(PID.TID 0000.0001)                 1.105793446869293E+08,      /* J = 74 */
(PID.TID 0000.0001)                 1.111969199312560E+08,      /* J = 75 */
(PID.TID 0000.0001)                 1.118141564504991E+08,      /* J = 76 */
(PID.TID 0000.0001)                 1.124310523644033E+08,      /* J = 77 */
(PID.TID 0000.0001)                 1.130476057938687E+08,      /* J = 78 */
(PID.TID 0000.0001)      . . .
(PID.TID 0000.0001)                 1.253038681465364E+08,      /* J = 98 */
(PID.TID 0000.0001)                 1.259127972112936E+08,      /* J = 99 */
(PID.TID 0000.0001)                 1.265213427237870E+08       /* J =100 */
(PID.TID 0000.0001)     ;
(PID.TID 0000.0001) rAw =  /* rAw(:,1,:,1) ( units: m^2 ) */
(PID.TID 0000.0001)    50 @  6.470963377080289E+07              /* I =  1: 50 */
(PID.TID 0000.0001)     ;
(PID.TID 0000.0001) rAw =  /* rAw(1,:,1,:) ( units: m^2 ) */
(PID.TID 0000.0001)                 6.470963377080289E+07,      /* J =  1 */
(PID.TID 0000.0001)                 6.534679484410104E+07,      /* J =  2 */
(PID.TID 0000.0001)                 6.598375685977945E+07,      /* J =  3 */
(PID.TID 0000.0001)      . . .
(PID.TID 0000.0001)                 7.867821163932665E+07,      /* J = 23 */
(PID.TID 0000.0001)                 7.931054622142966E+07,      /* J = 24 */
(PID.TID 0000.0001)                 7.994263920984067E+07,      /* J = 25 */
(PID.TID 0000.0001)                 8.057448867913349E+07,      /* J = 26 */
(PID.TID 0000.0001)                 8.120609270456599E+07,      /* J = 27 */
(PID.TID 0000.0001)                 8.183744936212724E+07,      /* J = 28 */
(PID.TID 0000.0001)      . . .
(PID.TID 0000.0001)                 9.440967921416211E+07,      /* J = 48 */
(PID.TID 0000.0001)                 9.503539809503193E+07,      /* J = 49 */
(PID.TID 0000.0001)                 9.566082748163140E+07,      /* J = 50 */
(PID.TID 0000.0001)                 9.628596546870193E+07,      /* J = 51 */
(PID.TID 0000.0001)                 9.691081015209354E+07,      /* J = 52 */
(PID.TID 0000.0001)                 9.753535962826957E+07,      /* J = 53 */
(PID.TID 0000.0001)      . . .
(PID.TID 0000.0001)                 1.099614325987181E+08,      /* J = 73 */
(PID.TID 0000.0001)                 1.105793446869293E+08,      /* J = 74 */
(PID.TID 0000.0001)                 1.111969199312560E+08,      /* J = 75 */
(PID.TID 0000.0001)                 1.118141564504991E+08,      /* J = 76 */
(PID.TID 0000.0001)                 1.124310523644033E+08,      /* J = 77 */
(PID.TID 0000.0001)                 1.130476057938687E+08,      /* J = 78 */
(PID.TID 0000.0001)      . . .
(PID.TID 0000.0001)                 1.253038681465364E+08,      /* J = 98 */
(PID.TID 0000.0001)                 1.259127972112936E+08,      /* J = 99 */
(PID.TID 0000.0001)                 1.265213427237870E+08       /* J =100 */
(PID.TID 0000.0001)     ;
(PID.TID 0000.0001) rAs =  /* rAs(:,1,:,1) ( units: m^2 ) */
(PID.TID 0000.0001)    50 @  6.439097919401864E+07              /* I =  1: 50 */
(PID.TID 0000.0001)     ;
(PID.TID 0000.0001) rAs =  /* rAs(1,:,1,:) ( units: m^2 ) */
(PID.TID 0000.0001)                 6.439097919401864E+07,      /* J =  1 */
(PID.TID 0000.0001)                 6.502823906837179E+07,      /* J =  2 */
(PID.TID 0000.0001)                 6.566530085543716E+07,      /* J =  3 */
(PID.TID 0000.0001)      . . .
(PID.TID 0000.0001)                 7.836195435256335E+07,      /* J = 23 */
(PID.TID 0000.0001)                 7.899440900921808E+07,      /* J = 24 */
(PID.TID 0000.0001)                 7.962662303520055E+07,      /* J = 25 */
(PID.TID 0000.0001)                 8.025859450470714E+07,      /* J = 26 */
(PID.TID 0000.0001)                 8.089032149259475E+07,      /* J = 27 */
(PID.TID 0000.0001)                 8.152180207452223E+07,      /* J = 28 */
(PID.TID 0000.0001)      . . .
(PID.TID 0000.0001)                 9.409671180895932E+07,      /* J = 48 */
(PID.TID 0000.0001)                 9.472257472228888E+07,      /* J = 49 */
(PID.TID 0000.0001)                 9.534814909420149E+07,      /* J = 50 */
(PID.TID 0000.0001)                 9.597343301913190E+07,      /* J = 51 */
(PID.TID 0000.0001)                 9.659842459236403E+07,      /* J = 52 */
(PID.TID 0000.0001)                 9.722312190998378E+07,      /* J = 53 */
(PID.TID 0000.0001)      . . .
(PID.TID 0000.0001)                 1.096523508263446E+08,      /* J = 73 */
(PID.TID 0000.0001)                 1.102704306306916E+08,      /* J = 74 */
(PID.TID 0000.0001)                 1.108881745321664E+08,      /* J = 75 */
(PID.TID 0000.0001)                 1.115055806490511E+08,      /* J = 76 */
(PID.TID 0000.0001)                 1.121226471005947E+08,      /* J = 77 */
(PID.TID 0000.0001)                 1.127393720071080E+08,      /* J = 78 */
(PID.TID 0000.0001)      . . .
(PID.TID 0000.0001)                 1.249992603617116E+08,      /* J = 98 */
(PID.TID 0000.0001)                 1.256083805070198E+08,      /* J = 99 */
(PID.TID 0000.0001)                 1.262171180274426E+08       /* J =100 */
(PID.TID 0000.0001)     ;
(PID.TID 0000.0001) globalArea = /* Integrated horizontal Area (m^2) */
(PID.TID 0000.0001)                 4.665024516720074E+11
(PID.TID 0000.0001)     ;
(PID.TID 0000.0001) // =======================================================
(PID.TID 0000.0001) // End of Model config. summary
(PID.TID 0000.0001) // =======================================================
(PID.TID 0000.0001) 
(PID.TID 0000.0001) == Packages configuration : Check & print summary ==
(PID.TID 0000.0001) 
(PID.TID 0000.0001) SHELFICE_CHECK: #define ALLOW_SHELFICE
(PID.TID 0000.0001) ICEFRONT_CHECK: #define ALLOW_ICEFRONT
(PID.TID 0000.0001) GAD_CHECK: #define ALLOW_GENERIC_ADVDIFF
(PID.TID 0000.0001) // =======================================================
(PID.TID 0000.0001) // Check Model config. (CONFIG_CHECK):
(PID.TID 0000.0001) // CONFIG_CHECK : Normal End
(PID.TID 0000.0001) // =======================================================
(PID.TID 0000.0001) 
(PID.TID 0000.0001) Start initial hydrostatic pressure computation
(PID.TID 0000.0001) Pressure is predetermined for buoyancyRelation OCEANIC
(PID.TID 0000.0001) 
(PID.TID 0000.0001)  write diagnostics summary to file ioUnit:      6
Iter.Nb:         0 ; Time(s):  0.0000000000000E+00
------------------------------------------------------------------------
2D/3D diagnostics: Number of lists:     2
------------------------------------------------------------------------
listId=    1 ; file name: shelficeDiag
 nFlds, nActive,       freq     &     phase        , nLev               
    2  |    2  |     18000.000000         0.000000 |   1
 levels:   1
 diag# | name   |   ipt  |  iMate | kLev|   count |   mate.C|           
   190 |SHIfwFlx|      1 |      0 |   1 |       0 |
   191 |SHIhtFlx|      2 |      0 |   1 |       0 |
------------------------------------------------------------------------
listId=    2 ; file name: icefrontDiag
 nFlds, nActive,       freq     &     phase        , nLev               
    2  |    2  |     18000.000000         0.000000 |  30
 levels:   1   2   3   4   5   6   7   8   9  10  11  12  13  14  15  16  17  18  19  20  21  22  23  24  25
 levels:  26  27  28  29  30
 diag# | name   |   ipt  |  iMate | kLev|   count |   mate.C|           
   198 |ICFfwFlx|      3 |      0 |  30 |       0 |
   199 |ICFhtFlx|     33 |      0 |  30 |       0 |
------------------------------------------------------------------------
Global & Regional Statistics diagnostics: Number of lists:     0
------------------------------------------------------------------------
(PID.TID 0000.0001) // =======================================================
(PID.TID 0000.0001) // Model current state
(PID.TID 0000.0001) // =======================================================
(PID.TID 0000.0001) 
(PID.TID 0000.0001) // =======================================================
(PID.TID 0000.0001) // Begin MONITOR dynamic field statistics
(PID.TID 0000.0001) // =======================================================
(PID.TID 0000.0001) %MON time_tsnumber                =                     0
(PID.TID 0000.0001) %MON time_secondsf                =   0.0000000000000E+00
(PID.TID 0000.0001) %MON dynstat_eta_max              =   0.0000000000000E+00
(PID.TID 0000.0001) %MON dynstat_eta_min              =   0.0000000000000E+00
(PID.TID 0000.0001) %MON dynstat_eta_mean             =   0.0000000000000E+00
(PID.TID 0000.0001) %MON dynstat_eta_sd               =   0.0000000000000E+00
(PID.TID 0000.0001) %MON dynstat_eta_del2             =   0.0000000000000E+00
(PID.TID 0000.0001) %MON dynstat_uvel_max             =   0.0000000000000E+00
(PID.TID 0000.0001) %MON dynstat_uvel_min             =   0.0000000000000E+00
(PID.TID 0000.0001) %MON dynstat_uvel_mean            =   0.0000000000000E+00
(PID.TID 0000.0001) %MON dynstat_uvel_sd              =   0.0000000000000E+00
(PID.TID 0000.0001) %MON dynstat_uvel_del2            =   0.0000000000000E+00
(PID.TID 0000.0001) %MON dynstat_vvel_max             =   0.0000000000000E+00
(PID.TID 0000.0001) %MON dynstat_vvel_min             =   0.0000000000000E+00
(PID.TID 0000.0001) %MON dynstat_vvel_mean            =   0.0000000000000E+00
(PID.TID 0000.0001) %MON dynstat_vvel_sd              =   0.0000000000000E+00
(PID.TID 0000.0001) %MON dynstat_vvel_del2            =   0.0000000000000E+00
(PID.TID 0000.0001) %MON dynstat_wvel_max             =  -0.0000000000000E+00
(PID.TID 0000.0001) %MON dynstat_wvel_min             =  -0.0000000000000E+00
(PID.TID 0000.0001) %MON dynstat_wvel_mean            =   0.0000000000000E+00
(PID.TID 0000.0001) %MON dynstat_wvel_sd              =   0.0000000000000E+00
(PID.TID 0000.0001) %MON dynstat_wvel_del2            =   0.0000000000000E+00
(PID.TID 0000.0001) %MON dynstat_theta_max            =  -1.9000000000000E+00
(PID.TID 0000.0001) %MON dynstat_theta_min            =  -1.9000000000000E+00
(PID.TID 0000.0001) %MON dynstat_theta_mean           =  -1.9000000000001E+00
(PID.TID 0000.0001) %MON dynstat_theta_sd             =   1.2256862191862E-13
(PID.TID 0000.0001) %MON dynstat_theta_del2           =   0.0000000000000E+00
(PID.TID 0000.0001) %MON dynstat_salt_max             =   3.4400000000000E+01
(PID.TID 0000.0001) %MON dynstat_salt_min             =   3.4400000000000E+01
(PID.TID 0000.0001) %MON dynstat_salt_mean            =   3.4400000000001E+01
(PID.TID 0000.0001) %MON dynstat_salt_sd              =   1.1084466677858E-12
(PID.TID 0000.0001) %MON dynstat_salt_del2            =   0.0000000000000E+00
(PID.TID 0000.0001) %MON advcfl_uvel_max              =   0.0000000000000E+00
(PID.TID 0000.0001) %MON advcfl_vvel_max              =   0.0000000000000E+00
(PID.TID 0000.0001) %MON advcfl_wvel_max              =   0.0000000000000E+00
(PID.TID 0000.0001) %MON advcfl_W_hf_max              =   0.0000000000000E+00
(PID.TID 0000.0001) %MON pe_b_mean                    =   0.0000000000000E+00
(PID.TID 0000.0001) %MON ke_max                       =   0.0000000000000E+00
(PID.TID 0000.0001) %MON ke_mean                      =   0.0000000000000E+00
(PID.TID 0000.0001) %MON ke_vol                       =   3.4703745874272E+14
(PID.TID 0000.0001) %MON vort_r_min                   =   0.0000000000000E+00
(PID.TID 0000.0001) %MON vort_r_max                   =   0.0000000000000E+00
(PID.TID 0000.0001) %MON vort_a_mean                  =  -1.3992981969631E-04
(PID.TID 0000.0001) %MON vort_a_sd                    =   1.7365065483553E-06
(PID.TID 0000.0001) %MON vort_p_mean                  =  -1.4746660593269E-04
(PID.TID 0000.0001) %MON vort_p_sd                    =   7.7973631850226E-05
(PID.TID 0000.0001) %MON surfExpan_theta_mean         =   0.0000000000000E+00
(PID.TID 0000.0001) %MON surfExpan_salt_mean          =   0.0000000000000E+00
(PID.TID 0000.0001) // =======================================================
(PID.TID 0000.0001) // End MONITOR dynamic field statistics
(PID.TID 0000.0001) // =======================================================
(PID.TID 0000.0001) SOLVE_FOR_PRESSURE: putPmEinXvector =    F
(PID.TID 0000.0001) SOLVE_FOR_PRESSURE: zeroPsNH=    F , zeroMeanPnh=    F
(PID.TID 0000.0001) SOLVE_FOR_PRESSURE: oldFreeSurfTerm =    F
 cg2d: Sum(rhs),rhsMax =  -8.17124146124115E-14  4.59731572276010E-09
(PID.TID 0000.0001)      cg2d_init_res =   1.44107621990967E+01
(PID.TID 0000.0001)      cg2d_iters(min,last) =      -1     212
(PID.TID 0000.0001)      cg2d_last_res =   9.39690652712236E-14
(PID.TID 0000.0001) // =======================================================
(PID.TID 0000.0001) // Begin MONITOR dynamic field statistics
(PID.TID 0000.0001) // =======================================================
(PID.TID 0000.0001) %MON time_tsnumber                =                     1
(PID.TID 0000.0001) %MON time_secondsf                =   1.8000000000000E+03
(PID.TID 0000.0001) %MON dynstat_eta_max              =   8.4447170963731E-10
(PID.TID 0000.0001) %MON dynstat_eta_min              =  -5.7950492778906E-10
(PID.TID 0000.0001) %MON dynstat_eta_mean             =  -8.6310561103006E-27
(PID.TID 0000.0001) %MON dynstat_eta_sd               =   1.7020143244462E-10
(PID.TID 0000.0001) %MON dynstat_eta_del2             =   5.0280316540713E-12
(PID.TID 0000.0001) %MON dynstat_uvel_max             =   2.1880758942175E-10
(PID.TID 0000.0001) %MON dynstat_uvel_min             =  -2.0733345171321E-10
(PID.TID 0000.0001) %MON dynstat_uvel_mean            =  -1.1795658549673E-13
(PID.TID 0000.0001) %MON dynstat_uvel_sd              =   4.0010664451119E-11
(PID.TID 0000.0001) %MON dynstat_uvel_del2            =   2.5908774779012E-13
(PID.TID 0000.0001) %MON dynstat_vvel_max             =   1.6036443264482E-10
(PID.TID 0000.0001) %MON dynstat_vvel_min             =  -1.5705571366466E-10
(PID.TID 0000.0001) %MON dynstat_vvel_mean            =   1.1301301300653E-12
(PID.TID 0000.0001) %MON dynstat_vvel_sd              =   8.1734194442066E-12
(PID.TID 0000.0001) %MON dynstat_vvel_del2            =   3.7497171362377E-14
(PID.TID 0000.0001) %MON dynstat_wvel_max             =   1.5391551333155E-12
(PID.TID 0000.0001) %MON dynstat_wvel_min             =  -1.1638111964216E-12
(PID.TID 0000.0001) %MON dynstat_wvel_mean            =   1.0980150525139E-15
(PID.TID 0000.0001) %MON dynstat_wvel_sd              =   5.5793458620641E-14
(PID.TID 0000.0001) %MON dynstat_wvel_del2            =   3.3084933957862E-16
(PID.TID 0000.0001) %MON dynstat_theta_max            =  -1.9000000000000E+00
(PID.TID 0000.0001) %MON dynstat_theta_min            =  -1.9006851721692E+00
(PID.TID 0000.0001) %MON dynstat_theta_mean           =  -1.9000057696356E+00
(PID.TID 0000.0001) %MON dynstat_theta_sd             =   4.4667251429059E-05
(PID.TID 0000.0001) %MON dynstat_theta_del2           =   5.2801656006865E-08
(PID.TID 0000.0001) %MON dynstat_salt_max             =   3.4400000000000E+01
(PID.TID 0000.0001) %MON dynstat_salt_min             =   3.4399720387688E+01
(PID.TID 0000.0001) %MON dynstat_salt_mean            =   3.4399997656731E+01
(PID.TID 0000.0001) %MON dynstat_salt_sd              =   1.8183084584171E-05
(PID.TID 0000.0001) %MON dynstat_salt_del2            =   2.1472109078898E-08
(PID.TID 0000.0001) %MON advcfl_uvel_max              =   6.2280289617623E-11
(PID.TID 0000.0001) %MON advcfl_vvel_max              =   2.5963531105502E-11
(PID.TID 0000.0001) %MON advcfl_wvel_max              =   9.2349307998929E-11
(PID.TID 0000.0001) %MON advcfl_W_hf_max              =   9.2349307998929E-11
(PID.TID 0000.0001) %MON pe_b_mean                    =   4.8942278811813E-14
(PID.TID 0000.0001) %MON ke_max                       =   2.4035943577141E-20
(PID.TID 0000.0001) %MON ke_mean                      =   8.1769497024218E-22
(PID.TID 0000.0001) %MON ke_vol                       =   3.4703745874272E+14
(PID.TID 0000.0001) %MON vort_r_min                   =  -2.7567877600667E-14
(PID.TID 0000.0001) %MON vort_r_max                   =   2.6634637115188E-14
(PID.TID 0000.0001) %MON vort_a_mean                  =  -1.3992981969631E-04
(PID.TID 0000.0001) %MON vort_a_sd                    =   1.7365065484877E-06
(PID.TID 0000.0001) %MON vort_p_mean                  =  -1.4746660593269E-04
(PID.TID 0000.0001) %MON vort_p_sd                    =   7.7973631850647E-05
(PID.TID 0000.0001) %MON surfExpan_theta_mean         =   8.9636755400190E-19
(PID.TID 0000.0001) %MON surfExpan_salt_mean          =   3.5262584795862E-19
(PID.TID 0000.0001) // =======================================================
(PID.TID 0000.0001) // End MONITOR dynamic field statistics
(PID.TID 0000.0001) // =======================================================
 cg2d: Sum(rhs),rhsMax =  -1.47922953996470E-14  1.14899245380523E-05
(PID.TID 0000.0001)      cg2d_init_res =   8.47231668196694E+00
(PID.TID 0000.0001)      cg2d_iters(min,last) =      -1     214
(PID.TID 0000.0001)      cg2d_last_res =   9.45786993871289E-14
(PID.TID 0000.0001) // =======================================================
(PID.TID 0000.0001) // Begin MONITOR dynamic field statistics
(PID.TID 0000.0001) // =======================================================
(PID.TID 0000.0001) %MON time_tsnumber                =                     2
(PID.TID 0000.0001) %MON time_secondsf                =   3.6000000000000E+03
(PID.TID 0000.0001) %MON dynstat_eta_max              =   1.4817906431458E-06
(PID.TID 0000.0001) %MON dynstat_eta_min              =  -1.5660926981158E-06
(PID.TID 0000.0001) %MON dynstat_eta_mean             =  -8.3183072535980E-24
(PID.TID 0000.0001) %MON dynstat_eta_sd               =   4.7012123461436E-07
(PID.TID 0000.0001) %MON dynstat_eta_del2             =   4.3614211766105E-09
(PID.TID 0000.0001) %MON dynstat_uvel_max             =   4.3477765858688E-07
(PID.TID 0000.0001) %MON dynstat_uvel_min             =  -1.4122590508697E-06
(PID.TID 0000.0001) %MON dynstat_uvel_mean            =   3.6003153840177E-09
(PID.TID 0000.0001) %MON dynstat_uvel_sd              =   1.0155998379981E-07
(PID.TID 0000.0001) %MON dynstat_uvel_del2            =   3.1579394878744E-10
(PID.TID 0000.0001) %MON dynstat_vvel_max             =   5.6019507288756E-06
(PID.TID 0000.0001) %MON dynstat_vvel_min             =  -7.1985636116907E-07
(PID.TID 0000.0001) %MON dynstat_vvel_mean            =  -5.0830515191689E-08
(PID.TID 0000.0001) %MON dynstat_vvel_sd              =   3.1596191226075E-07
(PID.TID 0000.0001) %MON dynstat_vvel_del2            =   8.6172787618167E-10
(PID.TID 0000.0001) %MON dynstat_wvel_max             =   1.2936037578859E-08
(PID.TID 0000.0001) %MON dynstat_wvel_min             =  -1.7882238605766E-08
(PID.TID 0000.0001) %MON dynstat_wvel_mean            =  -4.0776720430688E-11
(PID.TID 0000.0001) %MON dynstat_wvel_sd              =   1.0613162775469E-09
(PID.TID 0000.0001) %MON dynstat_wvel_del2            =   1.0249962295985E-11
(PID.TID 0000.0001) %MON dynstat_theta_max            =  -1.9000000000000E+00
(PID.TID 0000.0001) %MON dynstat_theta_min            =  -1.9013688224855E+00
(PID.TID 0000.0001) %MON dynstat_theta_mean           =  -1.9000115286764E+00
(PID.TID 0000.0001) %MON dynstat_theta_sd             =   8.9223620669776E-05
(PID.TID 0000.0001) %MON dynstat_theta_del2           =   1.0525267221067E-07
(PID.TID 0000.0001) %MON dynstat_salt_max             =   3.4400000000000E+01
(PID.TID 0000.0001) %MON dynstat_salt_min             =   3.4399441399459E+01
(PID.TID 0000.0001) %MON dynstat_salt_mean            =   3.4399995317804E+01
(PID.TID 0000.0001) %MON dynstat_salt_sd              =   3.6320751221845E-05
(PID.TID 0000.0001) %MON dynstat_salt_del2            =   4.2801372487629E-08
(PID.TID 0000.0001) %MON advcfl_uvel_max              =   4.2020927537346E-07
(PID.TID 0000.0001) %MON advcfl_vvel_max              =   9.0697431844372E-07
(PID.TID 0000.0001) %MON advcfl_wvel_max              =   1.0729343163460E-06
(PID.TID 0000.0001) %MON advcfl_W_hf_max              =   1.2006539941709E-06
(PID.TID 0000.0001) %MON pe_b_mean                    =  -1.0884433478862E-09
(PID.TID 0000.0001) %MON ke_max                       =   9.2637461529403E-12
(PID.TID 0000.0001) %MON ke_mean                      =   5.5597743611834E-14
(PID.TID 0000.0001) %MON ke_vol                       =   3.4703745874272E+14
(PID.TID 0000.0001) %MON vort_r_min                   =  -9.4776416280552E-10
(PID.TID 0000.0001) %MON vort_r_max                   =   9.3443206525660E-10
(PID.TID 0000.0001) %MON vort_a_mean                  =  -1.3992981969614E-04
(PID.TID 0000.0001) %MON vort_a_sd                    =   1.7365065512191E-06
(PID.TID 0000.0001) %MON vort_p_mean                  =  -1.4746660593251E-04
(PID.TID 0000.0001) %MON vort_p_sd                    =   7.7973619318033E-05
(PID.TID 0000.0001) %MON surfExpan_theta_mean         =  -5.9370653412195E-14
(PID.TID 0000.0001) %MON surfExpan_salt_mean          =  -2.4071663529183E-14
(PID.TID 0000.0001) // =======================================================
(PID.TID 0000.0001) // End MONITOR dynamic field statistics
(PID.TID 0000.0001) // =======================================================
 cg2d: Sum(rhs),rhsMax =   1.28785870856518E-14  1.80588105667007E-05
(PID.TID 0000.0001)      cg2d_init_res =   3.35499494416718E+00
(PID.TID 0000.0001)      cg2d_iters(min,last) =      -1     214
(PID.TID 0000.0001)      cg2d_last_res =   9.22543575028186E-14
(PID.TID 0000.0001) // =======================================================
(PID.TID 0000.0001) // Begin MONITOR dynamic field statistics
(PID.TID 0000.0001) // =======================================================
(PID.TID 0000.0001) %MON time_tsnumber                =                     3
(PID.TID 0000.0001) %MON time_secondsf                =   5.4000000000000E+03
(PID.TID 0000.0001) %MON dynstat_eta_max              =   2.4476637938583E-06
(PID.TID 0000.0001) %MON dynstat_eta_min              =  -2.8663307839684E-06
(PID.TID 0000.0001) %MON dynstat_eta_mean             =   1.5804783781836E-22
(PID.TID 0000.0001) %MON dynstat_eta_sd               =   1.1670283990907E-06
(PID.TID 0000.0001) %MON dynstat_eta_del2             =   7.0890046642934E-09
(PID.TID 0000.0001) %MON dynstat_uvel_max             =   8.7560735923584E-07
(PID.TID 0000.0001) %MON dynstat_uvel_min             =  -4.8275235999372E-06
(PID.TID 0000.0001) %MON dynstat_uvel_mean            =   9.0695640056658E-09
(PID.TID 0000.0001) %MON dynstat_uvel_sd              =   3.1708550305351E-07
(PID.TID 0000.0001) %MON dynstat_uvel_del2            =   8.1425352861281E-10
(PID.TID 0000.0001) %MON dynstat_vvel_max             =   1.3884469174285E-05
(PID.TID 0000.0001) %MON dynstat_vvel_min             =  -1.8802113655959E-06
(PID.TID 0000.0001) %MON dynstat_vvel_mean            =  -1.1980356729539E-07
(PID.TID 0000.0001) %MON dynstat_vvel_sd              =   7.8804675921069E-07
(PID.TID 0000.0001) %MON dynstat_vvel_del2            =   2.1172885673977E-09
(PID.TID 0000.0001) %MON dynstat_wvel_max             =   3.5582052149255E-08
(PID.TID 0000.0001) %MON dynstat_wvel_min             =  -3.9572907734351E-08
(PID.TID 0000.0001) %MON dynstat_wvel_mean            =  -8.3650449705235E-11
(PID.TID 0000.0001) %MON dynstat_wvel_sd              =   2.5576881564055E-09
(PID.TID 0000.0001) %MON dynstat_wvel_del2            =   2.4648687084799E-11
(PID.TID 0000.0001) %MON dynstat_theta_max            =  -1.9000000000000E+00
(PID.TID 0000.0001) %MON dynstat_theta_min            =  -1.9020515257543E+00
(PID.TID 0000.0001) %MON dynstat_theta_mean           =  -1.9000172811234E+00
(PID.TID 0000.0001) %MON dynstat_theta_sd             =   1.3371104435602E-04
(PID.TID 0000.0001) %MON dynstat_theta_del2           =   1.5748848769964E-07
(PID.TID 0000.0001) %MON dynstat_salt_max             =   3.4400000000000E+01
(PID.TID 0000.0001) %MON dynstat_salt_min             =   3.4399162799589E+01
(PID.TID 0000.0001) %MON dynstat_salt_mean            =   3.4399992981581E+01
(PID.TID 0000.0001) %MON dynstat_salt_sd              =   5.4430177670103E-05
(PID.TID 0000.0001) %MON dynstat_salt_del2            =   6.4042819433628E-08
(PID.TID 0000.0001) %MON advcfl_uvel_max              =   1.4364009156313E-06
(PID.TID 0000.0001) %MON advcfl_vvel_max              =   2.2479414003750E-06
(PID.TID 0000.0001) %MON advcfl_wvel_max              =   2.3743744640611E-06
(PID.TID 0000.0001) %MON advcfl_W_hf_max              =   2.9697933635955E-06
(PID.TID 0000.0001) %MON pe_b_mean                    =  -3.0804529541488E-09
(PID.TID 0000.0001) %MON ke_max                       =   6.2615943746077E-11
(PID.TID 0000.0001) %MON ke_mean                      =   3.6282455349584E-13
(PID.TID 0000.0001) %MON ke_vol                       =   3.4703745874272E+14
(PID.TID 0000.0001) %MON vort_r_min                   =  -2.3507700132672E-09
(PID.TID 0000.0001) %MON vort_r_max                   =   2.3163392608662E-09
(PID.TID 0000.0001) %MON vort_a_mean                  =  -1.3992981969458E-04
(PID.TID 0000.0001) %MON vort_a_sd                    =   1.7365065525891E-06
(PID.TID 0000.0001) %MON vort_p_mean                  =  -1.4746660593087E-04
(PID.TID 0000.0001) %MON vort_p_sd                    =   7.7973587782103E-05
(PID.TID 0000.0001) %MON surfExpan_theta_mean         =  -1.8393784288452E-13
(PID.TID 0000.0001) %MON surfExpan_salt_mean          =  -7.4735440868116E-14
(PID.TID 0000.0001) // =======================================================
(PID.TID 0000.0001) // End MONITOR dynamic field statistics
(PID.TID 0000.0001) // =======================================================
 cg2d: Sum(rhs),rhsMax =  -2.60902410786912E-14  2.46107948337622E-05
(PID.TID 0000.0001)      cg2d_init_res =   2.43586475487619E+00
(PID.TID 0000.0001)      cg2d_iters(min,last) =      -1     212
(PID.TID 0000.0001)      cg2d_last_res =   9.99958417587004E-14
(PID.TID 0000.0001) // =======================================================
(PID.TID 0000.0001) // Begin MONITOR dynamic field statistics
(PID.TID 0000.0001) // =======================================================
(PID.TID 0000.0001) %MON time_tsnumber                =                     4
(PID.TID 0000.0001) %MON time_secondsf                =   7.2000000000000E+03
(PID.TID 0000.0001) %MON dynstat_eta_max              =   4.0726716425645E-06
(PID.TID 0000.0001) %MON dynstat_eta_min              =  -4.1735930356464E-06
(PID.TID 0000.0001) %MON dynstat_eta_mean             =  -3.3273229014392E-23
(PID.TID 0000.0001) %MON dynstat_eta_sd               =   2.1117562118304E-06
(PID.TID 0000.0001) %MON dynstat_eta_del2             =   9.7853523905578E-09
(PID.TID 0000.0001) %MON dynstat_uvel_max             =   1.5278740566793E-06
(PID.TID 0000.0001) %MON dynstat_uvel_min             =  -1.0729872922621E-05
(PID.TID 0000.0001) %MON dynstat_uvel_mean            =   1.2990698586047E-08
(PID.TID 0000.0001) %MON dynstat_uvel_sd              =   6.9137551413020E-07
(PID.TID 0000.0001) %MON dynstat_uvel_del2            =   1.6400262270391E-09
(PID.TID 0000.0001) %MON dynstat_vvel_max             =   2.4215049844650E-05
(PID.TID 0000.0001) %MON dynstat_vvel_min             =  -3.3790895943895E-06
(PID.TID 0000.0001) %MON dynstat_vvel_mean            =  -1.9270669113785E-07
(PID.TID 0000.0001) %MON dynstat_vvel_sd              =   1.3797507087751E-06
(PID.TID 0000.0001) %MON dynstat_vvel_del2            =   3.6654041295730E-09
(PID.TID 0000.0001) %MON dynstat_wvel_max             =   6.8402884014608E-08
(PID.TID 0000.0001) %MON dynstat_wvel_min             =  -6.9454568721993E-08
(PID.TID 0000.0001) %MON dynstat_wvel_mean            =  -1.2732608700519E-10
(PID.TID 0000.0001) %MON dynstat_wvel_sd              =   4.4858428295624E-09
(PID.TID 0000.0001) %MON dynstat_wvel_del2            =   4.2453108887198E-11
(PID.TID 0000.0001) %MON dynstat_theta_max            =  -1.9000000000000E+00
(PID.TID 0000.0001) %MON dynstat_theta_min            =  -1.9027332830324E+00
(PID.TID 0000.0001) %MON dynstat_theta_mean           =  -1.9000230269845E+00
(PID.TID 0000.0001) %MON dynstat_theta_sd             =   1.7812962449591E-04
(PID.TID 0000.0001) %MON dynstat_theta_del2           =   2.0950964328946E-07
(PID.TID 0000.0001) %MON dynstat_salt_max             =   3.4400000000000E+01
(PID.TID 0000.0001) %MON dynstat_salt_min             =   3.4398884587641E+01
(PID.TID 0000.0001) %MON dynstat_salt_mean            =   3.4399990648059E+01
(PID.TID 0000.0001) %MON dynstat_salt_sd              =   7.2511405860295E-05
(PID.TID 0000.0001) %MON dynstat_salt_del2            =   8.5196710185809E-08
(PID.TID 0000.0001) %MON advcfl_uvel_max              =   3.1926098281241E-06
(PID.TID 0000.0001) %MON advcfl_vvel_max              =   3.9204965184228E-06
(PID.TID 0000.0001) %MON advcfl_wvel_max              =   4.1672741233196E-06
(PID.TID 0000.0001) %MON advcfl_W_hf_max              =   5.7409728044861E-06
(PID.TID 0000.0001) %MON pe_b_mean                    =  -5.9199539398346E-09
(PID.TID 0000.0001) %MON ke_max                       =   2.1300633157885E-10
(PID.TID 0000.0001) %MON ke_mean                      =   1.1919623460590E-12
(PID.TID 0000.0001) %MON ke_vol                       =   3.4703745874272E+14
(PID.TID 0000.0001) %MON vort_r_min                   =  -4.0998335860042E-09
(PID.TID 0000.0001) %MON vort_r_max                   =   4.0370989499461E-09
(PID.TID 0000.0001) %MON vort_a_mean                  =  -1.3992981968932E-04
(PID.TID 0000.0001) %MON vort_a_sd                    =   1.7365065507151E-06
(PID.TID 0000.0001) %MON vort_p_mean                  =  -1.4746660592532E-04
(PID.TID 0000.0001) %MON vort_p_sd                    =   7.7973532385309E-05
(PID.TID 0000.0001) %MON surfExpan_theta_mean         =  -3.7527202459817E-13
(PID.TID 0000.0001) %MON surfExpan_salt_mean          =  -1.5260051252675E-13
(PID.TID 0000.0001) // =======================================================
(PID.TID 0000.0001) // End MONITOR dynamic field statistics
(PID.TID 0000.0001) // =======================================================
 cg2d: Sum(rhs),rhsMax =  -2.22044604925031E-15  3.11161279008032E-05
(PID.TID 0000.0001)      cg2d_init_res =   1.91891016892329E+00
(PID.TID 0000.0001)      cg2d_iters(min,last) =      -1     212
(PID.TID 0000.0001)      cg2d_last_res =   7.28502294524847E-14
(PID.TID 0000.0001) // =======================================================
(PID.TID 0000.0001) // Begin MONITOR dynamic field statistics
(PID.TID 0000.0001) // =======================================================
(PID.TID 0000.0001) %MON time_tsnumber                =                     5
(PID.TID 0000.0001) %MON time_secondsf                =   9.0000000000000E+03
(PID.TID 0000.0001) %MON dynstat_eta_max              =   6.3117600442697E-06
(PID.TID 0000.0001) %MON dynstat_eta_min              =  -5.3860523998026E-06
(PID.TID 0000.0001) %MON dynstat_eta_mean             =  -1.0647433284605E-21
(PID.TID 0000.0001) %MON dynstat_eta_sd               =   3.2809599366352E-06
(PID.TID 0000.0001) %MON dynstat_eta_del2             =   1.2471794226431E-08
(PID.TID 0000.0001) %MON dynstat_uvel_max             =   2.7918198529076E-06
(PID.TID 0000.0001) %MON dynstat_uvel_min             =  -1.9426845564749E-05
(PID.TID 0000.0001) %MON dynstat_uvel_mean            =   1.3413211719071E-08
(PID.TID 0000.0001) %MON dynstat_uvel_sd              =   1.2454971090887E-06
(PID.TID 0000.0001) %MON dynstat_uvel_del2            =   2.8364125695614E-09
(PID.TID 0000.0001) %MON dynstat_vvel_max             =   3.5818866791204E-05
(PID.TID 0000.0001) %MON dynstat_vvel_min             =  -5.1027448839057E-06
(PID.TID 0000.0001) %MON dynstat_vvel_mean            =  -2.5677327445794E-07
(PID.TID 0000.0001) %MON dynstat_vvel_sd              =   2.0471522082936E-06
(PID.TID 0000.0001) %MON dynstat_vvel_del2            =   5.3861374327132E-09
(PID.TID 0000.0001) %MON dynstat_wvel_max             =   1.1719077936951E-07
(PID.TID 0000.0001) %MON dynstat_wvel_min             =  -1.1721950874834E-07
(PID.TID 0000.0001) %MON dynstat_wvel_mean            =  -1.6509087764615E-10
(PID.TID 0000.0001) %MON dynstat_wvel_sd              =   6.7415561405338E-09
(PID.TID 0000.0001) %MON dynstat_wvel_del2            =   6.2284741716180E-11
(PID.TID 0000.0001) %MON dynstat_theta_max            =  -1.9000000000000E+00
(PID.TID 0000.0001) %MON dynstat_theta_min            =  -1.9034140960019E+00
(PID.TID 0000.0001) %MON dynstat_theta_mean           =  -1.9000287662711E+00
(PID.TID 0000.0001) %MON dynstat_theta_sd             =   2.2247950764588E-04
(PID.TID 0000.0001) %MON dynstat_theta_del2           =   2.6131717010959E-07
(PID.TID 0000.0001) %MON dynstat_salt_max             =   3.4400000000000E+01
(PID.TID 0000.0001) %MON dynstat_salt_min             =   3.4398606762921E+01
(PID.TID 0000.0001) %MON dynstat_salt_mean            =   3.4399988317232E+01
(PID.TID 0000.0001) %MON dynstat_salt_sd              =   9.0564495980353E-05
(PID.TID 0000.0001) %MON dynstat_salt_del2            =   1.0626346778799E-07
(PID.TID 0000.0001) %MON advcfl_uvel_max              =   5.7803422768139E-06
(PID.TID 0000.0001) %MON advcfl_vvel_max              =   5.7991927933111E-06
(PID.TID 0000.0001) %MON advcfl_wvel_max              =   7.0331705249006E-06
(PID.TID 0000.0001) %MON advcfl_W_hf_max              =   9.5114687497203E-06
(PID.TID 0000.0001) %MON pe_b_mean                    =  -9.4671797938167E-09
(PID.TID 0000.0001) %MON ke_max                       =   5.2967956755655E-10
(PID.TID 0000.0001) %MON ke_mean                      =   2.8604914442104E-12
(PID.TID 0000.0001) %MON ke_vol                       =   3.4703745874272E+14
(PID.TID 0000.0001) %MON vort_r_min                   =  -6.0644679249187E-09
(PID.TID 0000.0001) %MON vort_r_max                   =   5.9661947094348E-09
(PID.TID 0000.0001) %MON vort_a_mean                  =  -1.3992981967853E-04
(PID.TID 0000.0001) %MON vort_a_sd                    =   1.7365065473807E-06
(PID.TID 0000.0001) %MON vort_p_mean                  =  -1.4746660591396E-04
(PID.TID 0000.0001) %MON vort_p_sd                    =   7.7973450096978E-05
(PID.TID 0000.0001) %MON surfExpan_theta_mean         =  -6.0997997388304E-13
(PID.TID 0000.0001) %MON surfExpan_salt_mean          =  -2.4813561946100E-13
(PID.TID 0000.0001) // =======================================================
(PID.TID 0000.0001) // End MONITOR dynamic field statistics
(PID.TID 0000.0001) // =======================================================
 cg2d: Sum(rhs),rhsMax =  -3.61932706027801E-14  3.75142102955915E-05
(PID.TID 0000.0001)      cg2d_init_res =   1.58338978264874E+00
(PID.TID 0000.0001)      cg2d_iters(min,last) =      -1     211
(PID.TID 0000.0001)      cg2d_last_res =   8.57510490103629E-14
(PID.TID 0000.0001) // =======================================================
(PID.TID 0000.0001) // Begin MONITOR dynamic field statistics
(PID.TID 0000.0001) // =======================================================
(PID.TID 0000.0001) %MON time_tsnumber                =                     6
(PID.TID 0000.0001) %MON time_secondsf                =   1.0800000000000E+04
(PID.TID 0000.0001) %MON dynstat_eta_max              =   8.6893658659323E-06
(PID.TID 0000.0001) %MON dynstat_eta_min              =  -6.4499504379305E-06
(PID.TID 0000.0001) %MON dynstat_eta_mean             =   3.3273229014392E-22
(PID.TID 0000.0001) %MON dynstat_eta_sd               =   4.6253008977464E-06
(PID.TID 0000.0001) %MON dynstat_eta_del2             =   1.5144915157928E-08
(PID.TID 0000.0001) %MON dynstat_uvel_max             =   4.4858444030107E-06
(PID.TID 0000.0001) %MON dynstat_uvel_min             =  -3.1016798565273E-05
(PID.TID 0000.0001) %MON dynstat_uvel_mean            =   1.0197538043718E-08
(PID.TID 0000.0001) %MON dynstat_uvel_sd              =   1.9869148584357E-06
(PID.TID 0000.0001) %MON dynstat_uvel_del2            =   4.4156088845162E-09
(PID.TID 0000.0001) %MON dynstat_vvel_max             =   4.7895662236033E-05
(PID.TID 0000.0001) %MON dynstat_vvel_min             =  -6.9295911326146E-06
(PID.TID 0000.0001) %MON dynstat_vvel_mean            =  -3.0306240153872E-07
(PID.TID 0000.0001) %MON dynstat_vvel_sd              =   2.7432290648932E-06
(PID.TID 0000.0001) %MON dynstat_vvel_del2            =   7.1586770611430E-09
(PID.TID 0000.0001) %MON dynstat_wvel_max             =   1.7894667012958E-07
(PID.TID 0000.0001) %MON dynstat_wvel_min             =  -1.7713070722025E-07
(PID.TID 0000.0001) %MON dynstat_wvel_mean            =  -1.9228103206630E-10
(PID.TID 0000.0001) %MON dynstat_wvel_sd              =   9.2300564948815E-09
(PID.TID 0000.0001) %MON dynstat_wvel_del2            =   8.2814653222636E-11
(PID.TID 0000.0001) %MON dynstat_theta_max            =  -1.9000000000000E+00
(PID.TID 0000.0001) %MON dynstat_theta_min            =  -1.9040939664861E+00
(PID.TID 0000.0001) %MON dynstat_theta_mean           =  -1.9000344989946E+00
(PID.TID 0000.0001) %MON dynstat_theta_sd             =   2.6676084048511E-04
(PID.TID 0000.0001) %MON dynstat_theta_del2           =   3.1291210933457E-07
(PID.TID 0000.0001) %MON dynstat_salt_max             =   3.4400000000000E+01
(PID.TID 0000.0001) %MON dynstat_salt_min             =   3.4398329324678E+01
(PID.TID 0000.0001) %MON dynstat_salt_mean            =   3.4399985989097E+01
(PID.TID 0000.0001) %MON dynstat_salt_sd              =   1.0858950826714E-04
(PID.TID 0000.0001) %MON dynstat_salt_del2            =   1.2724351726003E-07
(PID.TID 0000.0001) %MON advcfl_uvel_max              =   9.2288638132582E-06
(PID.TID 0000.0001) %MON advcfl_vvel_max              =   7.7544658486591E-06
(PID.TID 0000.0001) %MON advcfl_wvel_max              =   1.0736800207775E-05
(PID.TID 0000.0001) %MON advcfl_W_hf_max              =   1.4111979232154E-05
(PID.TID 0000.0001) %MON pe_b_mean                    =  -1.3524644381902E-08
(PID.TID 0000.0001) %MON ke_max                       =   1.0915688226384E-09
(PID.TID 0000.0001) %MON ke_mean                      =   5.6925460657428E-12
(PID.TID 0000.0001) %MON ke_vol                       =   3.4703745874272E+14
(PID.TID 0000.0001) %MON vort_r_min                   =  -8.1091819310288E-09
(PID.TID 0000.0001) %MON vort_r_max                   =   7.9679461628346E-09
(PID.TID 0000.0001) %MON vort_a_mean                  =  -1.3992981966248E-04
(PID.TID 0000.0001) %MON vort_a_sd                    =   1.7365065405613E-06
(PID.TID 0000.0001) %MON vort_p_mean                  =  -1.4746660589704E-04
(PID.TID 0000.0001) %MON vort_p_sd                    =   7.7973339889012E-05
(PID.TID 0000.0001) %MON surfExpan_theta_mean         =  -8.5339770073343E-13
(PID.TID 0000.0001) %MON surfExpan_salt_mean          =  -3.4721461811349E-13
(PID.TID 0000.0001) // =======================================================
(PID.TID 0000.0001) // End MONITOR dynamic field statistics
(PID.TID 0000.0001) // =======================================================
 cg2d: Sum(rhs),rhsMax =   5.77315972805081E-15  4.37883180027683E-05
(PID.TID 0000.0001)      cg2d_init_res =   1.34935860863454E+00
(PID.TID 0000.0001)      cg2d_iters(min,last) =      -1     209
(PID.TID 0000.0001)      cg2d_last_res =   9.53716837888248E-14
(PID.TID 0000.0001) // =======================================================
(PID.TID 0000.0001) // Begin MONITOR dynamic field statistics
(PID.TID 0000.0001) // =======================================================
(PID.TID 0000.0001) %MON time_tsnumber                =                     7
(PID.TID 0000.0001) %MON time_secondsf                =   1.2600000000000E+04
(PID.TID 0000.0001) %MON dynstat_eta_max              =   1.1164038948521E-05
(PID.TID 0000.0001) %MON dynstat_eta_min              =  -7.3847796569125E-06
(PID.TID 0000.0001) %MON dynstat_eta_mean             =  -3.3273229014392E-21
(PID.TID 0000.0001) %MON dynstat_eta_sd               =   6.0693127341335E-06
(PID.TID 0000.0001) %MON dynstat_eta_del2             =   1.7803996912173E-08
(PID.TID 0000.0001) %MON dynstat_uvel_max             =   6.6339712030391E-06
(PID.TID 0000.0001) %MON dynstat_uvel_min             =  -4.5390882755930E-05
(PID.TID 0000.0001) %MON dynstat_uvel_mean            =   4.5656292036094E-09
(PID.TID 0000.0001) %MON dynstat_uvel_sd              =   2.9102216543225E-06
(PID.TID 0000.0001) %MON dynstat_uvel_del2            =   6.3630081622853E-09
(PID.TID 0000.0001) %MON dynstat_vvel_max             =   5.9667524100480E-05
(PID.TID 0000.0001) %MON dynstat_vvel_min             =  -8.7416310714143E-06
(PID.TID 0000.0001) %MON dynstat_vvel_mean            =  -3.2711033197560E-07
(PID.TID 0000.0001) %MON dynstat_vvel_sd              =   3.4213601052701E-06
(PID.TID 0000.0001) %MON dynstat_vvel_del2            =   8.8689600116202E-09
(PID.TID 0000.0001) %MON dynstat_wvel_max             =   2.5245880097374E-07
(PID.TID 0000.0001) %MON dynstat_wvel_min             =  -2.4792206878900E-07
(PID.TID 0000.0001) %MON dynstat_wvel_mean            =  -2.0625941673358E-10
(PID.TID 0000.0001) %MON dynstat_wvel_sd              =   1.1862606594874E-08
(PID.TID 0000.0001) %MON dynstat_wvel_del2            =   1.0280175440601E-10
(PID.TID 0000.0001) %MON dynstat_theta_max            =  -1.9000000000000E+00
(PID.TID 0000.0001) %MON dynstat_theta_min            =  -1.9047728964870E+00
(PID.TID 0000.0001) %MON dynstat_theta_mean           =  -1.9000402251666E+00
(PID.TID 0000.0001) %MON dynstat_theta_sd             =   3.1097376984568E-04
(PID.TID 0000.0001) %MON dynstat_theta_del2           =   3.6429321238540E-07
(PID.TID 0000.0001) %MON dynstat_salt_max             =   3.4400000000000E+01
(PID.TID 0000.0001) %MON dynstat_salt_min             =   3.4398052272088E+01
(PID.TID 0000.0001) %MON dynstat_salt_mean            =   3.4399983663648E+01
(PID.TID 0000.0001) %MON dynstat_salt_sd              =   1.2658650302204E-04
(PID.TID 0000.0001) %MON dynstat_salt_del2            =   1.4813643967073E-07
(PID.TID 0000.0001) %MON advcfl_uvel_max              =   1.3505787015268E-05
(PID.TID 0000.0001) %MON advcfl_vvel_max              =   9.6603691505726E-06
(PID.TID 0000.0001) %MON advcfl_wvel_max              =   1.5147528058425E-05
(PID.TID 0000.0001) %MON advcfl_W_hf_max              =   1.9414497928204E-05
(PID.TID 0000.0001) %MON pe_b_mean                    =  -1.7854313725298E-08
(PID.TID 0000.0001) %MON ke_max                       =   1.9775480955694E-09
(PID.TID 0000.0001) %MON ke_mean                      =   9.9775418480797E-12
(PID.TID 0000.0001) %MON ke_vol                       =   3.4703745874272E+14
(PID.TID 0000.0001) %MON vort_r_min                   =  -1.0102267840465E-08
(PID.TID 0000.0001) %MON vort_r_max                   =   9.9109828187582E-09
(PID.TID 0000.0001) %MON vort_a_mean                  =  -1.3992981964354E-04
(PID.TID 0000.0001) %MON vort_a_sd                    =   1.7365065229069E-06
(PID.TID 0000.0001) %MON vort_p_mean                  =  -1.4746660587708E-04
(PID.TID 0000.0001) %MON vort_p_sd                    =   7.7973202685092E-05
(PID.TID 0000.0001) %MON surfExpan_theta_mean         =  -1.0677663206340E-12
(PID.TID 0000.0001) %MON surfExpan_salt_mean          =  -4.3445203614326E-13
(PID.TID 0000.0001) // =======================================================
(PID.TID 0000.0001) // End MONITOR dynamic field statistics
(PID.TID 0000.0001) // =======================================================
 cg2d: Sum(rhs),rhsMax =  -4.92939022933570E-14  4.99315989241194E-05
(PID.TID 0000.0001)      cg2d_init_res =   1.17695654140137E+00
(PID.TID 0000.0001)      cg2d_iters(min,last) =      -1     208
(PID.TID 0000.0001)      cg2d_last_res =   8.30112948577665E-14
(PID.TID 0000.0001) // =======================================================
(PID.TID 0000.0001) // Begin MONITOR dynamic field statistics
(PID.TID 0000.0001) // =======================================================
(PID.TID 0000.0001) %MON time_tsnumber                =                     8
(PID.TID 0000.0001) %MON time_secondsf                =   1.4400000000000E+04
(PID.TID 0000.0001) %MON dynstat_eta_max              =   1.3606652051029E-05
(PID.TID 0000.0001) %MON dynstat_eta_min              =  -8.1934357973058E-06
(PID.TID 0000.0001) %MON dynstat_eta_mean             =  -1.3309291605757E-21
(PID.TID 0000.0001) %MON dynstat_eta_sd               =   7.5259806860460E-06
(PID.TID 0000.0001) %MON dynstat_eta_del2             =   2.0448209467475E-08
(PID.TID 0000.0001) %MON dynstat_uvel_max             =   9.1742133060890E-06
(PID.TID 0000.0001) %MON dynstat_uvel_min             =  -6.2256365076891E-05
(PID.TID 0000.0001) %MON dynstat_uvel_mean            =  -1.7633067652318E-09
(PID.TID 0000.0001) %MON dynstat_uvel_sd              =   3.9982403681119E-06
(PID.TID 0000.0001) %MON dynstat_uvel_del2            =   8.6408225725771E-09
(PID.TID 0000.0001) %MON dynstat_vvel_max             =   7.0426702021821E-05
(PID.TID 0000.0001) %MON dynstat_vvel_min             =  -1.0433385389509E-05
(PID.TID 0000.0001) %MON dynstat_vvel_mean            =  -3.2845494166379E-07
(PID.TID 0000.0001) %MON dynstat_vvel_sd              =   4.0384677837738E-06
(PID.TID 0000.0001) %MON dynstat_vvel_del2            =   1.0416723138380E-08
(PID.TID 0000.0001) %MON dynstat_wvel_max             =   3.3587340180335E-07
(PID.TID 0000.0001) %MON dynstat_wvel_min             =  -3.2770743284007E-07
(PID.TID 0000.0001) %MON dynstat_wvel_mean            =  -2.0646179120005E-10
(PID.TID 0000.0001) %MON dynstat_wvel_sd              =   1.4560325703483E-08
(PID.TID 0000.0001) %MON dynstat_wvel_del2            =   1.2117380319124E-10
(PID.TID 0000.0001) %MON dynstat_theta_max            =  -1.9000000000000E+00
(PID.TID 0000.0001) %MON dynstat_theta_min            =  -1.9054508882035E+00
(PID.TID 0000.0001) %MON dynstat_theta_mean           =  -1.9000459447987E+00
(PID.TID 0000.0001) %MON dynstat_theta_sd             =   3.5511844227951E-04
(PID.TID 0000.0001) %MON dynstat_theta_del2           =   4.1546506108495E-07
(PID.TID 0000.0001) %MON dynstat_salt_max             =   3.4400000000000E+01
(PID.TID 0000.0001) %MON dynstat_salt_min             =   3.4397775604247E+01
(PID.TID 0000.0001) %MON dynstat_salt_mean            =   3.4399981340880E+01
(PID.TID 0000.0001) %MON dynstat_salt_sd              =   1.4455554044041E-04
(PID.TID 0000.0001) %MON dynstat_salt_del2            =   1.6894387165308E-07
(PID.TID 0000.0001) %MON advcfl_uvel_max              =   1.8524010903124E-05
(PID.TID 0000.0001) %MON advcfl_vvel_max              =   1.1402315578613E-05
(PID.TID 0000.0001) %MON advcfl_wvel_max              =   2.0152404108201E-05
(PID.TID 0000.0001) %MON advcfl_W_hf_max              =   2.5258738263641E-05
(PID.TID 0000.0001) %MON pe_b_mean                    =  -2.2203519022057E-08
(PID.TID 0000.0001) %MON ke_max                       =   3.2548827156561E-09
(PID.TID 0000.0001) %MON ke_mean                      =   1.5931251312914E-11
(PID.TID 0000.0001) %MON ke_vol                       =   3.4703745874272E+14
(PID.TID 0000.0001) %MON vort_r_min                   =  -1.1923896921664E-08
(PID.TID 0000.0001) %MON vort_r_max                   =   1.1676649158083E-08
(PID.TID 0000.0001) %MON vort_a_mean                  =  -1.3992981962501E-04
(PID.TID 0000.0001) %MON vort_a_sd                    =   1.7365064850211E-06
(PID.TID 0000.0001) %MON vort_p_mean                  =  -1.4746660585755E-04
(PID.TID 0000.0001) %MON vort_p_sd                    =   7.7973041153979E-05
(PID.TID 0000.0001) %MON surfExpan_theta_mean         =  -1.2202447031261E-12
(PID.TID 0000.0001) %MON surfExpan_salt_mean          =  -4.9647059054975E-13
(PID.TID 0000.0001) // =======================================================
(PID.TID 0000.0001) // End MONITOR dynamic field statistics
(PID.TID 0000.0001) // =======================================================
 cg2d: Sum(rhs),rhsMax =   3.73034936274053E-14  5.59460517843103E-05
(PID.TID 0000.0001)      cg2d_init_res =   1.04473272344773E+00
(PID.TID 0000.0001)      cg2d_iters(min,last) =      -1     208
(PID.TID 0000.0001)      cg2d_last_res =   8.02581592618425E-14
(PID.TID 0000.0001) // =======================================================
(PID.TID 0000.0001) // Begin MONITOR dynamic field statistics
(PID.TID 0000.0001) // =======================================================
(PID.TID 0000.0001) %MON time_tsnumber                =                     9
(PID.TID 0000.0001) %MON time_secondsf                =   1.6200000000000E+04
(PID.TID 0000.0001) %MON dynstat_eta_max              =   1.6328127663399E-05
(PID.TID 0000.0001) %MON dynstat_eta_min              =  -8.8464505978098E-06
(PID.TID 0000.0001) %MON dynstat_eta_mean             =   6.6546458028784E-22
(PID.TID 0000.0001) %MON dynstat_eta_sd               =   8.9137614804566E-06
(PID.TID 0000.0001) %MON dynstat_eta_del2             =   2.3076890614222E-08
(PID.TID 0000.0001) %MON dynstat_uvel_max             =   1.2044763484206E-05
(PID.TID 0000.0001) %MON dynstat_uvel_min             =  -8.1172288996290E-05
(PID.TID 0000.0001) %MON dynstat_uvel_mean            =  -7.3169689992637E-09
(PID.TID 0000.0001) %MON dynstat_uvel_sd              =   5.2237872125468E-06
(PID.TID 0000.0001) %MON dynstat_uvel_del2            =   1.1192467269955E-08
(PID.TID 0000.0001) %MON dynstat_vvel_max             =   7.9577146039844E-05
(PID.TID 0000.0001) %MON dynstat_vvel_min             =  -1.1917005292632E-05
(PID.TID 0000.0001) %MON dynstat_vvel_mean            =  -3.0975600149253E-07
(PID.TID 0000.0001) %MON dynstat_vvel_sd              =   4.5576497943470E-06
(PID.TID 0000.0001) %MON dynstat_vvel_del2            =   1.1720288748817E-08
(PID.TID 0000.0001) %MON dynstat_wvel_max             =   4.2683438794104E-07
(PID.TID 0000.0001) %MON dynstat_wvel_min             =  -4.1414285275051E-07
(PID.TID 0000.0001) %MON dynstat_wvel_mean            =  -1.9427108927258E-10
(PID.TID 0000.0001) %MON dynstat_wvel_sd              =   1.7256098509971E-08
(PID.TID 0000.0001) %MON dynstat_wvel_del2            =   1.3708360790530E-10
(PID.TID 0000.0001) %MON dynstat_theta_max            =  -1.9000000000000E+00
(PID.TID 0000.0001) %MON dynstat_theta_min            =  -1.9061279440275E+00
(PID.TID 0000.0001) %MON dynstat_theta_mean           =  -1.9000516579024E+00
(PID.TID 0000.0001) %MON dynstat_theta_sd             =   3.9919500429728E-04
(PID.TID 0000.0001) %MON dynstat_theta_del2           =   4.6642988574459E-07
(PID.TID 0000.0001) %MON dynstat_salt_max             =   3.4400000000000E+01
(PID.TID 0000.0001) %MON dynstat_salt_min             =   3.4397499320172E+01
(PID.TID 0000.0001) %MON dynstat_salt_mean            =   3.4399979020789E+01
(PID.TID 0000.0001) %MON dynstat_salt_sd              =   1.6249668068813E-04
(PID.TID 0000.0001) %MON dynstat_salt_del2            =   1.8966686081135E-07
(PID.TID 0000.0001) %MON advcfl_uvel_max              =   2.4152331485170E-05
(PID.TID 0000.0001) %MON advcfl_vvel_max              =   1.2883802676299E-05
(PID.TID 0000.0001) %MON advcfl_wvel_max              =   2.5610063276462E-05
(PID.TID 0000.0001) %MON advcfl_W_hf_max              =   3.1461832155926E-05
(PID.TID 0000.0001) %MON pe_b_mean                    =  -2.6338525457422E-08
(PID.TID 0000.0001) %MON ke_max                       =   4.9680495075950E-09
(PID.TID 0000.0001) %MON ke_mean                      =   2.3663421995421E-11
(PID.TID 0000.0001) %MON ke_vol                       =   3.4703745874272E+14
(PID.TID 0000.0001) %MON vort_r_min                   =  -1.3473152362087E-08
(PID.TID 0000.0001) %MON vort_r_max                   =   1.3165972527643E-08
(PID.TID 0000.0001) %MON vort_a_mean                  =  -1.3992981960983E-04
(PID.TID 0000.0001) %MON vort_a_sd                    =   1.7365064195662E-06
(PID.TID 0000.0001) %MON vort_p_mean                  =  -1.4746660584155E-04
(PID.TID 0000.0001) %MON vort_p_sd                    =   7.7972859404382E-05
(PID.TID 0000.0001) %MON surfExpan_theta_mean         =  -1.2896374164257E-12
(PID.TID 0000.0001) %MON surfExpan_salt_mean          =  -5.2464100913517E-13
(PID.TID 0000.0001) // =======================================================
(PID.TID 0000.0001) // End MONITOR dynamic field statistics
(PID.TID 0000.0001) // =======================================================
 cg2d: Sum(rhs),rhsMax =   5.95079541199084E-14  6.18421889730483E-05
(PID.TID 0000.0001)      cg2d_init_res =   9.39988000905696E-01
(PID.TID 0000.0001)      cg2d_iters(min,last) =      -1     208
(PID.TID 0000.0001)      cg2d_last_res =   8.94948775325795E-14
(PID.TID 0000.0001) // =======================================================
(PID.TID 0000.0001) // Begin MONITOR dynamic field statistics
(PID.TID 0000.0001) // =======================================================
(PID.TID 0000.0001) %MON time_tsnumber                =                    10
(PID.TID 0000.0001) %MON time_secondsf                =   1.8000000000000E+04
(PID.TID 0000.0001) %MON dynstat_eta_max              =   1.8901284142595E-05
(PID.TID 0000.0001) %MON dynstat_eta_min              =  -9.4627004984583E-06
(PID.TID 0000.0001) %MON dynstat_eta_mean             =   2.6618583211513E-22
(PID.TID 0000.0001) %MON dynstat_eta_sd               =   1.0169065601478E-05
(PID.TID 0000.0001) %MON dynstat_eta_del2             =   2.5689482660406E-08
(PID.TID 0000.0001) %MON dynstat_uvel_max             =   1.5164985769957E-05
(PID.TID 0000.0001) %MON dynstat_uvel_min             =  -1.0159030465599E-04
(PID.TID 0000.0001) %MON dynstat_uvel_mean            =  -1.1213858756012E-08
(PID.TID 0000.0001) %MON dynstat_uvel_sd              =   6.5519666035153E-06
(PID.TID 0000.0001) %MON dynstat_uvel_del2            =   1.3947696883258E-08
(PID.TID 0000.0001) %MON dynstat_vvel_max             =   8.6666757902317E-05
(PID.TID 0000.0001) %MON dynstat_vvel_min             =  -1.3125036831240E-05
(PID.TID 0000.0001) %MON dynstat_vvel_mean            =  -2.7584877533292E-07
(PID.TID 0000.0001) %MON dynstat_vvel_sd              =   4.9502558449728E-06
(PID.TID 0000.0001) %MON dynstat_vvel_del2            =   1.2720039087137E-08
(PID.TID 0000.0001) %MON dynstat_wvel_max             =   5.2265718286811E-07
(PID.TID 0000.0001) %MON dynstat_wvel_min             =  -5.0460517926767E-07
(PID.TID 0000.0001) %MON dynstat_wvel_mean            =  -1.7260302112497E-10
(PID.TID 0000.0001) %MON dynstat_wvel_sd              =   1.9895373644120E-08
(PID.TID 0000.0001) %MON dynstat_wvel_del2            =   1.4994931329376E-10
(PID.TID 0000.0001) %MON dynstat_theta_max            =  -1.9000000000000E+00
(PID.TID 0000.0001) %MON dynstat_theta_min            =  -1.9068040665189E+00
(PID.TID 0000.0001) %MON dynstat_theta_mean           =  -1.9000573644895E+00
(PID.TID 0000.0001) %MON dynstat_theta_sd             =   4.4320360223204E-04
(PID.TID 0000.0001) %MON dynstat_theta_del2           =   5.1718823853584E-07
(PID.TID 0000.0001) %MON dynstat_salt_max             =   3.4400000000000E+01
(PID.TID 0000.0001) %MON dynstat_salt_min             =   3.4397223418810E+01
(PID.TID 0000.0001) %MON dynstat_salt_mean            =   3.4399976703370E+01
(PID.TID 0000.0001) %MON dynstat_salt_sd              =   1.8040998385751E-04
(PID.TID 0000.0001) %MON dynstat_salt_del2            =   2.1030561974072E-07
(PID.TID 0000.0001) %MON advcfl_uvel_max              =   3.0227590524681E-05
(PID.TID 0000.0001) %MON advcfl_vvel_max              =   1.4031634243945E-05
(PID.TID 0000.0001) %MON advcfl_wvel_max              =   3.1359430972087E-05
(PID.TID 0000.0001) %MON advcfl_W_hf_max              =   3.7830285184471E-05
(PID.TID 0000.0001) %MON pe_b_mean                    =  -3.0075602178063E-08
(PID.TID 0000.0001) %MON ke_max                       =   7.1302201684492E-09
(PID.TID 0000.0001) %MON ke_mean                      =   3.3156289971436E-11
(PID.TID 0000.0001) %MON ke_vol                       =   3.4703745874272E+14
(PID.TID 0000.0001) %MON vort_r_min                   =  -1.4673489714766E-08
(PID.TID 0000.0001) %MON vort_r_max                   =   1.4304872456453E-08
(PID.TID 0000.0001) %MON vort_a_mean                  =  -1.3992981959987E-04
(PID.TID 0000.0001) %MON vort_a_sd                    =   1.7365063235307E-06
(PID.TID 0000.0001) %MON vort_p_mean                  =  -1.4746660583106E-04
(PID.TID 0000.0001) %MON vort_p_sd                    =   7.7972662623302E-05
(PID.TID 0000.0001) %MON surfExpan_theta_mean         =  -1.2703452112855E-12
(PID.TID 0000.0001) %MON surfExpan_salt_mean          =  -5.1668850157299E-13
(PID.TID 0000.0001) // =======================================================
(PID.TID 0000.0001) // End MONITOR dynamic field statistics
(PID.TID 0000.0001) // =======================================================
 Computing Diagnostic #    190  SHIfwFlx     Counter:      10   Parms: SM      L1      
 Computing Diagnostic #    191  SHIhtFlx     Counter:      10   Parms: SM      L1      
 Computing Diagnostic #    198  ICFfwFlx     Counter:      10   Parms: SM      MR      
 Computing Diagnostic #    199  ICFhtFlx     Counter:      10   Parms: SM      MR      
 cg2d: Sum(rhs),rhsMax =   1.59872115546023E-14  6.76366799251346E-05
(PID.TID 0000.0001)      cg2d_init_res =   8.54731259453917E-01
(PID.TID 0000.0001)      cg2d_iters(min,last) =      -1     208
(PID.TID 0000.0001)      cg2d_last_res =   8.87663613267421E-14
(PID.TID 0000.0001) // =======================================================
(PID.TID 0000.0001) // Begin MONITOR dynamic field statistics
(PID.TID 0000.0001) // =======================================================
(PID.TID 0000.0001) %MON time_tsnumber                =                    11
(PID.TID 0000.0001) %MON time_secondsf                =   1.9800000000000E+04
(PID.TID 0000.0001) %MON dynstat_eta_max              =   2.1178654513203E-05
(PID.TID 0000.0001) %MON dynstat_eta_min              =  -1.0222555283364E-05
(PID.TID 0000.0001) %MON dynstat_eta_mean             =  -2.3956724890362E-21
(PID.TID 0000.0001) %MON dynstat_eta_sd               =   1.1253245602018E-05
(PID.TID 0000.0001) %MON dynstat_eta_del2             =   2.8285515725216E-08
(PID.TID 0000.0001) %MON dynstat_uvel_max             =   1.8441459729768E-05
(PID.TID 0000.0001) %MON dynstat_uvel_min             =  -1.2289716895141E-04
(PID.TID 0000.0001) %MON dynstat_uvel_mean            =  -1.3139542623497E-08
(PID.TID 0000.0001) %MON dynstat_uvel_sd              =   7.9428359088943E-06
(PID.TID 0000.0001) %MON dynstat_uvel_del2            =   1.6828219759013E-08
(PID.TID 0000.0001) %MON dynstat_vvel_max             =   9.1408037940092E-05
(PID.TID 0000.0001) %MON dynstat_vvel_min             =  -1.4012171674501E-05
(PID.TID 0000.0001) %MON dynstat_vvel_mean            =  -2.3279943494208E-07
(PID.TID 0000.0001) %MON dynstat_vvel_sd              =   5.1973411012695E-06
(PID.TID 0000.0001) %MON dynstat_vvel_del2            =   1.3380564108473E-08
(PID.TID 0000.0001) %MON dynstat_wvel_max             =   6.2052489611390E-07
(PID.TID 0000.0001) %MON dynstat_wvel_min             =  -5.9637931336817E-07
(PID.TID 0000.0001) %MON dynstat_wvel_mean            =  -1.4528916527692E-10
(PID.TID 0000.0001) %MON dynstat_wvel_sd              =   2.2435878284657E-08
(PID.TID 0000.0001) %MON dynstat_wvel_del2            =   1.5947578688672E-10
(PID.TID 0000.0001) %MON dynstat_theta_max            =  -1.9000000000000E+00
(PID.TID 0000.0001) %MON dynstat_theta_min            =  -1.9074792583622E+00
(PID.TID 0000.0001) %MON dynstat_theta_mean           =  -1.9000630645716E+00
(PID.TID 0000.0001) %MON dynstat_theta_sd             =   4.8714438192935E-04
(PID.TID 0000.0001) %MON dynstat_theta_del2           =   5.6774099078456E-07
(PID.TID 0000.0001) %MON dynstat_salt_max             =   3.4400000000000E+01
(PID.TID 0000.0001) %MON dynstat_salt_min             =   3.4396947899059E+01
(PID.TID 0000.0001) %MON dynstat_salt_mean            =   3.4399974388618E+01
(PID.TID 0000.0001) %MON dynstat_salt_sd              =   1.9829550984212E-04
(PID.TID 0000.0001) %MON dynstat_salt_del2            =   2.3086050024103E-07
(PID.TID 0000.0001) %MON advcfl_uvel_max              =   3.6567321185670E-05
(PID.TID 0000.0001) %MON advcfl_vvel_max              =   1.4799263135903E-05
(PID.TID 0000.0001) %MON advcfl_wvel_max              =   3.7231493766834E-05
(PID.TID 0000.0001) %MON advcfl_W_hf_max              =   4.4173462833539E-05
(PID.TID 0000.0001) %MON pe_b_mean                    =  -3.3301363893512E-08
(PID.TID 0000.0001) %MON ke_max                       =   9.7184830565955E-09
(PID.TID 0000.0001) %MON ke_mean                      =   4.4257275417360E-11
(PID.TID 0000.0001) %MON ke_vol                       =   3.4703745874272E+14
(PID.TID 0000.0001) %MON vort_r_min                   =  -1.5476232606654E-08
(PID.TID 0000.0001) %MON vort_r_max                   =   1.5047389642333E-08
(PID.TID 0000.0001) %MON vort_a_mean                  =  -1.3992981959589E-04
(PID.TID 0000.0001) %MON vort_a_sd                    =   1.7365061987114E-06
(PID.TID 0000.0001) %MON vort_p_mean                  =  -1.4746660582687E-04
(PID.TID 0000.0001) %MON vort_p_sd                    =   7.7972456683958E-05
(PID.TID 0000.0001) %MON surfExpan_theta_mean         =  -1.1728780989811E-12
(PID.TID 0000.0001) %MON surfExpan_salt_mean          =  -4.7689960336500E-13
(PID.TID 0000.0001) // =======================================================
(PID.TID 0000.0001) // End MONITOR dynamic field statistics
(PID.TID 0000.0001) // =======================================================
 cg2d: Sum(rhs),rhsMax =   3.10862446895044E-15  7.33493383953731E-05
(PID.TID 0000.0001)      cg2d_init_res =   7.83761344442284E-01
(PID.TID 0000.0001)      cg2d_iters(min,last) =      -1     208
(PID.TID 0000.0001)      cg2d_last_res =   7.79178366695764E-14
(PID.TID 0000.0001) // =======================================================
(PID.TID 0000.0001) // Begin MONITOR dynamic field statistics
(PID.TID 0000.0001) // =======================================================
(PID.TID 0000.0001) %MON time_tsnumber                =                    12
(PID.TID 0000.0001) %MON time_secondsf                =   2.1600000000000E+04
(PID.TID 0000.0001) %MON dynstat_eta_max              =   2.3114668673145E-05
(PID.TID 0000.0001) %MON dynstat_eta_min              =  -1.0875329207835E-05
(PID.TID 0000.0001) %MON dynstat_eta_mean             =  -1.5971149926908E-21
(PID.TID 0000.0001) %MON dynstat_eta_sd               =   1.2154484064155E-05
(PID.TID 0000.0001) %MON dynstat_eta_del2             =   3.0864740950354E-08
(PID.TID 0000.0001) %MON dynstat_uvel_max             =   2.1774785543046E-05
(PID.TID 0000.0001) %MON dynstat_uvel_min             =  -1.4445846558416E-04
(PID.TID 0000.0001) %MON dynstat_uvel_mean            =  -1.3151454996693E-08
(PID.TID 0000.0001) %MON dynstat_uvel_sd              =   9.3542629835848E-06
(PID.TID 0000.0001) %MON dynstat_uvel_del2            =   1.9753409784521E-08
(PID.TID 0000.0001) %MON dynstat_vvel_max             =   9.3686280201263E-05
(PID.TID 0000.0001) %MON dynstat_vvel_min             =  -1.4556228450309E-05
(PID.TID 0000.0001) %MON dynstat_vvel_mean            =  -1.8697907316030E-07
(PID.TID 0000.0001) %MON dynstat_vvel_sd              =   5.2904385123256E-06
(PID.TID 0000.0001) %MON dynstat_vvel_del2            =   1.3690995073277E-08
(PID.TID 0000.0001) %MON dynstat_wvel_max             =   7.1768492569539E-07
(PID.TID 0000.0001) %MON dynstat_wvel_min             =  -6.8684140628210E-07
(PID.TID 0000.0001) %MON dynstat_wvel_mean            =  -1.1640346568735E-10
(PID.TID 0000.0001) %MON dynstat_wvel_sd              =   2.4846328101251E-08
(PID.TID 0000.0001) %MON dynstat_wvel_del2            =   1.6565375775852E-10
(PID.TID 0000.0001) %MON dynstat_theta_max            =  -1.9000000000000E+00
(PID.TID 0000.0001) %MON dynstat_theta_min            =  -1.9081535223100E+00
(PID.TID 0000.0001) %MON dynstat_theta_mean           =  -1.9000687581602E+00
(PID.TID 0000.0001) %MON dynstat_theta_sd             =   5.3101748851807E-04
(PID.TID 0000.0001) %MON dynstat_theta_del2           =   6.1808909798274E-07
(PID.TID 0000.0001) %MON dynstat_salt_max             =   3.4400000000000E+01
(PID.TID 0000.0001) %MON dynstat_salt_min             =   3.4396672759790E+01
(PID.TID 0000.0001) %MON dynstat_salt_mean            =   3.4399972076528E+01
(PID.TID 0000.0001) %MON dynstat_salt_sd              =   2.1615331824149E-04
(PID.TID 0000.0001) %MON dynstat_salt_del2            =   2.5133189050852E-07
(PID.TID 0000.0001) %MON advcfl_uvel_max              =   4.2982756674349E-05
(PID.TID 0000.0001) %MON advcfl_vvel_max              =   1.5168118079847E-05
(PID.TID 0000.0001) %MON advcfl_wvel_max              =   4.3061095541723E-05
(PID.TID 0000.0001) %MON advcfl_W_hf_max              =   5.0316626154253E-05
(PID.TID 0000.0001) %MON pe_b_mean                    =  -3.5979396943946E-08
(PID.TID 0000.0001) %MON ke_max                       =   1.2674013607476E-08
(PID.TID 0000.0001) %MON ke_mean                      =   5.6687284229072E-11
(PID.TID 0000.0001) %MON ke_vol                       =   3.4703745874272E+14
(PID.TID 0000.0001) %MON vort_r_min                   =  -1.5861960251211E-08
(PID.TID 0000.0001) %MON vort_r_max                   =   1.5376838415470E-08
(PID.TID 0000.0001) %MON vort_a_mean                  =  -1.3992981959778E-04
(PID.TID 0000.0001) %MON vort_a_sd                    =   1.7365060496318E-06
(PID.TID 0000.0001) %MON vort_p_mean                  =  -1.4746660582885E-04
(PID.TID 0000.0001) %MON vort_p_sd                    =   7.7972247741147E-05
(PID.TID 0000.0001) %MON surfExpan_theta_mean         =  -1.0211907292097E-12
(PID.TID 0000.0001) %MON surfExpan_salt_mean          =  -4.1503582574531E-13
(PID.TID 0000.0001) // =======================================================
(PID.TID 0000.0001) // End MONITOR dynamic field statistics
(PID.TID 0000.0001) // =======================================================
 cg2d: Sum(rhs),rhsMax =   6.17284001691587E-14  7.90001846715575E-05
(PID.TID 0000.0001)      cg2d_init_res =   7.23563758109532E-01
(PID.TID 0000.0001)      cg2d_iters(min,last) =      -1     205
(PID.TID 0000.0001)      cg2d_last_res =   8.96388060980334E-14
(PID.TID 0000.0001) // =======================================================
(PID.TID 0000.0001) // Begin MONITOR dynamic field statistics
(PID.TID 0000.0001) // =======================================================
(PID.TID 0000.0001) %MON time_tsnumber                =                    13
(PID.TID 0000.0001) %MON time_secondsf                =   2.3400000000000E+04
(PID.TID 0000.0001) %MON dynstat_eta_max              =   2.4682162467301E-05
(PID.TID 0000.0001) %MON dynstat_eta_min              =  -1.1377370957176E-05
(PID.TID 0000.0001) %MON dynstat_eta_mean             =   5.3237166423027E-21
(PID.TID 0000.0001) %MON dynstat_eta_sd               =   1.2885360967704E-05
(PID.TID 0000.0001) %MON dynstat_eta_del2             =   3.3427128841826E-08
(PID.TID 0000.0001) %MON dynstat_uvel_max             =   2.5066515728746E-05
(PID.TID 0000.0001) %MON dynstat_uvel_min             =  -1.6565758207150E-04
(PID.TID 0000.0001) %MON dynstat_uvel_mean            =  -1.1493395196712E-08
(PID.TID 0000.0001) %MON dynstat_uvel_sd              =   1.0744788467255E-05
(PID.TID 0000.0001) %MON dynstat_uvel_del2            =   2.2645742467555E-08
(PID.TID 0000.0001) %MON dynstat_vvel_max             =   9.3555756186028E-05
(PID.TID 0000.0001) %MON dynstat_vvel_min             =  -1.4758286598428E-05
(PID.TID 0000.0001) %MON dynstat_vvel_mean            =  -1.4422008633643E-07
(PID.TID 0000.0001) %MON dynstat_vvel_sd              =   5.2316326303302E-06
(PID.TID 0000.0001) %MON dynstat_vvel_del2            =   1.3663742219733E-08
(PID.TID 0000.0001) %MON dynstat_wvel_max             =   8.1162621856354E-07
(PID.TID 0000.0001) %MON dynstat_wvel_min             =  -7.7362420698409E-07
(PID.TID 0000.0001) %MON dynstat_wvel_mean            =  -8.9660926679018E-11
(PID.TID 0000.0001) %MON dynstat_wvel_sd              =   2.7104718306716E-08
(PID.TID 0000.0001) %MON dynstat_wvel_del2            =   1.6873981311493E-10
(PID.TID 0000.0001) %MON dynstat_theta_max            =  -1.9000000000000E+00
(PID.TID 0000.0001) %MON dynstat_theta_min            =  -1.9088268611212E+00
(PID.TID 0000.0001) %MON dynstat_theta_mean           =  -1.9000744452667E+00
(PID.TID 0000.0001) %MON dynstat_theta_sd             =   5.7482306626244E-04
(PID.TID 0000.0001) %MON dynstat_theta_del2           =   6.6823353271917E-07
(PID.TID 0000.0001) %MON dynstat_salt_max             =   3.4400000000000E+01
(PID.TID 0000.0001) %MON dynstat_salt_min             =   3.4396397999870E+01
(PID.TID 0000.0001) %MON dynstat_salt_mean            =   3.4399969767096E+01
(PID.TID 0000.0001) %MON dynstat_salt_sd              =   2.3398346830089E-04
(PID.TID 0000.0001) %MON dynstat_salt_del2            =   2.7172018647031E-07
(PID.TID 0000.0001) %MON advcfl_uvel_max              =   4.9290427616318E-05
(PID.TID 0000.0001) %MON advcfl_vvel_max              =   1.5146985810841E-05
(PID.TID 0000.0001) %MON advcfl_wvel_max              =   4.8697573113813E-05
(PID.TID 0000.0001) %MON advcfl_W_hf_max              =   5.6111792969806E-05
(PID.TID 0000.0001) %MON pe_b_mean                    =  -3.8144408372701E-08
(PID.TID 0000.0001) %MON ke_max                       =   1.5906897405422E-08
(PID.TID 0000.0001) %MON ke_mean                      =   7.0063871418643E-11
(PID.TID 0000.0001) %MON ke_vol                       =   3.4703745874272E+14
(PID.TID 0000.0001) %MON vort_r_min                   =  -1.5839861319147E-08
(PID.TID 0000.0001) %MON vort_r_max                   =   1.5304934138527E-08
(PID.TID 0000.0001) %MON vort_a_mean                  =  -1.3992981960475E-04
(PID.TID 0000.0001) %MON vort_a_sd                    =   1.7365058835684E-06
(PID.TID 0000.0001) %MON vort_p_mean                  =  -1.4746660583620E-04
(PID.TID 0000.0001) %MON vort_p_sd                    =   7.7972041831702E-05
(PID.TID 0000.0001) %MON surfExpan_theta_mean         =  -8.4775741230183E-13
(PID.TID 0000.0001) %MON surfExpan_salt_mean          =  -3.4432732077329E-13
(PID.TID 0000.0001) // =======================================================
(PID.TID 0000.0001) // End MONITOR dynamic field statistics
(PID.TID 0000.0001) // =======================================================
 cg2d: Sum(rhs),rhsMax =  -5.81756864903582E-14  8.46073703768290E-05
(PID.TID 0000.0001)      cg2d_init_res =   6.71701226971405E-01
(PID.TID 0000.0001)      cg2d_iters(min,last) =      -1     206
(PID.TID 0000.0001)      cg2d_last_res =   9.79084582513438E-14
(PID.TID 0000.0001) // =======================================================
(PID.TID 0000.0001) // Begin MONITOR dynamic field statistics
(PID.TID 0000.0001) // =======================================================
(PID.TID 0000.0001) %MON time_tsnumber                =                    14
(PID.TID 0000.0001) %MON time_secondsf                =   2.5200000000000E+04
(PID.TID 0000.0001) %MON dynstat_eta_max              =   2.5990381238862E-05
(PID.TID 0000.0001) %MON dynstat_eta_min              =  -1.1730058235783E-05
(PID.TID 0000.0001) %MON dynstat_eta_mean             =  -2.3956724890362E-21
(PID.TID 0000.0001) %MON dynstat_eta_sd               =   1.3477318858681E-05
(PID.TID 0000.0001) %MON dynstat_eta_del2             =   3.5972834117546E-08
(PID.TID 0000.0001) %MON dynstat_uvel_max             =   2.8225637446444E-05
(PID.TID 0000.0001) %MON dynstat_uvel_min             =  -1.8593671055366E-04
(PID.TID 0000.0001) %MON dynstat_uvel_mean            =  -8.4963487873062E-09
(PID.TID 0000.0001) %MON dynstat_uvel_sd              =   1.2076306603985E-05
(PID.TID 0000.0001) %MON dynstat_uvel_del2            =   2.5435625355319E-08
(PID.TID 0000.0001) %MON dynstat_vvel_max             =   9.1225140418892E-05
(PID.TID 0000.0001) %MON dynstat_vvel_min             =  -1.4640435219833E-05
(PID.TID 0000.0001) %MON dynstat_vvel_mean            =  -1.0915266180241E-07
(PID.TID 0000.0001) %MON dynstat_vvel_sd              =   5.0329571998606E-06
(PID.TID 0000.0001) %MON dynstat_vvel_del2            =   1.3331872122123E-08
(PID.TID 0000.0001) %MON dynstat_wvel_max             =   9.0022502471753E-07
(PID.TID 0000.0001) %MON dynstat_wvel_min             =  -8.5475361905700E-07
(PID.TID 0000.0001) %MON dynstat_wvel_mean            =  -6.7974235772089E-11
(PID.TID 0000.0001) %MON dynstat_wvel_sd              =   2.9196562127456E-08
(PID.TID 0000.0001) %MON dynstat_wvel_del2            =   1.6921814067551E-10
(PID.TID 0000.0001) %MON dynstat_theta_max            =  -1.9000000000000E+00
(PID.TID 0000.0001) %MON dynstat_theta_min            =  -1.9094992774996E+00
(PID.TID 0000.0001) %MON dynstat_theta_mean           =  -1.9000801259025E+00
(PID.TID 0000.0001) %MON dynstat_theta_sd             =   6.1856125849458E-04
(PID.TID 0000.0001) %MON dynstat_theta_del2           =   7.1817526643828E-07
(PID.TID 0000.0001) %MON dynstat_salt_max             =   3.4400000000000E+01
(PID.TID 0000.0001) %MON dynstat_salt_min             =   3.4396123618188E+01
(PID.TID 0000.0001) %MON dynstat_salt_mean            =   3.4399967460318E+01
(PID.TID 0000.0001) %MON dynstat_salt_sd              =   2.5178601888374E-04
(PID.TID 0000.0001) %MON dynstat_salt_del2            =   2.9202578399082E-07
(PID.TID 0000.0001) %MON advcfl_uvel_max              =   5.5324361602755E-05
(PID.TID 0000.0001) %MON advcfl_vvel_max              =   1.4769651423365E-05
(PID.TID 0000.0001) %MON advcfl_wvel_max              =   5.4013501483052E-05
(PID.TID 0000.0001) %MON advcfl_W_hf_max              =   6.1445595785360E-05
(PID.TID 0000.0001) %MON pe_b_mean                    =  -3.9887351941969E-08
(PID.TID 0000.0001) %MON ke_max                       =   1.9305149407630E-08
(PID.TID 0000.0001) %MON ke_mean                      =   8.3936390556570E-11
(PID.TID 0000.0001) %MON ke_vol                       =   3.4703745874272E+14
(PID.TID 0000.0001) %MON vort_r_min                   =  -1.5445266351989E-08
(PID.TID 0000.0001) %MON vort_r_max                   =   1.4869091605807E-08
(PID.TID 0000.0001) %MON vort_a_mean                  =  -1.3992981961560E-04
(PID.TID 0000.0001) %MON vort_a_sd                    =   1.7365057095309E-06
(PID.TID 0000.0001) %MON vort_p_mean                  =  -1.4746660584763E-04
(PID.TID 0000.0001) %MON vort_p_sd                    =   7.7971844500659E-05
(PID.TID 0000.0001) %MON surfExpan_theta_mean         =  -6.8762945811623E-13
(PID.TID 0000.0001) %MON surfExpan_salt_mean          =  -2.7905228302816E-13
(PID.TID 0000.0001) // =======================================================
(PID.TID 0000.0001) // End MONITOR dynamic field statistics
(PID.TID 0000.0001) // =======================================================
 cg2d: Sum(rhs),rhsMax =  -2.30926389122033E-14  9.01859496601670E-05
(PID.TID 0000.0001)      cg2d_init_res =   6.26445114491907E-01
(PID.TID 0000.0001)      cg2d_iters(min,last) =      -1     206
(PID.TID 0000.0001)      cg2d_last_res =   9.74871270548174E-14
(PID.TID 0000.0001) // =======================================================
(PID.TID 0000.0001) // Begin MONITOR dynamic field statistics
(PID.TID 0000.0001) // =======================================================
(PID.TID 0000.0001) %MON time_tsnumber                =                    15
(PID.TID 0000.0001) %MON time_secondsf                =   2.7000000000000E+04
(PID.TID 0000.0001) %MON dynstat_eta_max              =   2.7010996114887E-05
(PID.TID 0000.0001) %MON dynstat_eta_min              =  -1.1978889967771E-05
(PID.TID 0000.0001) %MON dynstat_eta_mean             =  -4.7913449780724E-21
(PID.TID 0000.0001) %MON dynstat_eta_sd               =   1.3973514637954E-05
(PID.TID 0000.0001) %MON dynstat_eta_del2             =   3.8502146834960E-08
(PID.TID 0000.0001) %MON dynstat_uvel_max             =   3.1174169688595E-05
(PID.TID 0000.0001) %MON dynstat_uvel_min             =  -2.0482933893777E-04
(PID.TID 0000.0001) %MON dynstat_uvel_mean            =  -4.5490025503292E-09
(PID.TID 0000.0001) %MON dynstat_uvel_sd              =   1.3316396566833E-05
(PID.TID 0000.0001) %MON dynstat_uvel_del2            =   2.8065352163094E-08
(PID.TID 0000.0001) %MON dynstat_vvel_max             =   8.7033914789362E-05
(PID.TID 0000.0001) %MON dynstat_vvel_min             =  -1.4273286694578E-05
(PID.TID 0000.0001) %MON dynstat_vvel_mean            =  -8.4801401617851E-08
(PID.TID 0000.0001) %MON dynstat_vvel_sd              =   4.7151832985879E-06
(PID.TID 0000.0001) %MON dynstat_vvel_del2            =   1.2745384728774E-08
(PID.TID 0000.0001) %MON dynstat_wvel_max             =   9.8185333300757E-07
(PID.TID 0000.0001) %MON dynstat_wvel_min             =  -9.2874958325912E-07
(PID.TID 0000.0001) %MON dynstat_wvel_mean            =  -5.3206721923237E-11
(PID.TID 0000.0001) %MON dynstat_wvel_sd              =   3.1113394789564E-08
(PID.TID 0000.0001) %MON dynstat_wvel_del2            =   1.6774457113170E-10
(PID.TID 0000.0001) %MON dynstat_theta_max            =  -1.9000000000000E+00
(PID.TID 0000.0001) %MON dynstat_theta_min            =  -1.9101707740371E+00
(PID.TID 0000.0001) %MON dynstat_theta_mean           =  -1.9000858000788E+00
(PID.TID 0000.0001) %MON dynstat_theta_sd             =   6.6223220763224E-04
(PID.TID 0000.0001) %MON dynstat_theta_del2           =   7.6791526398345E-07
(PID.TID 0000.0001) %MON dynstat_salt_max             =   3.4400000000000E+01
(PID.TID 0000.0001) %MON dynstat_salt_min             =   3.4395849613680E+01
(PID.TID 0000.0001) %MON dynstat_salt_mean            =   3.4399965156187E+01
(PID.TID 0000.0001) %MON dynstat_salt_sd              =   2.6956102847881E-04
(PID.TID 0000.0001) %MON dynstat_salt_del2            =   3.1224907650439E-07
(PID.TID 0000.0001) %MON advcfl_uvel_max              =   6.0945750736920E-05
(PID.TID 0000.0001) %MON advcfl_vvel_max              =   1.4091078156165E-05
(PID.TID 0000.0001) %MON advcfl_wvel_max              =   5.8911199980454E-05
(PID.TID 0000.0001) %MON advcfl_W_hf_max              =   6.6244005514895E-05
(PID.TID 0000.0001) %MON pe_b_mean                    =  -4.1335635486196E-08
(PID.TID 0000.0001) %MON ke_max                       =   2.2746604348831E-08
(PID.TID 0000.0001) %MON ke_mean                      =   9.7828700626339E-11
(PID.TID 0000.0001) %MON ke_vol                       =   3.4703745874272E+14
(PID.TID 0000.0001) %MON vort_r_min                   =  -1.4735652797084E-08
(PID.TID 0000.0001) %MON vort_r_max                   =   1.4128206705863E-08
(PID.TID 0000.0001) %MON vort_a_mean                  =  -1.3992981962874E-04
(PID.TID 0000.0001) %MON vort_a_sd                    =   1.7365055371092E-06
(PID.TID 0000.0001) %MON vort_p_mean                  =  -1.4746660586148E-04
(PID.TID 0000.0001) %MON vort_p_sd                    =   7.7971660475076E-05
(PID.TID 0000.0001) %MON surfExpan_theta_mean         =  -5.7271660912835E-13
(PID.TID 0000.0001) %MON surfExpan_salt_mean          =  -2.3220776610792E-13
(PID.TID 0000.0001) // =======================================================
(PID.TID 0000.0001) // End MONITOR dynamic field statistics
(PID.TID 0000.0001) // =======================================================
 cg2d: Sum(rhs),rhsMax =  -2.53130849614536E-14  9.57473156251790E-05
(PID.TID 0000.0001)      cg2d_init_res =   5.86542290945583E-01
(PID.TID 0000.0001)      cg2d_iters(min,last) =      -1     205
(PID.TID 0000.0001)      cg2d_last_res =   9.56661086372384E-14
(PID.TID 0000.0001) // =======================================================
(PID.TID 0000.0001) // Begin MONITOR dynamic field statistics
(PID.TID 0000.0001) // =======================================================
(PID.TID 0000.0001) %MON time_tsnumber                =                    16
(PID.TID 0000.0001) %MON time_secondsf                =   2.8800000000000E+04
(PID.TID 0000.0001) %MON dynstat_eta_max              =   2.7819869373242E-05
(PID.TID 0000.0001) %MON dynstat_eta_min              =  -1.2277664121563E-05
(PID.TID 0000.0001) %MON dynstat_eta_mean             =  -3.7266016496119E-21
(PID.TID 0000.0001) %MON dynstat_eta_sd               =   1.4421512514399E-05
(PID.TID 0000.0001) %MON dynstat_eta_del2             =   4.1015441871247E-08
(PID.TID 0000.0001) %MON dynstat_uvel_max             =   3.3851573278251E-05
(PID.TID 0000.0001) %MON dynstat_uvel_min             =  -2.2198660431687E-04
(PID.TID 0000.0001) %MON dynstat_uvel_mean            =  -8.7024348399608E-11
(PID.TID 0000.0001) %MON dynstat_uvel_sd              =   1.4440167628047E-05
(PID.TID 0000.0001) %MON dynstat_uvel_del2            =   3.0491983523995E-08
(PID.TID 0000.0001) %MON dynstat_vvel_max             =   8.1421835068949E-05
(PID.TID 0000.0001) %MON dynstat_vvel_min             =  -1.3729358788820E-05
(PID.TID 0000.0001) %MON dynstat_vvel_mean            =  -7.2468685578561E-08
(PID.TID 0000.0001) %MON dynstat_vvel_sd              =   4.3061038990373E-06
(PID.TID 0000.0001) %MON dynstat_vvel_del2            =   1.1966696240172E-08
(PID.TID 0000.0001) %MON dynstat_wvel_max             =   1.0554475552456E-06
(PID.TID 0000.0001) %MON dynstat_wvel_min             =  -9.9468794278739E-07
(PID.TID 0000.0001) %MON dynstat_wvel_mean            =  -4.6118467287737E-11
(PID.TID 0000.0001) %MON dynstat_wvel_sd              =   3.2851786762441E-08
(PID.TID 0000.0001) %MON dynstat_wvel_del2            =   1.6507388991872E-10
(PID.TID 0000.0001) %MON dynstat_theta_max            =  -1.9000000000000E+00
(PID.TID 0000.0001) %MON dynstat_theta_min            =  -1.9108413531669E+00
(PID.TID 0000.0001) %MON dynstat_theta_mean           =  -1.9000914678066E+00
(PID.TID 0000.0001) %MON dynstat_theta_sd             =   7.0583605527005E-04
(PID.TID 0000.0001) %MON dynstat_theta_del2           =   8.1745448354292E-07
(PID.TID 0000.0001) %MON dynstat_salt_max             =   3.4400000000000E+01
(PID.TID 0000.0001) %MON dynstat_salt_min             =   3.4395575985346E+01
(PID.TID 0000.0001) %MON dynstat_salt_mean            =   3.4399962854701E+01
(PID.TID 0000.0001) %MON dynstat_salt_sd              =   2.8730855523756E-04
(PID.TID 0000.0001) %MON dynstat_salt_del2            =   3.3239045491774E-07
(PID.TID 0000.0001) %MON advcfl_uvel_max              =   6.6050792937147E-05
(PID.TID 0000.0001) %MON advcfl_vvel_max              =   1.3182463920549E-05
(PID.TID 0000.0001) %MON advcfl_wvel_max              =   6.3326853314739E-05
(PID.TID 0000.0001) %MON advcfl_W_hf_max              =   7.0474081729699E-05
(PID.TID 0000.0001) %MON pe_b_mean                    =  -4.2632242040652E-08
(PID.TID 0000.0001) %MON ke_max                       =   2.6112221750815E-08
(PID.TID 0000.0001) %MON ke_mean                      =   1.1128433501731E-10
(PID.TID 0000.0001) %MON ke_vol                       =   3.4703745874272E+14
(PID.TID 0000.0001) %MON vort_r_min                   =  -1.3785475404401E-08
(PID.TID 0000.0001) %MON vort_r_max                   =   1.3157310422838E-08
(PID.TID 0000.0001) %MON vort_a_mean                  =  -1.3992981964243E-04
(PID.TID 0000.0001) %MON vort_a_sd                    =   1.7365053762466E-06
(PID.TID 0000.0001) %MON vort_p_mean                  =  -1.4746660587591E-04
(PID.TID 0000.0001) %MON vort_p_sd                    =   7.7971493404980E-05
(PID.TID 0000.0001) %MON surfExpan_theta_mean         =  -5.2727526199431E-13
(PID.TID 0000.0001) %MON surfExpan_salt_mean          =  -2.1367217713082E-13
(PID.TID 0000.0001) // =======================================================
(PID.TID 0000.0001) // End MONITOR dynamic field statistics
(PID.TID 0000.0001) // =======================================================
 cg2d: Sum(rhs),rhsMax =  -4.44089209850063E-15  1.01710177037567E-04
(PID.TID 0000.0001)      cg2d_init_res =   5.48836391303791E-01
(PID.TID 0000.0001)      cg2d_iters(min,last) =      -1     204
(PID.TID 0000.0001)      cg2d_last_res =   9.76735757559556E-14
(PID.TID 0000.0001) // =======================================================
(PID.TID 0000.0001) // Begin MONITOR dynamic field statistics
(PID.TID 0000.0001) // =======================================================
(PID.TID 0000.0001) %MON time_tsnumber                =                    17
(PID.TID 0000.0001) %MON time_secondsf                =   3.0600000000000E+04
(PID.TID 0000.0001) %MON dynstat_eta_max              =   2.8503023130595E-05
(PID.TID 0000.0001) %MON dynstat_eta_min              =  -1.2960387133283E-05
(PID.TID 0000.0001) %MON dynstat_eta_mean             =  -3.1942299853816E-21
(PID.TID 0000.0001) %MON dynstat_eta_sd               =   1.4866965325836E-05
(PID.TID 0000.0001) %MON dynstat_eta_del2             =   4.3513133920336E-08
(PID.TID 0000.0001) %MON dynstat_uvel_max             =   3.6217777585380E-05
(PID.TID 0000.0001) %MON dynstat_uvel_min             =  -2.3719092153944E-04
(PID.TID 0000.0001) %MON dynstat_uvel_mean            =   4.4342628818859E-09
(PID.TID 0000.0001) %MON dynstat_uvel_sd              =   1.5431520765185E-05
(PID.TID 0000.0001) %MON dynstat_uvel_del2            =   3.2689039581315E-08
(PID.TID 0000.0001) %MON dynstat_vvel_max             =   7.4893819717058E-05
(PID.TID 0000.0001) %MON dynstat_vvel_min             =  -1.3034160846205E-05
(PID.TID 0000.0001) %MON dynstat_vvel_mean            =  -7.1873630536972E-08
(PID.TID 0000.0001) %MON dynstat_vvel_sd              =   3.8384467922243E-06
(PID.TID 0000.0001) %MON dynstat_vvel_del2            =   1.1065648713909E-08
(PID.TID 0000.0001) %MON dynstat_wvel_max             =   1.1205368177232E-06
(PID.TID 0000.0001) %MON dynstat_wvel_min             =  -1.0657978925390E-06
(PID.TID 0000.0001) %MON dynstat_wvel_mean            =  -4.6471713107700E-11
(PID.TID 0000.0001) %MON dynstat_wvel_sd              =   3.4412990624027E-08
(PID.TID 0000.0001) %MON dynstat_wvel_del2            =   1.6197360217155E-10
(PID.TID 0000.0001) %MON dynstat_theta_max            =  -1.9000000000000E+00
(PID.TID 0000.0001) %MON dynstat_theta_min            =  -1.9115110171291E+00
(PID.TID 0000.0001) %MON dynstat_theta_mean           =  -1.9000971290970E+00
(PID.TID 0000.0001) %MON dynstat_theta_sd             =   7.4937294232178E-04
(PID.TID 0000.0001) %MON dynstat_theta_del2           =   8.6679387898748E-07
(PID.TID 0000.0001) %MON dynstat_salt_max             =   3.4400000000000E+01
(PID.TID 0000.0001) %MON dynstat_salt_min             =   3.4395302732266E+01
(PID.TID 0000.0001) %MON dynstat_salt_mean            =   3.4399960555854E+01
(PID.TID 0000.0001) %MON dynstat_salt_sd              =   3.0502865703215E-04
(PID.TID 0000.0001) %MON dynstat_salt_del2            =   3.5245030851672E-07
(PID.TID 0000.0001) %MON advcfl_uvel_max              =   7.0574747036581E-05
(PID.TID 0000.0001) %MON advcfl_vvel_max              =   1.2125556682138E-05
(PID.TID 0000.0001) %MON advcfl_wvel_max              =   6.7232209063392E-05
(PID.TID 0000.0001) %MON advcfl_W_hf_max              =   7.4142976491220E-05
(PID.TID 0000.0001) %MON pe_b_mean                    =  -4.3916824276247E-08
(PID.TID 0000.0001) %MON ke_max                       =   2.9298607402998E-08
(PID.TID 0000.0001) %MON ke_mean                      =   1.2390925231446E-10
(PID.TID 0000.0001) %MON ke_vol                       =   3.4703745874272E+14
(PID.TID 0000.0001) %MON vort_r_min                   =  -1.2680221574186E-08
(PID.TID 0000.0001) %MON vort_r_max                   =   1.2050617003004E-08
(PID.TID 0000.0001) %MON vort_a_mean                  =  -1.3992981965488E-04
(PID.TID 0000.0001) %MON vort_a_sd                    =   1.7365052357363E-06
(PID.TID 0000.0001) %MON vort_p_mean                  =  -1.4746660588903E-04
(PID.TID 0000.0001) %MON vort_p_sd                    =   7.7971345685259E-05
(PID.TID 0000.0001) %MON surfExpan_theta_mean         =  -5.6517801892911E-13
(PID.TID 0000.0001) %MON surfExpan_salt_mean          =  -2.2909343270941E-13
(PID.TID 0000.0001) // =======================================================
(PID.TID 0000.0001) // End MONITOR dynamic field statistics
(PID.TID 0000.0001) // =======================================================
 cg2d: Sum(rhs),rhsMax =  -4.52970994047064E-14  1.07811905066070E-04
(PID.TID 0000.0001)      cg2d_init_res =   5.14648590975334E-01
(PID.TID 0000.0001)      cg2d_iters(min,last) =      -1     204
(PID.TID 0000.0001)      cg2d_last_res =   8.63946910109407E-14
(PID.TID 0000.0001) // =======================================================
(PID.TID 0000.0001) // Begin MONITOR dynamic field statistics
(PID.TID 0000.0001) // =======================================================
(PID.TID 0000.0001) %MON time_tsnumber                =                    18
(PID.TID 0000.0001) %MON time_secondsf                =   3.2400000000000E+04
(PID.TID 0000.0001) %MON dynstat_eta_max              =   2.9146800040323E-05
(PID.TID 0000.0001) %MON dynstat_eta_min              =  -1.3562212693039E-05
(PID.TID 0000.0001) %MON dynstat_eta_mean             =  -1.3309291605757E-21
(PID.TID 0000.0001) %MON dynstat_eta_sd               =   1.5348963459408E-05
(PID.TID 0000.0001) %MON dynstat_eta_del2             =   4.5995643661264E-08
(PID.TID 0000.0001) %MON dynstat_uvel_max             =   3.8254714456120E-05
(PID.TID 0000.0001) %MON dynstat_uvel_min             =  -2.5036417203074E-04
(PID.TID 0000.0001) %MON dynstat_uvel_mean            =   8.5876296570229E-09
(PID.TID 0000.0001) %MON dynstat_uvel_sd              =   1.6283772444192E-05
(PID.TID 0000.0001) %MON dynstat_uvel_del2            =   3.4646975396843E-08
(PID.TID 0000.0001) %MON dynstat_vvel_max             =   6.7982785255476E-05
(PID.TID 0000.0001) %MON dynstat_vvel_min             =  -1.2252640492759E-05
(PID.TID 0000.0001) %MON dynstat_vvel_mean            =  -8.1475897717500E-08
(PID.TID 0000.0001) %MON dynstat_vvel_sd              =   3.3475526485454E-06
(PID.TID 0000.0001) %MON dynstat_vvel_del2            =   1.0114356951247E-08
(PID.TID 0000.0001) %MON dynstat_wvel_max             =   1.1810561402216E-06
(PID.TID 0000.0001) %MON dynstat_wvel_min             =  -1.1320154886031E-06
(PID.TID 0000.0001) %MON dynstat_wvel_mean            =  -5.3245010187809E-11
(PID.TID 0000.0001) %MON dynstat_wvel_sd              =   3.5803203526170E-08
(PID.TID 0000.0001) %MON dynstat_wvel_del2            =   1.5913278279908E-10
(PID.TID 0000.0001) %MON dynstat_theta_max            =  -1.9000000000000E+00
(PID.TID 0000.0001) %MON dynstat_theta_min            =  -1.9121797679525E+00
(PID.TID 0000.0001) %MON dynstat_theta_mean           =  -1.9001027839610E+00
(PID.TID 0000.0001) %MON dynstat_theta_sd             =   7.9284300918454E-04
(PID.TID 0000.0001) %MON dynstat_theta_del2           =   9.1593440305297E-07
(PID.TID 0000.0001) %MON dynstat_salt_max             =   3.4400000000000E+01
(PID.TID 0000.0001) %MON dynstat_salt_min             =   3.4395029853605E+01
(PID.TID 0000.0001) %MON dynstat_salt_mean            =   3.4399958259641E+01
(PID.TID 0000.0001) %MON dynstat_salt_sd              =   3.2272139152258E-04
(PID.TID 0000.0001) %MON dynstat_salt_del2            =   3.7242902623279E-07
(PID.TID 0000.0001) %MON advcfl_uvel_max              =   7.4494369318239E-05
(PID.TID 0000.0001) %MON advcfl_vvel_max              =   1.1006637385289E-05
(PID.TID 0000.0001) %MON advcfl_wvel_max              =   7.0863368413297E-05
(PID.TID 0000.0001) %MON advcfl_W_hf_max              =   7.7294456159057E-05
(PID.TID 0000.0001) %MON pe_b_mean                    =  -4.5310830816563E-08
(PID.TID 0000.0001) %MON ke_max                       =   3.2228445803314E-08
(PID.TID 0000.0001) %MON ke_mean                      =   1.3540814258547E-10
(PID.TID 0000.0001) %MON ke_vol                       =   3.4703745874272E+14
(PID.TID 0000.0001) %MON vort_r_min                   =  -1.1510119039548E-08
(PID.TID 0000.0001) %MON vort_r_max                   =   1.2115200169128E-08
(PID.TID 0000.0001) %MON vort_a_mean                  =  -1.3992981966447E-04
(PID.TID 0000.0001) %MON vort_a_sd                    =   1.7365051231210E-06
(PID.TID 0000.0001) %MON vort_p_mean                  =  -1.4746660589914E-04
(PID.TID 0000.0001) %MON vort_p_sd                    =   7.7971218365789E-05
(PID.TID 0000.0001) %MON surfExpan_theta_mean         =  -6.8911099420017E-13
(PID.TID 0000.0001) %MON surfExpan_salt_mean          =  -2.7956233814427E-13
(PID.TID 0000.0001) // =======================================================
(PID.TID 0000.0001) // End MONITOR dynamic field statistics
(PID.TID 0000.0001) // =======================================================
 cg2d: Sum(rhs),rhsMax =  -2.13162820728030E-14  1.13820402395479E-04
(PID.TID 0000.0001)      cg2d_init_res =   4.84536915779806E-01
(PID.TID 0000.0001)      cg2d_iters(min,last) =      -1     203
(PID.TID 0000.0001)      cg2d_last_res =   8.99709917144301E-14
(PID.TID 0000.0001) // =======================================================
(PID.TID 0000.0001) // Begin MONITOR dynamic field statistics
(PID.TID 0000.0001) // =======================================================
(PID.TID 0000.0001) %MON time_tsnumber                =                    19
(PID.TID 0000.0001) %MON time_secondsf                =   3.4200000000000E+04
(PID.TID 0000.0001) %MON dynstat_eta_max              =   2.9829909217846E-05
(PID.TID 0000.0001) %MON dynstat_eta_min              =  -1.4098831828032E-05
(PID.TID 0000.0001) %MON dynstat_eta_mean             =  -2.6618583211513E-21
(PID.TID 0000.0001) %MON dynstat_eta_sd               =   1.5897246262555E-05
(PID.TID 0000.0001) %MON dynstat_eta_del2             =   4.8463374686482E-08
(PID.TID 0000.0001) %MON dynstat_uvel_max             =   3.9966351763108E-05
(PID.TID 0000.0001) %MON dynstat_uvel_min             =  -2.6156492441296E-04
(PID.TID 0000.0001) %MON dynstat_uvel_mean            =   1.2025330821192E-08
(PID.TID 0000.0001) %MON dynstat_uvel_sd              =   1.6999630434115E-05
(PID.TID 0000.0001) %MON dynstat_uvel_del2            =   3.6372493424448E-08
(PID.TID 0000.0001) %MON dynstat_vvel_max             =   6.1330687052025E-05
(PID.TID 0000.0001) %MON dynstat_vvel_min             =  -1.1449577266960E-05
(PID.TID 0000.0001) %MON dynstat_vvel_mean            =  -9.8898569771729E-08
(PID.TID 0000.0001) %MON dynstat_vvel_sd              =   2.8689249877055E-06
(PID.TID 0000.0001) %MON dynstat_vvel_del2            =   9.1821801399938E-09
(PID.TID 0000.0001) %MON dynstat_wvel_max             =   1.2359296948974E-06
(PID.TID 0000.0001) %MON dynstat_wvel_min             =  -1.1904305640059E-06
(PID.TID 0000.0001) %MON dynstat_wvel_mean            =  -6.4902060270951E-11
(PID.TID 0000.0001) %MON dynstat_wvel_sd              =   3.7034288614314E-08
(PID.TID 0000.0001) %MON dynstat_wvel_del2            =   1.5708264633139E-10
(PID.TID 0000.0001) %MON dynstat_theta_max            =  -1.9000000000000E+00
(PID.TID 0000.0001) %MON dynstat_theta_min            =  -1.9128476074521E+00
(PID.TID 0000.0001) %MON dynstat_theta_mean           =  -1.9001084324095E+00
(PID.TID 0000.0001) %MON dynstat_theta_sd             =   8.3624639589828E-04
(PID.TID 0000.0001) %MON dynstat_theta_del2           =   9.6487701047164E-07
(PID.TID 0000.0001) %MON dynstat_salt_max             =   3.4400000000000E+01
(PID.TID 0000.0001) %MON dynstat_salt_min             =   3.4394757348615E+01
(PID.TID 0000.0001) %MON dynstat_salt_mean            =   3.4399955966059E+01
(PID.TID 0000.0001) %MON dynstat_salt_sd              =   3.4038681622170E-04
(PID.TID 0000.0001) %MON dynstat_salt_del2            =   3.9232699789657E-07
(PID.TID 0000.0001) %MON advcfl_uvel_max              =   7.7827086527077E-05
(PID.TID 0000.0001) %MON advcfl_vvel_max              =   9.9296407235379E-06
(PID.TID 0000.0001) %MON advcfl_wvel_max              =   7.4155781693841E-05
(PID.TID 0000.0001) %MON advcfl_W_hf_max              =   8.0003297003308E-05
(PID.TID 0000.0001) %MON pe_b_mean                    =  -4.6907695477855E-08
(PID.TID 0000.0001) %MON ke_max                       =   3.4857937582564E-08
(PID.TID 0000.0001) %MON ke_mean                      =   1.4561142960576E-10
(PID.TID 0000.0001) %MON ke_vol                       =   3.4703745874272E+14
(PID.TID 0000.0001) %MON vort_r_min                   =  -1.0363925017946E-08
(PID.TID 0000.0001) %MON vort_r_max                   =   1.2654677819274E-08
(PID.TID 0000.0001) %MON vort_a_mean                  =  -1.3992981966994E-04
(PID.TID 0000.0001) %MON vort_a_sd                    =   1.7365050432927E-06
(PID.TID 0000.0001) %MON vort_p_mean                  =  -1.4746660590490E-04
(PID.TID 0000.0001) %MON vort_p_sd                    =   7.7971111150519E-05
(PID.TID 0000.0001) %MON surfExpan_theta_mean         =  -8.9149396243500E-13
(PID.TID 0000.0001) %MON surfExpan_salt_mean          =  -3.6198765797837E-13
(PID.TID 0000.0001) // =======================================================
(PID.TID 0000.0001) // End MONITOR dynamic field statistics
(PID.TID 0000.0001) // =======================================================
 cg2d: Sum(rhs),rhsMax =   2.08721928629529E-14  1.19737628428954E-04
(PID.TID 0000.0001)      cg2d_init_res =   4.57819203847415E-01
(PID.TID 0000.0001)      cg2d_iters(min,last) =      -1     202
(PID.TID 0000.0001)      cg2d_last_res =   8.86547665983202E-14
(PID.TID 0000.0001) // =======================================================
(PID.TID 0000.0001) // Begin MONITOR dynamic field statistics
(PID.TID 0000.0001) // =======================================================
(PID.TID 0000.0001) %MON time_tsnumber                =                    20
(PID.TID 0000.0001) %MON time_secondsf                =   3.6000000000000E+04
(PID.TID 0000.0001) %MON dynstat_eta_max              =   3.0617696492966E-05
(PID.TID 0000.0001) %MON dynstat_eta_min              =  -1.4589202559847E-05
(PID.TID 0000.0001) %MON dynstat_eta_mean             =  -3.9927874817270E-21
(PID.TID 0000.0001) %MON dynstat_eta_sd               =   1.6531100544493E-05
(PID.TID 0000.0001) %MON dynstat_eta_del2             =   5.0916700930723E-08
(PID.TID 0000.0001) %MON dynstat_uvel_max             =   4.1377213549437E-05
(PID.TID 0000.0001) %MON dynstat_uvel_min             =  -2.7097800989838E-04
(PID.TID 0000.0001) %MON dynstat_uvel_mean            =   1.4515283488808E-08
(PID.TID 0000.0001) %MON dynstat_uvel_sd              =   1.7590554092496E-05
(PID.TID 0000.0001) %MON dynstat_uvel_del2            =   3.7886822516381E-08
(PID.TID 0000.0001) %MON dynstat_vvel_max             =   5.5655260696368E-05
(PID.TID 0000.0001) %MON dynstat_vvel_min             =  -1.0685723499034E-05
(PID.TID 0000.0001) %MON dynstat_vvel_mean            =  -1.2136916745637E-07
(PID.TID 0000.0001) %MON dynstat_vvel_sd              =   2.4356786342980E-06
(PID.TID 0000.0001) %MON dynstat_vvel_del2            =   8.3310993015157E-09
(PID.TID 0000.0001) %MON dynstat_wvel_max             =   1.2838778457209E-06
(PID.TID 0000.0001) %MON dynstat_wvel_min             =  -1.2416262316349E-06
(PID.TID 0000.0001) %MON dynstat_wvel_mean            =  -7.9667122919069E-11
(PID.TID 0000.0001) %MON dynstat_wvel_sd              =   3.8124685890090E-08
(PID.TID 0000.0001) %MON dynstat_wvel_del2            =   1.5615069014270E-10
(PID.TID 0000.0001) %MON dynstat_theta_max            =  -1.9000000000000E+00
(PID.TID 0000.0001) %MON dynstat_theta_min            =  -1.9135145372446E+00
(PID.TID 0000.0001) %MON dynstat_theta_mean           =  -1.9001140744535E+00
(PID.TID 0000.0001) %MON dynstat_theta_sd             =   8.7958324227791E-04
(PID.TID 0000.0001) %MON dynstat_theta_del2           =   1.0136226605011E-06
(PID.TID 0000.0001) %MON dynstat_salt_max             =   3.4400000000000E+01
(PID.TID 0000.0001) %MON dynstat_salt_min             =   3.4394485216631E+01
(PID.TID 0000.0001) %MON dynstat_salt_mean            =   3.4399953675103E+01
(PID.TID 0000.0001) %MON dynstat_salt_sd              =   3.5802498854921E-04
(PID.TID 0000.0001) %MON dynstat_salt_del2            =   4.1214461525054E-07
(PID.TID 0000.0001) %MON advcfl_uvel_max              =   8.0627894090263E-05
(PID.TID 0000.0001) %MON advcfl_vvel_max              =   9.0107704585306E-06
(PID.TID 0000.0001) %MON advcfl_wvel_max              =   7.7032670743255E-05
(PID.TID 0000.0001) %MON advcfl_W_hf_max              =   8.2368029717359E-05
(PID.TID 0000.0001) %MON pe_b_mean                    =  -4.8768212420892E-08
(PID.TID 0000.0001) %MON ke_max                       =   3.7179920784390E-08
(PID.TID 0000.0001) %MON ke_mean                      =   1.5449131078858E-10
(PID.TID 0000.0001) %MON ke_vol                       =   3.4703745874272E+14
(PID.TID 0000.0001) %MON vort_r_min                   =  -9.3231975846229E-09
(PID.TID 0000.0001) %MON vort_r_max                   =   1.3244244677181E-08
(PID.TID 0000.0001) %MON vort_a_mean                  =  -1.3992981967045E-04
(PID.TID 0000.0001) %MON vort_a_sd                    =   1.7365049987990E-06
(PID.TID 0000.0001) %MON vort_p_mean                  =  -1.4746660590544E-04
(PID.TID 0000.0001) %MON vort_p_sd                    =   7.7971022480949E-05
(PID.TID 0000.0001) %MON surfExpan_theta_mean         =  -1.1566865054754E-12
(PID.TID 0000.0001) %MON surfExpan_salt_mean          =  -4.6999492361798E-13
(PID.TID 0000.0001) // =======================================================
(PID.TID 0000.0001) // End MONITOR dynamic field statistics
(PID.TID 0000.0001) // =======================================================
 Computing Diagnostic #    190  SHIfwFlx     Counter:      10   Parms: SM      L1      
 Computing Diagnostic #    191  SHIhtFlx     Counter:      10   Parms: SM      L1      
 Computing Diagnostic #    198  ICFfwFlx     Counter:      10   Parms: SM      MR      
 Computing Diagnostic #    199  ICFhtFlx     Counter:      10   Parms: SM      MR      
(PID.TID 0000.0001) %CHECKPOINT        20 ckptA
(PID.TID 0000.0001)   Seconds in section "ALL                    [THE_MODEL_MAIN]":
(PID.TID 0000.0001)           User time:   49.660000000000004
(PID.TID 0000.0001)         System time:  0.11000000000000000
(PID.TID 0000.0001)     Wall clock time:   49.924275159835815
(PID.TID 0000.0001)          No. starts:           1
(PID.TID 0000.0001)           No. stops:           1
(PID.TID 0000.0001)   Seconds in section "INITIALISE_FIXED       [THE_MODEL_MAIN]":
(PID.TID 0000.0001)           User time:  0.29999999999999999
(PID.TID 0000.0001)         System time:  4.00000000000000008E-002
(PID.TID 0000.0001)     Wall clock time:  0.37105417251586914
(PID.TID 0000.0001)          No. starts:           1
(PID.TID 0000.0001)           No. stops:           1
(PID.TID 0000.0001)   Seconds in section "THE_MAIN_LOOP          [THE_MODEL_MAIN]":
(PID.TID 0000.0001)           User time:   49.360000000000007
(PID.TID 0000.0001)         System time:  7.00000000000000067E-002
(PID.TID 0000.0001)     Wall clock time:   49.553183078765869
(PID.TID 0000.0001)          No. starts:           1
(PID.TID 0000.0001)           No. stops:           1
(PID.TID 0000.0001)   Seconds in section "INITIALISE_VARIA    [THE_MAIN_LOOP]":
(PID.TID 0000.0001)           User time:  0.60000000000000009
(PID.TID 0000.0001)         System time:  3.00000000000000058E-002
(PID.TID 0000.0001)     Wall clock time:  0.63765788078308105
(PID.TID 0000.0001)          No. starts:           1
(PID.TID 0000.0001)           No. stops:           1
(PID.TID 0000.0001)   Seconds in section "MAIN LOOP           [THE_MAIN_LOOP]":
(PID.TID 0000.0001)           User time:   48.760000000000005
(PID.TID 0000.0001)         System time:  3.99999999999999939E-002
(PID.TID 0000.0001)     Wall clock time:   48.915488958358765
(PID.TID 0000.0001)          No. starts:           1
(PID.TID 0000.0001)           No. stops:           1
(PID.TID 0000.0001)   Seconds in section "MAIN_DO_LOOP        [THE_MAIN_LOOP]":
(PID.TID 0000.0001)           User time:   48.759999999999984
(PID.TID 0000.0001)         System time:  3.99999999999999939E-002
(PID.TID 0000.0001)     Wall clock time:   48.915295600891113
(PID.TID 0000.0001)          No. starts:          20
(PID.TID 0000.0001)           No. stops:          20
(PID.TID 0000.0001)   Seconds in section "FORWARD_STEP        [MAIN_DO_LOOP]":
(PID.TID 0000.0001)           User time:   48.759999999999984
(PID.TID 0000.0001)         System time:  3.99999999999999939E-002
(PID.TID 0000.0001)     Wall clock time:   48.914912223815918
(PID.TID 0000.0001)          No. starts:          20
(PID.TID 0000.0001)           No. stops:          20
(PID.TID 0000.0001)   Seconds in section "DO_STATEVARS_DIAGS  [FORWARD_STEP]":
(PID.TID 0000.0001)           User time:  1.99999999999960210E-002
(PID.TID 0000.0001)         System time:   0.0000000000000000
(PID.TID 0000.0001)     Wall clock time:  1.69448852539062500E-002
(PID.TID 0000.0001)          No. starts:          40
(PID.TID 0000.0001)           No. stops:          40
(PID.TID 0000.0001)   Seconds in section "LOAD_FIELDS_DRIVER  [FORWARD_STEP]":
(PID.TID 0000.0001)           User time:   0.0000000000000000
(PID.TID 0000.0001)         System time:   0.0000000000000000
(PID.TID 0000.0001)     Wall clock time:  5.73158264160156250E-004
(PID.TID 0000.0001)          No. starts:          20
(PID.TID 0000.0001)           No. stops:          20
(PID.TID 0000.0001)   Seconds in section "EXTERNAL_FLDS_LOAD [LOAD_FLDS_DRIVER]":
(PID.TID 0000.0001)           User time:   0.0000000000000000
(PID.TID 0000.0001)         System time:   0.0000000000000000
(PID.TID 0000.0001)     Wall clock time:  1.88112258911132813E-004
(PID.TID 0000.0001)          No. starts:          20
(PID.TID 0000.0001)           No. stops:          20
(PID.TID 0000.0001)   Seconds in section "DO_ATMOSPHERIC_PHYS [FORWARD_STEP]":
(PID.TID 0000.0001)           User time:   0.0000000000000000
(PID.TID 0000.0001)         System time:   0.0000000000000000
(PID.TID 0000.0001)     Wall clock time:  1.91450119018554688E-004
(PID.TID 0000.0001)          No. starts:          20
(PID.TID 0000.0001)           No. stops:          20
(PID.TID 0000.0001)   Seconds in section "DO_OCEANIC_PHYS     [FORWARD_STEP]":
(PID.TID 0000.0001)           User time:   1.0499999999999972
(PID.TID 0000.0001)         System time:   0.0000000000000000
(PID.TID 0000.0001)     Wall clock time:   1.0713918209075928
(PID.TID 0000.0001)          No. starts:          20
(PID.TID 0000.0001)           No. stops:          20
(PID.TID 0000.0001)   Seconds in section "SHELFICE_THERMODYNAMICS [DO_OCEANIC_PHYS]":
(PID.TID 0000.0001)           User time:  8.00000000000054001E-002
(PID.TID 0000.0001)         System time:   0.0000000000000000
(PID.TID 0000.0001)     Wall clock time:  0.10632300376892090
(PID.TID 0000.0001)          No. starts:          20
(PID.TID 0000.0001)           No. stops:          20
(PID.TID 0000.0001)   Seconds in section "ICEFRONT_THERMODYNAMICS [DO_OCEANIC_PHYS]":
(PID.TID 0000.0001)           User time:  0.22999999999998977
(PID.TID 0000.0001)         System time:   0.0000000000000000
(PID.TID 0000.0001)     Wall clock time:  0.22612023353576660
(PID.TID 0000.0001)          No. starts:          20
(PID.TID 0000.0001)           No. stops:          20
(PID.TID 0000.0001)   Seconds in section "THERMODYNAMICS      [FORWARD_STEP]":
(PID.TID 0000.0001)           User time:   8.1700000000000088
(PID.TID 0000.0001)         System time:   0.0000000000000000
(PID.TID 0000.0001)     Wall clock time:   8.1957690715789795
(PID.TID 0000.0001)          No. starts:          20
(PID.TID 0000.0001)           No. stops:          20
(PID.TID 0000.0001)   Seconds in section "DYNAMICS            [FORWARD_STEP]":
(PID.TID 0000.0001)           User time:   19.500000000000000
(PID.TID 0000.0001)         System time:  9.99999999999999500E-003
(PID.TID 0000.0001)     Wall clock time:   19.548504829406738
(PID.TID 0000.0001)          No. starts:          20
(PID.TID 0000.0001)           No. stops:          20
(PID.TID 0000.0001)   Seconds in section "UPDATE_SURF_DR      [FORWARD_STEP]":
(PID.TID 0000.0001)           User time:  0.27000000000000313
(PID.TID 0000.0001)         System time:   0.0000000000000000
(PID.TID 0000.0001)     Wall clock time:  0.25407505035400391
(PID.TID 0000.0001)          No. starts:          20
(PID.TID 0000.0001)           No. stops:          20
(PID.TID 0000.0001)   Seconds in section "SOLVE_FOR_PRESSURE  [FORWARD_STEP]":
(PID.TID 0000.0001)           User time:   9.6500000000000199
(PID.TID 0000.0001)         System time:   0.0000000000000000
(PID.TID 0000.0001)     Wall clock time:   9.6658959388732910
(PID.TID 0000.0001)          No. starts:          20
(PID.TID 0000.0001)           No. stops:          20
(PID.TID 0000.0001)   Seconds in section "MOM_CORRECTION_STEP [FORWARD_STEP]":
(PID.TID 0000.0001)           User time:  0.73999999999999488
(PID.TID 0000.0001)         System time:   0.0000000000000000
(PID.TID 0000.0001)     Wall clock time:  0.77130985260009766
(PID.TID 0000.0001)          No. starts:          20
(PID.TID 0000.0001)           No. stops:          20
(PID.TID 0000.0001)   Seconds in section "INTEGR_CONTINUITY   [FORWARD_STEP]":
(PID.TID 0000.0001)           User time:   1.1200000000000045
(PID.TID 0000.0001)         System time:   0.0000000000000000
(PID.TID 0000.0001)     Wall clock time:   1.0672969818115234
(PID.TID 0000.0001)          No. starts:          20
(PID.TID 0000.0001)           No. stops:          20
(PID.TID 0000.0001)   Seconds in section "TRC_CORRECTION_STEP [FORWARD_STEP]":
(PID.TID 0000.0001)           User time:   2.2899999999999920
(PID.TID 0000.0001)         System time:   0.0000000000000000
(PID.TID 0000.0001)     Wall clock time:   2.3279774188995361
(PID.TID 0000.0001)          No. starts:          20
(PID.TID 0000.0001)           No. stops:          20
(PID.TID 0000.0001)   Seconds in section "BLOCKING_EXCHANGES  [FORWARD_STEP]":
(PID.TID 0000.0001)           User time:  0.51999999999999602
(PID.TID 0000.0001)         System time:   0.0000000000000000
(PID.TID 0000.0001)     Wall clock time:  0.50871872901916504
(PID.TID 0000.0001)          No. starts:          20
(PID.TID 0000.0001)           No. stops:          20
(PID.TID 0000.0001)   Seconds in section "DO_STATEVARS_TAVE   [FORWARD_STEP]":
(PID.TID 0000.0001)           User time:   0.0000000000000000
(PID.TID 0000.0001)         System time:   0.0000000000000000
(PID.TID 0000.0001)     Wall clock time:  1.97172164916992188E-004
(PID.TID 0000.0001)          No. starts:          20
(PID.TID 0000.0001)           No. stops:          20
(PID.TID 0000.0001)   Seconds in section "MONITOR             [FORWARD_STEP]":
(PID.TID 0000.0001)           User time:   5.1800000000000068
(PID.TID 0000.0001)         System time:   0.0000000000000000
(PID.TID 0000.0001)     Wall clock time:   5.1999454498291016
(PID.TID 0000.0001)          No. starts:          20
(PID.TID 0000.0001)           No. stops:          20
(PID.TID 0000.0001)   Seconds in section "DO_THE_MODEL_IO     [FORWARD_STEP]":
(PID.TID 0000.0001)           User time:  0.13000000000000256
(PID.TID 0000.0001)         System time:  2.00000000000000039E-002
(PID.TID 0000.0001)     Wall clock time:  0.14443612098693848
(PID.TID 0000.0001)          No. starts:          20
(PID.TID 0000.0001)           No. stops:          20
(PID.TID 0000.0001)   Seconds in section "DO_WRITE_PICKUP     [FORWARD_STEP]":
(PID.TID 0000.0001)           User time:  0.12000000000000455
(PID.TID 0000.0001)         System time:  9.99999999999999500E-003
(PID.TID 0000.0001)     Wall clock time:  0.13795781135559082
(PID.TID 0000.0001)          No. starts:          20
(PID.TID 0000.0001)           No. stops:          20
(PID.TID 0000.0001) // ======================================================
(PID.TID 0000.0001) // Tile <-> Tile communication statistics
(PID.TID 0000.0001) // ======================================================
(PID.TID 0000.0001) // o Tile number: 000001
(PID.TID 0000.0001) //         No. X exchanges =              0
(PID.TID 0000.0001) //            Max. X spins =              0
(PID.TID 0000.0001) //            Min. X spins =     1000000000
(PID.TID 0000.0001) //          Total. X spins =              0
(PID.TID 0000.0001) //            Avg. X spins =       0.00E+00
(PID.TID 0000.0001) //         No. Y exchanges =              0
(PID.TID 0000.0001) //            Max. Y spins =              0
(PID.TID 0000.0001) //            Min. Y spins =     1000000000
(PID.TID 0000.0001) //          Total. Y spins =              0
(PID.TID 0000.0001) //            Avg. Y spins =       0.00E+00
(PID.TID 0000.0001) // o Tile number: 000002
(PID.TID 0000.0001) //         No. X exchanges =              0
(PID.TID 0000.0001) //            Max. X spins =              0
(PID.TID 0000.0001) //            Min. X spins =     1000000000
(PID.TID 0000.0001) //          Total. X spins =              0
(PID.TID 0000.0001) //            Avg. X spins =       0.00E+00
(PID.TID 0000.0001) //         No. Y exchanges =              0
(PID.TID 0000.0001) //            Max. Y spins =              0
(PID.TID 0000.0001) //            Min. Y spins =     1000000000
(PID.TID 0000.0001) //          Total. Y spins =              0
(PID.TID 0000.0001) //            Avg. Y spins =       0.00E+00
(PID.TID 0000.0001) // o Tile number: 000003
(PID.TID 0000.0001) //         No. X exchanges =              0
(PID.TID 0000.0001) //            Max. X spins =              0
(PID.TID 0000.0001) //            Min. X spins =     1000000000
(PID.TID 0000.0001) //          Total. X spins =              0
(PID.TID 0000.0001) //            Avg. X spins =       0.00E+00
(PID.TID 0000.0001) //         No. Y exchanges =              0
(PID.TID 0000.0001) //            Max. Y spins =              0
(PID.TID 0000.0001) //            Min. Y spins =     1000000000
(PID.TID 0000.0001) //          Total. Y spins =              0
(PID.TID 0000.0001) //            Avg. Y spins =       0.00E+00
(PID.TID 0000.0001) // o Tile number: 000004
(PID.TID 0000.0001) //         No. X exchanges =              0
(PID.TID 0000.0001) //            Max. X spins =              0
(PID.TID 0000.0001) //            Min. X spins =     1000000000
(PID.TID 0000.0001) //          Total. X spins =              0
(PID.TID 0000.0001) //            Avg. X spins =       0.00E+00
(PID.TID 0000.0001) //         No. Y exchanges =              0
(PID.TID 0000.0001) //            Max. Y spins =              0
(PID.TID 0000.0001) //            Min. Y spins =     1000000000
(PID.TID 0000.0001) //          Total. Y spins =              0
(PID.TID 0000.0001) //            Avg. Y spins =       0.00E+00
(PID.TID 0000.0001) // o Tile number: 000005
(PID.TID 0000.0001) //         No. X exchanges =              0
(PID.TID 0000.0001) //            Max. X spins =              0
(PID.TID 0000.0001) //            Min. X spins =     1000000000
(PID.TID 0000.0001) //          Total. X spins =              0
(PID.TID 0000.0001) //            Avg. X spins =       0.00E+00
(PID.TID 0000.0001) //         No. Y exchanges =              0
(PID.TID 0000.0001) //            Max. Y spins =              0
(PID.TID 0000.0001) //            Min. Y spins =     1000000000
(PID.TID 0000.0001) //          Total. Y spins =              0
(PID.TID 0000.0001) //            Avg. Y spins =       0.00E+00
(PID.TID 0000.0001) // o Tile number: 000006
(PID.TID 0000.0001) //         No. X exchanges =              0
(PID.TID 0000.0001) //            Max. X spins =              0
(PID.TID 0000.0001) //            Min. X spins =     1000000000
(PID.TID 0000.0001) //          Total. X spins =              0
(PID.TID 0000.0001) //            Avg. X spins =       0.00E+00
(PID.TID 0000.0001) //         No. Y exchanges =              0
(PID.TID 0000.0001) //            Max. Y spins =              0
(PID.TID 0000.0001) //            Min. Y spins =     1000000000
(PID.TID 0000.0001) //          Total. Y spins =              0
(PID.TID 0000.0001) //            Avg. Y spins =       0.00E+00
(PID.TID 0000.0001) // o Tile number: 000007
(PID.TID 0000.0001) //         No. X exchanges =              0
(PID.TID 0000.0001) //            Max. X spins =              0
(PID.TID 0000.0001) //            Min. X spins =     1000000000
(PID.TID 0000.0001) //          Total. X spins =              0
(PID.TID 0000.0001) //            Avg. X spins =       0.00E+00
(PID.TID 0000.0001) //         No. Y exchanges =              0
(PID.TID 0000.0001) //            Max. Y spins =              0
(PID.TID 0000.0001) //            Min. Y spins =     1000000000
(PID.TID 0000.0001) //          Total. Y spins =              0
(PID.TID 0000.0001) //            Avg. Y spins =       0.00E+00
(PID.TID 0000.0001) // o Tile number: 000008
(PID.TID 0000.0001) //         No. X exchanges =              0
(PID.TID 0000.0001) //            Max. X spins =              0
(PID.TID 0000.0001) //            Min. X spins =     1000000000
(PID.TID 0000.0001) //          Total. X spins =              0
(PID.TID 0000.0001) //            Avg. X spins =       0.00E+00
(PID.TID 0000.0001) //         No. Y exchanges =              0
(PID.TID 0000.0001) //            Max. Y spins =              0
(PID.TID 0000.0001) //            Min. Y spins =     1000000000
(PID.TID 0000.0001) //          Total. Y spins =              0
(PID.TID 0000.0001) //            Avg. Y spins =       0.00E+00
(PID.TID 0000.0001) // o Thread number: 000001
(PID.TID 0000.0001) //            No. barriers =          28142
(PID.TID 0000.0001) //      Max. barrier spins =              1
(PID.TID 0000.0001) //      Min. barrier spins =              1
(PID.TID 0000.0001) //     Total barrier spins =          28142
(PID.TID 0000.0001) //      Avg. barrier spins =       1.00E+00
PROGRAM MAIN: Execution ended Normally
