(PID.TID 0000.0001) 
(PID.TID 0000.0001) // ======================================================
(PID.TID 0000.0001) //                      MITgcm UV
(PID.TID 0000.0001) //                      =========
(PID.TID 0000.0001) // ======================================================
(PID.TID 0000.0001) // execution environment starting up...
(PID.TID 0000.0001) 
(PID.TID 0000.0001) // MITgcmUV version:  checkpoint64p
(PID.TID 0000.0001) // Build user:        jmc
(PID.TID 0000.0001) // Build host:        baudelaire
(PID.TID 0000.0001) // Build date:        Tue Oct 22 10:09:03 EDT 2013
(PID.TID 0000.0001) 
(PID.TID 0000.0001) // =======================================================
(PID.TID 0000.0001) // Execution Environment parameter file "eedata"
(PID.TID 0000.0001) // =======================================================
(PID.TID 0000.0001) ># Example "eedata" file
(PID.TID 0000.0001) ># Lines beginning "#" are comments
(PID.TID 0000.0001) ># nTx - No. threads per process in X
(PID.TID 0000.0001) ># nTy - No. threads per process in Y
(PID.TID 0000.0001) > &EEPARMS
(PID.TID 0000.0001) > /
(PID.TID 0000.0001) ># Note: Some systems use & as the
(PID.TID 0000.0001) ># namelist terminator. Other systems
(PID.TID 0000.0001) ># use a / character (as shown here).
(PID.TID 0000.0001) 
(PID.TID 0000.0001) // =======================================================
(PID.TID 0000.0001) // Computational Grid Specification ( see files "SIZE.h" )
(PID.TID 0000.0001) //                                  ( and "eedata"       )
(PID.TID 0000.0001) // =======================================================
(PID.TID 0000.0001)      nPx =    1 ; /* No. processes in X */
(PID.TID 0000.0001)      nPy =    1 ; /* No. processes in Y */
(PID.TID 0000.0001)      nSx =    2 ; /* No. tiles in X per process */
(PID.TID 0000.0001)      nSy =    4 ; /* No. tiles in Y per process */
(PID.TID 0000.0001)      sNx =   25 ; /* Tile size in X */
(PID.TID 0000.0001)      sNy =   25 ; /* Tile size in Y */
(PID.TID 0000.0001)      OLx =    3 ; /* Tile overlap distance in X */
(PID.TID 0000.0001)      OLy =    3 ; /* Tile overlap distance in Y */
(PID.TID 0000.0001)      nTx =    1 ; /* No. threads in X per process */
(PID.TID 0000.0001)      nTy =    1 ; /* No. threads in Y per process */
(PID.TID 0000.0001)       Nr =   30 ; /* No. levels in the vertical   */
(PID.TID 0000.0001)       Nx =   50 ; /* Total domain size in X ( = nPx*nSx*sNx ) */
(PID.TID 0000.0001)       Ny =  100 ; /* Total domain size in Y ( = nPy*nSy*sNy ) */
(PID.TID 0000.0001)   nTiles =    8 ; /* Total no. tiles per process ( = nSx*nSy ) */
(PID.TID 0000.0001)   nProcs =    1 ; /* Total no. processes ( = nPx*nPy ) */
(PID.TID 0000.0001) nThreads =    1 ; /* Total no. threads per process ( = nTx*nTy ) */
(PID.TID 0000.0001) usingMPI =    F ; /* Flag used to control whether MPI is in use */
(PID.TID 0000.0001)                   /*  note: To execute a program with MPI calls */
(PID.TID 0000.0001)                   /*  it must be launched appropriately e.g     */
(PID.TID 0000.0001)                   /*  "mpirun -np 64 ......"                    */
(PID.TID 0000.0001) useCoupler=    F ;/* Flag used to control communications with   */
(PID.TID 0000.0001)                   /*  other model components, through a coupler */
(PID.TID 0000.0001) debugMode =    F ; /* print debug msg. (sequence of S/R calls)  */
(PID.TID 0000.0001) printMapIncludesZeros=    F ; /* print zeros in Std.Output maps */
(PID.TID 0000.0001) maxLengthPrt1D=   65 /* maxLength of 1D array printed to StdOut */
(PID.TID 0000.0001) 
(PID.TID 0000.0001) // ======================================================
(PID.TID 0000.0001) // Mapping of tiles to threads
(PID.TID 0000.0001) // ======================================================
(PID.TID 0000.0001) // -o- Thread   1, tiles (   1:   2,   1:   4)
(PID.TID 0000.0001) 
(PID.TID 0000.0001) // ======================================================
(PID.TID 0000.0001) // Tile <-> Tile connectvity table
(PID.TID 0000.0001) // ======================================================
(PID.TID 0000.0001) // Tile number: 000001 (process no. = 000000)
(PID.TID 0000.0001) //        WEST: Tile = 000002, Process = 000000, Comm = put
(PID.TID 0000.0001) //                bi = 000002, bj = 000001
(PID.TID 0000.0001) //        EAST: Tile = 000002, Process = 000000, Comm = put
(PID.TID 0000.0001) //                bi = 000002, bj = 000001
(PID.TID 0000.0001) //       SOUTH: Tile = 000007, Process = 000000, Comm = put
(PID.TID 0000.0001) //                bi = 000001, bj = 000004
(PID.TID 0000.0001) //       NORTH: Tile = 000003, Process = 000000, Comm = put
(PID.TID 0000.0001) //                bi = 000001, bj = 000002
(PID.TID 0000.0001) // Tile number: 000002 (process no. = 000000)
(PID.TID 0000.0001) //        WEST: Tile = 000001, Process = 000000, Comm = put
(PID.TID 0000.0001) //                bi = 000001, bj = 000001
(PID.TID 0000.0001) //        EAST: Tile = 000001, Process = 000000, Comm = put
(PID.TID 0000.0001) //                bi = 000001, bj = 000001
(PID.TID 0000.0001) //       SOUTH: Tile = 000008, Process = 000000, Comm = put
(PID.TID 0000.0001) //                bi = 000002, bj = 000004
(PID.TID 0000.0001) //       NORTH: Tile = 000004, Process = 000000, Comm = put
(PID.TID 0000.0001) //                bi = 000002, bj = 000002
(PID.TID 0000.0001) // Tile number: 000003 (process no. = 000000)
(PID.TID 0000.0001) //        WEST: Tile = 000004, Process = 000000, Comm = put
(PID.TID 0000.0001) //                bi = 000002, bj = 000002
(PID.TID 0000.0001) //        EAST: Tile = 000004, Process = 000000, Comm = put
(PID.TID 0000.0001) //                bi = 000002, bj = 000002
(PID.TID 0000.0001) //       SOUTH: Tile = 000001, Process = 000000, Comm = put
(PID.TID 0000.0001) //                bi = 000001, bj = 000001
(PID.TID 0000.0001) //       NORTH: Tile = 000005, Process = 000000, Comm = put
(PID.TID 0000.0001) //                bi = 000001, bj = 000003
(PID.TID 0000.0001) // Tile number: 000004 (process no. = 000000)
(PID.TID 0000.0001) //        WEST: Tile = 000003, Process = 000000, Comm = put
(PID.TID 0000.0001) //                bi = 000001, bj = 000002
(PID.TID 0000.0001) //        EAST: Tile = 000003, Process = 000000, Comm = put
(PID.TID 0000.0001) //                bi = 000001, bj = 000002
(PID.TID 0000.0001) //       SOUTH: Tile = 000002, Process = 000000, Comm = put
(PID.TID 0000.0001) //                bi = 000002, bj = 000001
(PID.TID 0000.0001) //       NORTH: Tile = 000006, Process = 000000, Comm = put
(PID.TID 0000.0001) //                bi = 000002, bj = 000003
(PID.TID 0000.0001) // Tile number: 000005 (process no. = 000000)
(PID.TID 0000.0001) //        WEST: Tile = 000006, Process = 000000, Comm = put
(PID.TID 0000.0001) //                bi = 000002, bj = 000003
(PID.TID 0000.0001) //        EAST: Tile = 000006, Process = 000000, Comm = put
(PID.TID 0000.0001) //                bi = 000002, bj = 000003
(PID.TID 0000.0001) //       SOUTH: Tile = 000003, Process = 000000, Comm = put
(PID.TID 0000.0001) //                bi = 000001, bj = 000002
(PID.TID 0000.0001) //       NORTH: Tile = 000007, Process = 000000, Comm = put
(PID.TID 0000.0001) //                bi = 000001, bj = 000004
(PID.TID 0000.0001) // Tile number: 000006 (process no. = 000000)
(PID.TID 0000.0001) //        WEST: Tile = 000005, Process = 000000, Comm = put
(PID.TID 0000.0001) //                bi = 000001, bj = 000003
(PID.TID 0000.0001) //        EAST: Tile = 000005, Process = 000000, Comm = put
(PID.TID 0000.0001) //                bi = 000001, bj = 000003
(PID.TID 0000.0001) //       SOUTH: Tile = 000004, Process = 000000, Comm = put
(PID.TID 0000.0001) //                bi = 000002, bj = 000002
(PID.TID 0000.0001) //       NORTH: Tile = 000008, Process = 000000, Comm = put
(PID.TID 0000.0001) //                bi = 000002, bj = 000004
(PID.TID 0000.0001) // Tile number: 000007 (process no. = 000000)
(PID.TID 0000.0001) //        WEST: Tile = 000008, Process = 000000, Comm = put
(PID.TID 0000.0001) //                bi = 000002, bj = 000004
(PID.TID 0000.0001) //        EAST: Tile = 000008, Process = 000000, Comm = put
(PID.TID 0000.0001) //                bi = 000002, bj = 000004
(PID.TID 0000.0001) //       SOUTH: Tile = 000005, Process = 000000, Comm = put
(PID.TID 0000.0001) //                bi = 000001, bj = 000003
(PID.TID 0000.0001) //       NORTH: Tile = 000001, Process = 000000, Comm = put
(PID.TID 0000.0001) //                bi = 000001, bj = 000001
(PID.TID 0000.0001) // Tile number: 000008 (process no. = 000000)
(PID.TID 0000.0001) //        WEST: Tile = 000007, Process = 000000, Comm = put
(PID.TID 0000.0001) //                bi = 000001, bj = 000004
(PID.TID 0000.0001) //        EAST: Tile = 000007, Process = 000000, Comm = put
(PID.TID 0000.0001) //                bi = 000001, bj = 000004
(PID.TID 0000.0001) //       SOUTH: Tile = 000006, Process = 000000, Comm = put
(PID.TID 0000.0001) //                bi = 000002, bj = 000003
(PID.TID 0000.0001) //       NORTH: Tile = 000002, Process = 000000, Comm = put
(PID.TID 0000.0001) //                bi = 000002, bj = 000001
(PID.TID 0000.0001) 
(PID.TID 0000.0001)  INI_PARMS: opening model parameter file "data"
(PID.TID 0000.0001)  OPEN_COPY_DATA_FILE: opening file data
(PID.TID 0000.0001) // =======================================================
(PID.TID 0000.0001) // Parameter file "data"
(PID.TID 0000.0001) // =======================================================
(PID.TID 0000.0001) ># ====================
(PID.TID 0000.0001) ># | Model parameters |
(PID.TID 0000.0001) ># ====================
(PID.TID 0000.0001) >#
(PID.TID 0000.0001) ># Continuous equation parameters
(PID.TID 0000.0001) > &PARM01
(PID.TID 0000.0001) > Tref = 30*-1.9,
(PID.TID 0000.0001) > Sref = 30*34.4,
(PID.TID 0000.0001) > viscAz=1.E-3,
(PID.TID 0000.0001) > viscAh=600.0,
(PID.TID 0000.0001) > no_slip_sides=.FALSE.,
(PID.TID 0000.0001) > no_slip_bottom=.FALSE.,
(PID.TID 0000.0001) > diffKhT=100.0,
(PID.TID 0000.0001) > diffKzT=5.E-5,
(PID.TID 0000.0001) > diffKhS=100.0,
(PID.TID 0000.0001) > diffKzS=5.E-5,
(PID.TID 0000.0001) > bottomDragQuadratic=2.5E-3,
(PID.TID 0000.0001) > eosType='JMD95Z',
(PID.TID 0000.0001) > HeatCapacity_cp = 3974.0,
(PID.TID 0000.0001) > rhoConst=1030.,
(PID.TID 0000.0001) > gravity=9.81,
(PID.TID 0000.0001) > convertFW2Salt = 33.4,
(PID.TID 0000.0001) > implicitFreeSurface=.TRUE.,
(PID.TID 0000.0001) > exactConserv=.TRUE.,
(PID.TID 0000.0001) > hFacMin=0.10,
(PID.TID 0000.0001) > nonHydrostatic=.FALSE.,
(PID.TID 0000.0001) > useCDScheme = .TRUE.,
(PID.TID 0000.0001) >#ph(
(PID.TID 0000.0001) > implicitDiffusion=.TRUE.,
(PID.TID 0000.0001) ># ivdc_kappa = 7200.,
(PID.TID 0000.0001) > staggerTimeStep=.TRUE.,
(PID.TID 0000.0001) > vectorInvariantMomentum=.TRUE.,
(PID.TID 0000.0001) > nonlinFreeSurf=2,
(PID.TID 0000.0001) > hFacInf=0.05,
(PID.TID 0000.0001) > hFacSup=2.0,
(PID.TID 0000.0001) >#ph)
(PID.TID 0000.0001) > readBinaryPrec=64,
(PID.TID 0000.0001) > useSingleCpuIO=.TRUE.,
(PID.TID 0000.0001) > /
(PID.TID 0000.0001) >
(PID.TID 0000.0001) ># Elliptic solver parameters
(PID.TID 0000.0001) > &PARM02
(PID.TID 0000.0001) > cg2dMaxIters=1000,
(PID.TID 0000.0001) > cg2dTargetResidual=1.E-13,
(PID.TID 0000.0001) > /
(PID.TID 0000.0001) >
(PID.TID 0000.0001) ># Time stepping parameters
(PID.TID 0000.0001) > &PARM03
(PID.TID 0000.0001) > nIter0=8640,
(PID.TID 0000.0001) > nTimeSteps=10,
(PID.TID 0000.0001) > deltaT=1800.0,
(PID.TID 0000.0001) > abEps=0.1,
(PID.TID 0000.0001) > cAdjFreq = 1.,
(PID.TID 0000.0001) > tauCD = 400000.,
(PID.TID 0000.0001) > pChkptFreq=0.0,
(PID.TID 0000.0001) > chkptFreq=0.0,
(PID.TID 0000.0001) > dumpFreq=0.0,
(PID.TID 0000.0001) > taveFreq=0.0,
(PID.TID 0000.0001) > monitorFreq=1.,
(PID.TID 0000.0001) > monitorSelect=2,
(PID.TID 0000.0001) > adjMonitorFreq=1800.,
(PID.TID 0000.0001) > /
(PID.TID 0000.0001) >
(PID.TID 0000.0001) ># Gridding parameters
(PID.TID 0000.0001) > &PARM04
(PID.TID 0000.0001) > usingSphericalPolarGrid=.TRUE.,
(PID.TID 0000.0001) > ygOrigin = -80.0,
(PID.TID 0000.0001) > delX=50*0.3,
(PID.TID 0000.0001) > delY=100*0.1,
(PID.TID 0000.0001) > delZ=30*30.0,
(PID.TID 0000.0001) > /
(PID.TID 0000.0001) >
(PID.TID 0000.0001) ># Input datasets
(PID.TID 0000.0001) > &PARM05
(PID.TID 0000.0001) > bathyFile='bathy.box',
(PID.TID 0000.0001) > /
(PID.TID 0000.0001) 
(PID.TID 0000.0001)  INI_PARMS ; starts to read PARM01
(PID.TID 0000.0001)  INI_PARMS ; read PARM01 : OK
(PID.TID 0000.0001)  INI_PARMS ; starts to read PARM02
(PID.TID 0000.0001)  INI_PARMS ; read PARM02 : OK
(PID.TID 0000.0001)  INI_PARMS ; starts to read PARM03
(PID.TID 0000.0001)  INI_PARMS ; read PARM03 : OK
(PID.TID 0000.0001)  INI_PARMS ; starts to read PARM04
(PID.TID 0000.0001)  INI_PARMS ; read PARM04 : OK
(PID.TID 0000.0001)  INI_PARMS ; starts to read PARM05
(PID.TID 0000.0001)  INI_PARMS ; read PARM05 : OK
(PID.TID 0000.0001)  INI_PARMS: finished reading file "data"
(PID.TID 0000.0001)  PACKAGES_BOOT: opening data.pkg
(PID.TID 0000.0001)  OPEN_COPY_DATA_FILE: opening file data.pkg
(PID.TID 0000.0001) // =======================================================
(PID.TID 0000.0001) // Parameter file "data.pkg"
(PID.TID 0000.0001) // =======================================================
(PID.TID 0000.0001) ># Packages
(PID.TID 0000.0001) > &PACKAGES
(PID.TID 0000.0001) >#useMNC=.TRUE.,
(PID.TID 0000.0001) > useShelfIce=.TRUE.,
(PID.TID 0000.0001) > useGrdchk=.TRUE.,
(PID.TID 0000.0001) > /
(PID.TID 0000.0001) 
(PID.TID 0000.0001)  PACKAGES_BOOT: finished reading data.pkg
(PID.TID 0000.0001)  SHELFICE_READPARMS: opening data.shelfice
(PID.TID 0000.0001)  OPEN_COPY_DATA_FILE: opening file data.shelfice
(PID.TID 0000.0001) // =======================================================
(PID.TID 0000.0001) // Parameter file "data.shelfice"
(PID.TID 0000.0001) // =======================================================
(PID.TID 0000.0001) ># ===================================
(PID.TID 0000.0001) ># | Parameters for SHELFICE package |
(PID.TID 0000.0001) ># ===================================
(PID.TID 0000.0001) > &SHELFICE_PARM01
(PID.TID 0000.0001) > SHELFICEboundaryLayer = .TRUE.,
(PID.TID 0000.0001) > SHELFICEtopoFile='icetopo.exp1',
(PID.TID 0000.0001) > SHELFICEloadAnomalyFile = 'phi0surf.exp1.jmd95z',
(PID.TID 0000.0001) > useISOMIPTD = .FALSE.,
(PID.TID 0000.0001) > no_slip_shelfice = .false.,
(PID.TID 0000.0001) > SHELFICEwriteState = .TRUE.,
(PID.TID 0000.0001) > /
(PID.TID 0000.0001) 
(PID.TID 0000.0001)  SHELFICE_READPARMS: finished reading data.shelfice
(PID.TID 0000.0001) AUTODIFF_READPARMS: opening data.autodiff
(PID.TID 0000.0001)  OPEN_COPY_DATA_FILE: opening file data.autodiff
(PID.TID 0000.0001) // =======================================================
(PID.TID 0000.0001) // Parameter file "data.autodiff"
(PID.TID 0000.0001) // =======================================================
(PID.TID 0000.0001) ># =========================
(PID.TID 0000.0001) ># pkg AUTODIFF parameters :
(PID.TID 0000.0001) ># =========================
(PID.TID 0000.0001) >#  inAdExact :: get an exact adjoint (no approximation) (def=.True.)
(PID.TID 0000.0001) >#
(PID.TID 0000.0001) > &AUTODIFF_PARM01
(PID.TID 0000.0001) ># inAdExact = .FALSE.,
(PID.TID 0000.0001) > /
(PID.TID 0000.0001) 
(PID.TID 0000.0001) AUTODIFF_READPARMS: finished reading data.autodiff
(PID.TID 0000.0001) // ===================================
(PID.TID 0000.0001) // AUTODIFF parameters :
(PID.TID 0000.0001) // ===================================
(PID.TID 0000.0001) inAdExact = /* get an exact adjoint (no approximation) */
(PID.TID 0000.0001)                   T
(PID.TID 0000.0001)     ;
(PID.TID 0000.0001) useKPPinAdMode = /* use KPP in adjoint mode */
(PID.TID 0000.0001)                   F
(PID.TID 0000.0001)     ;
(PID.TID 0000.0001) useGMRediInAdMode = /* use GMRedi in adjoint mode */
(PID.TID 0000.0001)                   F
(PID.TID 0000.0001)     ;
(PID.TID 0000.0001) useSEAICEinAdMode = /* use SEAICE in adjoint mode */
(PID.TID 0000.0001)                   F
(PID.TID 0000.0001)     ;
(PID.TID 0000.0001) useGGL90inAdMode = /* use GGL90 in adjoint mode */
(PID.TID 0000.0001)                   F
(PID.TID 0000.0001)     ;
(PID.TID 0000.0001) useSALT_PLUMEinAdMode = /* use SALT_PLUME in adjoint mode */
(PID.TID 0000.0001)                   F
(PID.TID 0000.0001)     ;
(PID.TID 0000.0001) dumpAdVarExch = /* control adexch before dumpinp */
(PID.TID 0000.0001)                       2
(PID.TID 0000.0001)     ;
(PID.TID 0000.0001) mon_AdVarExch = /* control adexch before monitor */
(PID.TID 0000.0001)                       2
(PID.TID 0000.0001)     ;
(PID.TID 0000.0001) 
(PID.TID 0000.0001) OPTIM_READPARMS: opening data.optim
(PID.TID 0000.0001)  OPEN_COPY_DATA_FILE: opening file data.optim
(PID.TID 0000.0001) // =======================================================
(PID.TID 0000.0001) // Parameter file "data.optim"
(PID.TID 0000.0001) // =======================================================
(PID.TID 0000.0001) > &OPTIM
(PID.TID 0000.0001) > optimcycle=0,
(PID.TID 0000.0001) > /
(PID.TID 0000.0001) 
(PID.TID 0000.0001) OPTIM_READPARMS: finished reading data.optim
(PID.TID 0000.0001) CTRL_READPARMS: opening data.ctrl
(PID.TID 0000.0001)  OPEN_COPY_DATA_FILE: opening file data.ctrl
(PID.TID 0000.0001) // =======================================================
(PID.TID 0000.0001) // Parameter file "data.ctrl"
(PID.TID 0000.0001) // =======================================================
(PID.TID 0000.0001) >#
(PID.TID 0000.0001) >#
(PID.TID 0000.0001) ># *********************
(PID.TID 0000.0001) ># ECCO controlvariables
(PID.TID 0000.0001) ># *********************
(PID.TID 0000.0001) > &CTRL_NML
(PID.TID 0000.0001) > xx_theta_file      ='xx_theta',
(PID.TID 0000.0001) > xx_salt_file       ='xx_salt',
(PID.TID 0000.0001) >#
(PID.TID 0000.0001) > xx_hfluxstartdate1 = 19790101,
(PID.TID 0000.0001) > xx_hfluxstartdate2 = 000000,
(PID.TID 0000.0001) > xx_hfluxperiod     = 864000.0,
(PID.TID 0000.0001) > xx_hflux_file      = 'xx_hfl',
(PID.TID 0000.0001) >#
(PID.TID 0000.0001) > xx_sfluxstartdate1 = 19790101,
(PID.TID 0000.0001) > xx_sfluxstartdate2 = 000000,
(PID.TID 0000.0001) > xx_sfluxperiod     = 864000.0,
(PID.TID 0000.0001) > xx_sflux_file      = 'xx_sfl',
(PID.TID 0000.0001) >#
(PID.TID 0000.0001) > xx_tauustartdate1 = 19790101,
(PID.TID 0000.0001) > xx_tauustartdate2 = 000000,
(PID.TID 0000.0001) > xx_tauuperiod     = 864000.0,
(PID.TID 0000.0001) > xx_tauu_file      = 'xx_tauu',
(PID.TID 0000.0001) >#
(PID.TID 0000.0001) > xx_tauvstartdate1 = 19790101,
(PID.TID 0000.0001) > xx_tauvstartdate2 = 000000,
(PID.TID 0000.0001) > xx_tauvperiod     = 864000.0,
(PID.TID 0000.0001) > xx_tauv_file      = 'xx_tauv',
(PID.TID 0000.0001) >#
(PID.TID 0000.0001) > xx_atempstartdate1 = 19790101,
(PID.TID 0000.0001) > xx_atempstartdate2 = 000000,
(PID.TID 0000.0001) > xx_atempperiod     = 864000.0,
(PID.TID 0000.0001) > xx_atemp_file      = 'xx_atemp',
(PID.TID 0000.0001) >#
(PID.TID 0000.0001) > xx_aqhstartdate1 = 19790101,
(PID.TID 0000.0001) > xx_aqhstartdate2 = 000000,
(PID.TID 0000.0001) > xx_aqhperiod     = 864000.0,
(PID.TID 0000.0001) > xx_aqh_file      = 'xx_aqh',
(PID.TID 0000.0001) >#
(PID.TID 0000.0001) > xx_precipstartdate1 = 19790101,
(PID.TID 0000.0001) > xx_precipstartdate2 = 000000,
(PID.TID 0000.0001) > xx_precipperiod     = 864000.0,
(PID.TID 0000.0001) > xx_precip_file      = 'xx_precip',
(PID.TID 0000.0001) >#
(PID.TID 0000.0001) > xx_swdownstartdate1 = 19790101,
(PID.TID 0000.0001) > xx_swdownstartdate2 = 000000,
(PID.TID 0000.0001) > xx_swdownperiod     = 864000.0,
(PID.TID 0000.0001) > xx_swdown_file      = 'xx_swdown',
(PID.TID 0000.0001) >#
(PID.TID 0000.0001) > xx_uwindstartdate1 = 19790101,
(PID.TID 0000.0001) > xx_uwindstartdate2 = 000000,
(PID.TID 0000.0001) > xx_uwindperiod     = 864000.0,
(PID.TID 0000.0001) > xx_uwind_file      = 'xx_uwind',
(PID.TID 0000.0001) >#
(PID.TID 0000.0001) > xx_vwindstartdate1 = 19790101,
(PID.TID 0000.0001) > xx_vwindstartdate2 = 000000,
(PID.TID 0000.0001) > xx_vwindperiod     = 864000.0,
(PID.TID 0000.0001) > xx_vwind_file      = 'xx_vwind',
(PID.TID 0000.0001) >#
(PID.TID 0000.0001) > xx_sststartdate1 = 19790101,
(PID.TID 0000.0001) > xx_sststartdate2 = 000000,
(PID.TID 0000.0001) > xx_sstperiod     = 864000.0,
(PID.TID 0000.0001) > xx_sst_file      = 'xx_sst',
(PID.TID 0000.0001) >#
(PID.TID 0000.0001) > xx_sssstartdate1 = 19790101,
(PID.TID 0000.0001) > xx_sssstartdate2 = 000000,
(PID.TID 0000.0001) > xx_sssperiod     = 864000.0,
(PID.TID 0000.0001) > xx_sss_file      = 'xx_sss',
(PID.TID 0000.0001) > /
(PID.TID 0000.0001) >#
(PID.TID 0000.0001) ># *********************
(PID.TID 0000.0001) ># names for ctrl_pack/unpack
(PID.TID 0000.0001) ># *********************
(PID.TID 0000.0001) > &CTRL_PACKNAMES
(PID.TID 0000.0001) > /
(PID.TID 0000.0001) 
(PID.TID 0000.0001) CTRL_READPARMS: finished reading data.ctrl
(PID.TID 0000.0001) COST_READPARMS: opening data.cost
(PID.TID 0000.0001)  OPEN_COPY_DATA_FILE: opening file data.cost
(PID.TID 0000.0001) // =======================================================
(PID.TID 0000.0001) // Parameter file "data.cost"
(PID.TID 0000.0001) // =======================================================
(PID.TID 0000.0001) >#
(PID.TID 0000.0001) >#
(PID.TID 0000.0001) ># ******************
(PID.TID 0000.0001) ># cost function
(PID.TID 0000.0001) ># ******************
(PID.TID 0000.0001) > &COST_NML
(PID.TID 0000.0001) >#revert to default 1 month
(PID.TID 0000.0001) ># lastinterval=7776000.,
(PID.TID 0000.0001) > mult_test=1.,
(PID.TID 0000.0001) > /
(PID.TID 0000.0001) 
(PID.TID 0000.0001) COST_READPARMS: finished reading data.cost
(PID.TID 0000.0001) GRDCHK_READPARMS: opening data.grdchk
(PID.TID 0000.0001)  OPEN_COPY_DATA_FILE: opening file data.grdchk
(PID.TID 0000.0001) // =======================================================
(PID.TID 0000.0001) // Parameter file "data.grdchk"
(PID.TID 0000.0001) // =======================================================
(PID.TID 0000.0001) ># *******************
(PID.TID 0000.0001) ># ECCO gradient check
(PID.TID 0000.0001) ># *******************
(PID.TID 0000.0001) > &GRDCHK_NML
(PID.TID 0000.0001) > grdchk_eps       = 1.d-2,
(PID.TID 0000.0001) >  iglopos         = 20,
(PID.TID 0000.0001) >  jglopos         = 24,
(PID.TID 0000.0001) >  kglopos         = 20,
(PID.TID 0000.0001) ># nbeg             = 1,
(PID.TID 0000.0001) > nstep            = 1,
(PID.TID 0000.0001) > nend             = 4,
(PID.TID 0000.0001) > grdchkvarindex   = 1,
(PID.TID 0000.0001) > /
(PID.TID 0000.0001) 
(PID.TID 0000.0001) GRDCHK_READPARMS: finished reading data.grdchk
(PID.TID 0000.0001) 
(PID.TID 0000.0001) // =======================================================
(PID.TID 0000.0001) // Gradient check configuration  >>> START <<<
(PID.TID 0000.0001) // =======================================================
(PID.TID 0000.0001) 
(PID.TID 0000.0001)   eps:                              0.100E-01
(PID.TID 0000.0001)   First location:                           0
(PID.TID 0000.0001)   Last location:                            4
(PID.TID 0000.0001)   Increment:                                1
(PID.TID 0000.0001)   grdchkWhichProc:                          0
(PID.TID 0000.0001)   iLocTile =       1  ,    jLocTile =       1
(PID.TID 0000.0001) 
(PID.TID 0000.0001) // =======================================================
(PID.TID 0000.0001) // Gradient check configuration  >>> END <<<
(PID.TID 0000.0001) // =======================================================
(PID.TID 0000.0001) 
(PID.TID 0000.0001) SET_PARMS: done
(PID.TID 0000.0001) Enter INI_VERTICAL_GRID: setInterFDr=    T ; setCenterDr=    F
(PID.TID 0000.0001) %MON XC_max                       =   1.4850000000000E+01
(PID.TID 0000.0001) %MON XC_min                       =   1.5000000000000E-01
(PID.TID 0000.0001) %MON XC_mean                      =   7.5000000000000E+00
(PID.TID 0000.0001) %MON XC_sd                        =   4.3292609068985E+00
(PID.TID 0000.0001) %MON XG_max                       =   1.4700000000000E+01
(PID.TID 0000.0001) %MON XG_min                       =   1.1102230246252E-16
(PID.TID 0000.0001) %MON XG_mean                      =   7.3500000000000E+00
(PID.TID 0000.0001) %MON XG_sd                        =   4.3292609068985E+00
(PID.TID 0000.0001) %MON DXC_max                      =   1.1380125394806E+04
(PID.TID 0000.0001) %MON DXC_min                      =   5.8203914905589E+03
(PID.TID 0000.0001) %MON DXC_mean                     =   8.6215028627207E+03
(PID.TID 0000.0001) %MON DXC_sd                       =   1.6219001271572E+03
(PID.TID 0000.0001) %MON DXF_max                      =   1.1380125394806E+04
(PID.TID 0000.0001) %MON DXF_min                      =   5.8203914905589E+03
(PID.TID 0000.0001) %MON DXF_mean                     =   8.6215028627207E+03
(PID.TID 0000.0001) %MON DXF_sd                       =   1.6219001271572E+03
(PID.TID 0000.0001) %MON DXG_max                      =   1.1352761512017E+04
(PID.TID 0000.0001) %MON DXG_min                      =   5.7917296935586E+03
(PID.TID 0000.0001) %MON DXG_mean                     =   8.5934208253080E+03
(PID.TID 0000.0001) %MON DXG_sd                       =   1.6222785520817E+03
(PID.TID 0000.0001) %MON DXV_max                      =   1.1352761512017E+04
(PID.TID 0000.0001) %MON DXV_min                      =   5.7917296935586E+03
(PID.TID 0000.0001) %MON DXV_mean                     =   8.5934208253080E+03
(PID.TID 0000.0001) %MON DXV_sd                       =   1.6222785520817E+03
(PID.TID 0000.0001) %MON YC_max                       =  -7.0050000000001E+01
(PID.TID 0000.0001) %MON YC_min                       =  -7.9950000000000E+01
(PID.TID 0000.0001) %MON YC_mean                      =  -7.5000000000000E+01
(PID.TID 0000.0001) %MON YC_sd                        =   2.8866070047720E+00
(PID.TID 0000.0001) %MON YG_max                       =  -7.0100000000001E+01
(PID.TID 0000.0001) %MON YG_min                       =  -8.0000000000000E+01
(PID.TID 0000.0001) %MON YG_mean                      =  -7.5050000000000E+01
(PID.TID 0000.0001) %MON YG_sd                        =   2.8866070047721E+00
(PID.TID 0000.0001) %MON DYC_max                      =   1.1117747335204E+04
(PID.TID 0000.0001) %MON DYC_min                      =   1.1117747335204E+04
(PID.TID 0000.0001) %MON DYC_mean                     =   1.1117747335204E+04
(PID.TID 0000.0001) %MON DYC_sd                       =   4.1836756281555E-11
(PID.TID 0000.0001) %MON DYF_max                      =   1.1117747335204E+04
(PID.TID 0000.0001) %MON DYF_min                      =   1.1117747335204E+04
(PID.TID 0000.0001) %MON DYF_mean                     =   1.1117747335204E+04
(PID.TID 0000.0001) %MON DYF_sd                       =   4.1836756281555E-11
(PID.TID 0000.0001) %MON DYG_max                      =   1.1117747335204E+04
(PID.TID 0000.0001) %MON DYG_min                      =   1.1117747335204E+04
(PID.TID 0000.0001) %MON DYG_mean                     =   1.1117747335204E+04
(PID.TID 0000.0001) %MON DYG_sd                       =   4.1836756281555E-11
(PID.TID 0000.0001) %MON DYU_max                      =   1.1117747335204E+04
(PID.TID 0000.0001) %MON DYU_min                      =   1.1117747335204E+04
(PID.TID 0000.0001) %MON DYU_mean                     =   1.1117747335204E+04
(PID.TID 0000.0001) %MON DYU_sd                       =   4.1836756281555E-11
(PID.TID 0000.0001) %MON RA_max                       =   1.2652134272379E+08
(PID.TID 0000.0001) %MON RA_min                       =   6.4709633770803E+07
(PID.TID 0000.0001) %MON RA_mean                      =   9.5851678311587E+07
(PID.TID 0000.0001) %MON RA_sd                        =   1.8031873527992E+07
(PID.TID 0000.0001) %MON RAW_max                      =   1.2652134272379E+08
(PID.TID 0000.0001) %MON RAW_min                      =   6.4709633770803E+07
(PID.TID 0000.0001) %MON RAW_mean                     =   9.5851678311587E+07
(PID.TID 0000.0001) %MON RAW_sd                       =   1.8031873527992E+07
(PID.TID 0000.0001) %MON RAS_max                      =   1.2621711802744E+08
(PID.TID 0000.0001) %MON RAS_min                      =   6.4390979194019E+07
(PID.TID 0000.0001) %MON RAS_mean                     =   9.5539469354603E+07
(PID.TID 0000.0001) %MON RAS_sd                       =   1.8036080760153E+07
(PID.TID 0000.0001) %MON RAZ_max                      =   1.2621711802744E+08
(PID.TID 0000.0001) %MON RAZ_min                      =   6.4390979194019E+07
(PID.TID 0000.0001) %MON RAZ_mean                     =   9.5539469354603E+07
(PID.TID 0000.0001) %MON RAZ_sd                       =   1.8036080760153E+07
(PID.TID 0000.0001) %MON AngleCS_max                  =   1.0000000000000E+00
(PID.TID 0000.0001) %MON AngleCS_min                  =   1.0000000000000E+00
(PID.TID 0000.0001) %MON AngleCS_mean                 =   1.0000000000000E+00
(PID.TID 0000.0001) %MON AngleCS_sd                   =   0.0000000000000E+00
(PID.TID 0000.0001) %MON AngleSN_max                  =   0.0000000000000E+00
(PID.TID 0000.0001) %MON AngleSN_min                  =   0.0000000000000E+00
(PID.TID 0000.0001) %MON AngleSN_mean                 =   0.0000000000000E+00
(PID.TID 0000.0001) %MON AngleSN_sd                   =   0.0000000000000E+00
(PID.TID 0000.0001) GAD_INIT_FIXED: GAD_OlMinSize=  1  0  1
(PID.TID 0000.0001) 
(PID.TID 0000.0001) // ===================================
(PID.TID 0000.0001) // GAD parameters :
(PID.TID 0000.0001) // ===================================
(PID.TID 0000.0001) tempAdvScheme =   /* Temp. Horiz.Advection scheme selector */
(PID.TID 0000.0001)                       2
(PID.TID 0000.0001)     ;
(PID.TID 0000.0001) tempVertAdvScheme =   /* Temp. Vert. Advection scheme selector */
(PID.TID 0000.0001)                       2
(PID.TID 0000.0001)     ;
(PID.TID 0000.0001) tempMultiDimAdvec =   /* use Muti-Dim Advec method for Temp */
(PID.TID 0000.0001)                   F
(PID.TID 0000.0001)     ;
(PID.TID 0000.0001) tempSOM_Advection = /* use 2nd Order Moment Advection for Temp */
(PID.TID 0000.0001)                   F
(PID.TID 0000.0001)     ;
(PID.TID 0000.0001) AdamsBashforthGt = /* apply Adams-Bashforth extrapolation on Gt */
(PID.TID 0000.0001)                   T
(PID.TID 0000.0001)     ;
(PID.TID 0000.0001) AdamsBashforth_T = /* apply Adams-Bashforth extrapolation on Temp */
(PID.TID 0000.0001)                   F
(PID.TID 0000.0001)     ;
(PID.TID 0000.0001) saltAdvScheme =   /* Salt. Horiz.advection scheme selector */
(PID.TID 0000.0001)                       2
(PID.TID 0000.0001)     ;
(PID.TID 0000.0001) saltVertAdvScheme =   /* Salt. Vert. Advection scheme selector */
(PID.TID 0000.0001)                       2
(PID.TID 0000.0001)     ;
(PID.TID 0000.0001) saltMultiDimAdvec =   /* use Muti-Dim Advec method for Salt */
(PID.TID 0000.0001)                   F
(PID.TID 0000.0001)     ;
(PID.TID 0000.0001) saltSOM_Advection = /* use 2nd Order Moment Advection for Salt */
(PID.TID 0000.0001)                   F
(PID.TID 0000.0001)     ;
(PID.TID 0000.0001) AdamsBashforthGs = /* apply Adams-Bashforth extrapolation on Gs */
(PID.TID 0000.0001)                   T
(PID.TID 0000.0001)     ;
(PID.TID 0000.0001) AdamsBashforth_S = /* apply Adams-Bashforth extrapolation on Salt */
(PID.TID 0000.0001)                   F
(PID.TID 0000.0001)     ;
(PID.TID 0000.0001) // ===================================
(PID.TID 0000.0001) ctrl-wet 1:    nvarlength =       306201
(PID.TID 0000.0001) ctrl-wet 2: surface wet C =            0
(PID.TID 0000.0001) ctrl-wet 3: surface wet W =            0
(PID.TID 0000.0001) ctrl-wet 4: surface wet S =            0
(PID.TID 0000.0001) ctrl-wet 4a:surface wet V =            0
(PID.TID 0000.0001) ctrl-wet 5: 3D wet points =         7200
(PID.TID 0000.0001) ctrl-wet 6: no recs for i =     1           1
(PID.TID 0000.0001) ctrl-wet 6: no recs for i =     2           1
(PID.TID 0000.0001) ctrl-wet 6: no recs for i =     3           0
(PID.TID 0000.0001) ctrl-wet 6: no recs for i =     4           0
(PID.TID 0000.0001) ctrl-wet 6: no recs for i =     5           0
(PID.TID 0000.0001) ctrl-wet 6: no recs for i =     6           0
(PID.TID 0000.0001) ctrl-wet 6: no recs for i =     7           0
(PID.TID 0000.0001) ctrl-wet 6: no recs for i =     8           0
(PID.TID 0000.0001) ctrl-wet 6: no recs for i =     9           0
(PID.TID 0000.0001) ctrl-wet 6: no recs for i =    10           0
(PID.TID 0000.0001) ctrl-wet 6: no recs for i =    11           0
(PID.TID 0000.0001) ctrl-wet 6: no recs for i =    12           0
(PID.TID 0000.0001) ctrl-wet 6: no recs for i =    13           0
(PID.TID 0000.0001) ctrl-wet 6: no recs for i =    14           0
(PID.TID 0000.0001) ctrl-wet 6: no recs for i =    15           1
(PID.TID 0000.0001) ctrl-wet 6: no recs for i =    16           0
(PID.TID 0000.0001) ctrl-wet 6: no recs for i =    17           0
(PID.TID 0000.0001) ctrl-wet 6: no recs for i =    18           0
(PID.TID 0000.0001) ctrl-wet 6: no recs for i =    19           0
(PID.TID 0000.0001) ctrl-wet 6: no recs for i =    20           0
(PID.TID 0000.0001) ctrl-wet 6: no recs for i =    21           0
(PID.TID 0000.0001) ctrl-wet 6: no recs for i =    22           0
(PID.TID 0000.0001) ctrl-wet 6: no recs for i =    23           0
(PID.TID 0000.0001) ctrl-wet 6: no recs for i =    24           0
(PID.TID 0000.0001) ctrl-wet 6: no recs for i =    25           0
(PID.TID 0000.0001) ctrl-wet 6: no recs for i =    26           0
(PID.TID 0000.0001) ctrl-wet 6: no recs for i =    27           0
(PID.TID 0000.0001) ctrl-wet 6: no recs for i =    28           0
(PID.TID 0000.0001) ctrl-wet 6: no recs for i =    29           0
(PID.TID 0000.0001) ctrl-wet 6: no recs for i =    30           0
(PID.TID 0000.0001) ctrl-wet 6: no recs for i =    31           0
(PID.TID 0000.0001) ctrl-wet 6: no recs for i =    32           0
(PID.TID 0000.0001) ctrl-wet 6: no recs for i =    33           0
(PID.TID 0000.0001) ctrl-wet 6: no recs for i =    34           0
(PID.TID 0000.0001) ctrl-wet 6: no recs for i =    35           0
(PID.TID 0000.0001) ctrl-wet 6: no recs for i =    36           0
(PID.TID 0000.0001) ctrl-wet 6: no recs for i =    37           0
(PID.TID 0000.0001) ctrl-wet 6: no recs for i =    38           0
(PID.TID 0000.0001) ctrl-wet 6: no recs for i =    39           0
(PID.TID 0000.0001) ctrl-wet 6: no recs for i =    40           0
(PID.TID 0000.0001) ctrl-wet 6: no recs for i =    41           0
(PID.TID 0000.0001) ctrl-wet 6: no recs for i =    42           0
(PID.TID 0000.0001) ctrl-wet 6: no recs for i =    43           0
(PID.TID 0000.0001) ctrl-wet 6: no recs for i =    44           0
(PID.TID 0000.0001) ctrl-wet 6: no recs for i =    45           1
(PID.TID 0000.0001) ctrl-wet 6: no recs for i =    46           0
(PID.TID 0000.0001) ctrl-wet 6: no recs for i =    47           0
(PID.TID 0000.0001) ctrl-wet 6: no recs for i =    48           0
(PID.TID 0000.0001) ctrl-wet 6: no recs for i =    49           0
(PID.TID 0000.0001) ctrl-wet 6: no recs for i =    50           0
(PID.TID 0000.0001) ctrl-wet 6: no recs for i =    51           0
(PID.TID 0000.0001) ctrl-wet 6: no recs for i =    52           0
(PID.TID 0000.0001) ctrl-wet 6: no recs for i =    53           0
(PID.TID 0000.0001) ctrl-wet 6: no recs for i =    54           0
(PID.TID 0000.0001) ctrl-wet 6: no recs for i =    55           0
(PID.TID 0000.0001) ctrl-wet 6: no recs for i =    56           0
(PID.TID 0000.0001) ctrl-wet 6: no recs for i =    57           0
(PID.TID 0000.0001) ctrl-wet 6: no recs for i =    58           0
(PID.TID 0000.0001) ctrl-wet 6: no recs for i =    59           0
(PID.TID 0000.0001) ctrl-wet 6: no recs for i =    60           0
(PID.TID 0000.0001) ctrl-wet 7: flux         14400
(PID.TID 0000.0001) ctrl-wet 8: atmos        14400
(PID.TID 0000.0001) ctrl-wet -------------------------------------------------
(PID.TID 0000.0001) ctrl-wet 13: global nvarlength for Nr =   30      306201
(PID.TID 0000.0001) ctrl-wet -------------------------------------------------
(PID.TID 0000.0001) ctrl-wet 14: global nWet C/S/W/V k=    1           0           0           0           0
(PID.TID 0000.0001) ctrl-wet 14: global nWet C/S/W/V k=    2           0           0           0           0
(PID.TID 0000.0001) ctrl-wet 14: global nWet C/S/W/V k=    3           0           0           0           0
(PID.TID 0000.0001) ctrl-wet 14: global nWet C/S/W/V k=    4           0           0           0           0
(PID.TID 0000.0001) ctrl-wet 14: global nWet C/S/W/V k=    5           0           0           0           0
(PID.TID 0000.0001) ctrl-wet 14: global nWet C/S/W/V k=    6           0           0           0           0
(PID.TID 0000.0001) ctrl-wet 14: global nWet C/S/W/V k=    7        2989        2940        2928           0
(PID.TID 0000.0001) ctrl-wet 14: global nWet C/S/W/V k=    8        3087        3038        3024           0
(PID.TID 0000.0001) ctrl-wet 14: global nWet C/S/W/V k=    9        3185        3136        3120           0
(PID.TID 0000.0001) ctrl-wet 14: global nWet C/S/W/V k=   10        3332        3283        3264           0
(PID.TID 0000.0001) ctrl-wet 14: global nWet C/S/W/V k=   11        3430        3381        3360           0
(PID.TID 0000.0001) ctrl-wet 14: global nWet C/S/W/V k=   12        3577        3528        3504           0
(PID.TID 0000.0001) ctrl-wet 14: global nWet C/S/W/V k=   13        3675        3626        3600           0
(PID.TID 0000.0001) ctrl-wet 14: global nWet C/S/W/V k=   14        3773        3724        3696           0
(PID.TID 0000.0001) ctrl-wet 14: global nWet C/S/W/V k=   15        3920        3871        3840           0
(PID.TID 0000.0001) ctrl-wet 14: global nWet C/S/W/V k=   16        4018        3969        3936           0
(PID.TID 0000.0001) ctrl-wet 14: global nWet C/S/W/V k=   17        4165        4116        4080           0
(PID.TID 0000.0001) ctrl-wet 14: global nWet C/S/W/V k=   18        4263        4214        4176           0
(PID.TID 0000.0001) ctrl-wet 14: global nWet C/S/W/V k=   19        4361        4312        4272           0
(PID.TID 0000.0001) ctrl-wet 14: global nWet C/S/W/V k=   20        4508        4459        4416           0
(PID.TID 0000.0001) ctrl-wet 14: global nWet C/S/W/V k=   21        4606        4557        4512           0
(PID.TID 0000.0001) ctrl-wet 14: global nWet C/S/W/V k=   22        4753        4704        4656           0
(PID.TID 0000.0001) ctrl-wet 14: global nWet C/S/W/V k=   23        4851        4802        4752           0
(PID.TID 0000.0001) ctrl-wet 14: global nWet C/S/W/V k=   24        4851        4802        4752           0
(PID.TID 0000.0001) ctrl-wet 14: global nWet C/S/W/V k=   25        4851        4802        4752           0
(PID.TID 0000.0001) ctrl-wet 14: global nWet C/S/W/V k=   26        4851        4802        4752           0
(PID.TID 0000.0001) ctrl-wet 14: global nWet C/S/W/V k=   27        4851        4802        4752           0
(PID.TID 0000.0001) ctrl-wet 14: global nWet C/S/W/V k=   28        4851        4802        4752           0
(PID.TID 0000.0001) ctrl-wet 14: global nWet C/S/W/V k=   29        4851        4802        4752           0
(PID.TID 0000.0001) ctrl-wet 14: global nWet C/S/W/V k=   30        4851        4802        4752           0
(PID.TID 0000.0001) ctrl-wet -------------------------------------------------
(PID.TID 0000.0001) ctrl-wet -------------------------------------------------
(PID.TID 0000.0001) ctrl-wet -------------------------------------------------
(PID.TID 0000.0001) ctrl-wet 17a:surface wet I =          576
(PID.TID 0000.0001) ctrl-wet 17b: global nWet I k=    1        4851
(PID.TID 0000.0001) ctrl-wet 17b: global nWet I k=    2           0
(PID.TID 0000.0001) ctrl-wet 17b: global nWet I k=    3           0
(PID.TID 0000.0001) ctrl-wet 17b: global nWet I k=    4           0
(PID.TID 0000.0001) ctrl-wet 17b: global nWet I k=    5           0
(PID.TID 0000.0001) ctrl-wet 17b: global nWet I k=    6           0
(PID.TID 0000.0001) ctrl-wet 17b: global nWet I k=    7        2989
(PID.TID 0000.0001) ctrl-wet 17b: global nWet I k=    8        3087
(PID.TID 0000.0001) ctrl-wet 17b: global nWet I k=    9        3185
(PID.TID 0000.0001) ctrl-wet 17b: global nWet I k=   10        3332
(PID.TID 0000.0001) ctrl-wet 17b: global nWet I k=   11        3430
(PID.TID 0000.0001) ctrl-wet 17b: global nWet I k=   12        3577
(PID.TID 0000.0001) ctrl-wet 17b: global nWet I k=   13        3675
(PID.TID 0000.0001) ctrl-wet 17b: global nWet I k=   14        3773
(PID.TID 0000.0001) ctrl-wet 17b: global nWet I k=   15        3920
(PID.TID 0000.0001) ctrl-wet 17b: global nWet I k=   16        4018
(PID.TID 0000.0001) ctrl-wet 17b: global nWet I k=   17        4165
(PID.TID 0000.0001) ctrl-wet 17b: global nWet I k=   18        4263
(PID.TID 0000.0001) ctrl-wet 17b: global nWet I k=   19        4361
(PID.TID 0000.0001) ctrl-wet 17b: global nWet I k=   20        4508
(PID.TID 0000.0001) ctrl-wet 17b: global nWet I k=   21        4606
(PID.TID 0000.0001) ctrl-wet 17b: global nWet I k=   22        4753
(PID.TID 0000.0001) ctrl-wet 17b: global nWet I k=   23        4851
(PID.TID 0000.0001) ctrl-wet 17b: global nWet I k=   24        4851
(PID.TID 0000.0001) ctrl-wet 17b: global nWet I k=   25        4851
(PID.TID 0000.0001) ctrl-wet 17b: global nWet I k=   26        4851
(PID.TID 0000.0001) ctrl-wet 17b: global nWet I k=   27        4851
(PID.TID 0000.0001) ctrl-wet 17b: global nWet I k=   28        4851
(PID.TID 0000.0001) ctrl-wet 17b: global nWet I k=   29        4851
(PID.TID 0000.0001) ctrl-wet 17b: global nWet I k=   30        4851
(PID.TID 0000.0001) ctrl-wet 17c: global SUM(K) shifwflx         4851
(PID.TID 0000.0001) ctrl-wet -------------------------------------------------
(PID.TID 0000.0001) ctrl_init: no. of control variables:            4
(PID.TID 0000.0001) ctrl_init: control vector length:          306201
(PID.TID 0000.0001) %MON fCori_max                    =  -1.3709057042516E-04
(PID.TID 0000.0001) %MON fCori_min                    =  -1.4360464034757E-04
(PID.TID 0000.0001) %MON fCori_mean                   =  -1.4069429304698E-04
(PID.TID 0000.0001) %MON fCori_sd                     =   1.9069739624987E-06
(PID.TID 0000.0001) %MON fCoriG_max                   =  -1.3713394327439E-04
(PID.TID 0000.0001) %MON fCoriG_min                   =  -1.4362679550910E-04
(PID.TID 0000.0001) %MON fCoriG_mean                  =  -1.4072713798624E-04
(PID.TID 0000.0001) %MON fCoriG_sd                    =   1.9008093726821E-06
(PID.TID 0000.0001) %MON fCoriCos_max                 =   4.9761447480159E-05
(PID.TID 0000.0001) %MON fCoriCos_min                 =   2.5450607565678E-05
(PID.TID 0000.0001) %MON fCoriCos_mean                =   3.7698922201606E-05
(PID.TID 0000.0001) %MON fCoriCos_sd                  =   7.0920218535055E-06
(PID.TID 0000.0001) INI_CG2D: CG2D normalisation factor =  1.0404366262810520E-03
(PID.TID 0000.0001) 
(PID.TID 0000.0001) // =======================================================
(PID.TID 0000.0001) // Model configuration
(PID.TID 0000.0001) // =======================================================
(PID.TID 0000.0001) //
(PID.TID 0000.0001) // "Physical" paramters ( PARM01 in namelist )
(PID.TID 0000.0001) //
(PID.TID 0000.0001) buoyancyRelation = /* Type of relation to get Buoyancy */
(PID.TID 0000.0001)               'OCEANIC'
(PID.TID 0000.0001)     ;
(PID.TID 0000.0001) fluidIsAir   =  /* fluid major constituent is Air */
(PID.TID 0000.0001)                   F
(PID.TID 0000.0001)     ;
(PID.TID 0000.0001) fluidIsWater =  /* fluid major constituent is Water */
(PID.TID 0000.0001)                   T
(PID.TID 0000.0001)     ;
(PID.TID 0000.0001) usingPCoords =  /* use p (or p*) vertical coordinate */
(PID.TID 0000.0001)                   F
(PID.TID 0000.0001)     ;
(PID.TID 0000.0001) usingZCoords =  /* use z (or z*) vertical coordinate */
(PID.TID 0000.0001)                   T
(PID.TID 0000.0001)     ;
(PID.TID 0000.0001) tRef =   /* Reference temperature profile ( oC or K ) */
(PID.TID 0000.0001)    30 @ -1.900000000000000E+00              /* K =  1: 30 */
(PID.TID 0000.0001)     ;
(PID.TID 0000.0001) sRef =   /* Reference salinity profile ( psu ) */
(PID.TID 0000.0001)    30 @  3.440000000000000E+01              /* K =  1: 30 */
(PID.TID 0000.0001)     ;
(PID.TID 0000.0001) useStrainTensionVisc= /* Use StrainTension Form of Viscous Operator */
(PID.TID 0000.0001)                   F
(PID.TID 0000.0001)     ;
(PID.TID 0000.0001) useVariableVisc = /* Use variable horizontal viscosity */
(PID.TID 0000.0001)                   F
(PID.TID 0000.0001)     ;
(PID.TID 0000.0001) useHarmonicVisc = /* Use harmonic horizontal viscosity */
(PID.TID 0000.0001)                   T
(PID.TID 0000.0001)     ;
(PID.TID 0000.0001) useBiharmonicVisc= /* Use biharmonic horiz.  viscosity */
(PID.TID 0000.0001)                   F
(PID.TID 0000.0001)     ;
(PID.TID 0000.0001) useSmag3D = /* Use isotropic 3-D Smagorinsky viscosity */
(PID.TID 0000.0001)                   F
(PID.TID 0000.0001)     ;
(PID.TID 0000.0001) viscAh  =   /* Lateral harmonic viscosity ( m^2/s ) */
(PID.TID 0000.0001)                 6.000000000000000E+02
(PID.TID 0000.0001)     ;
(PID.TID 0000.0001) viscA4  =   /* Lateral biharmonic viscosity ( m^4/s ) */
(PID.TID 0000.0001)                 0.000000000000000E+00
(PID.TID 0000.0001)     ;
(PID.TID 0000.0001) no_slip_sides =  /* Viscous BCs: No-slip sides */
(PID.TID 0000.0001)                   F
(PID.TID 0000.0001)     ;
(PID.TID 0000.0001) sideDragFactor = /* side-drag scaling factor (non-dim) */
(PID.TID 0000.0001)                 2.000000000000000E+00
(PID.TID 0000.0001)     ;
(PID.TID 0000.0001) viscArNr = /* vertical profile of vertical viscosity ( m^2/s )*/
(PID.TID 0000.0001)    30 @  1.000000000000000E-03              /* K =  1: 30 */
(PID.TID 0000.0001)     ;
(PID.TID 0000.0001) no_slip_bottom =  /* Viscous BCs: No-slip bottom */
(PID.TID 0000.0001)                   F
(PID.TID 0000.0001)     ;
(PID.TID 0000.0001) bottomDragLinear = /* linear bottom-drag coefficient ( m/s ) */
(PID.TID 0000.0001)                 0.000000000000000E+00
(PID.TID 0000.0001)     ;
(PID.TID 0000.0001) bottomDragQuadratic = /* quadratic bottom-drag coefficient (-) */
(PID.TID 0000.0001)                 2.500000000000000E-03
(PID.TID 0000.0001)     ;
(PID.TID 0000.0001) diffKhT =   /* Laplacian diffusion of heat laterally ( m^2/s ) */
(PID.TID 0000.0001)                 1.000000000000000E+02
(PID.TID 0000.0001)     ;
(PID.TID 0000.0001) diffK4T =   /* Biharmonic diffusion of heat laterally ( m^4/s ) */
(PID.TID 0000.0001)                 0.000000000000000E+00
(PID.TID 0000.0001)     ;
(PID.TID 0000.0001) diffKhS =   /* Laplacian diffusion of salt laterally ( m^2/s ) */
(PID.TID 0000.0001)                 1.000000000000000E+02
(PID.TID 0000.0001)     ;
(PID.TID 0000.0001) diffK4S =   /* Biharmonic diffusion of salt laterally ( m^4/s ) */
(PID.TID 0000.0001)                 0.000000000000000E+00
(PID.TID 0000.0001)     ;
(PID.TID 0000.0001) diffKrNrT = /* vertical profile of vertical diffusion of Temp ( m^2/s )*/
(PID.TID 0000.0001)    30 @  5.000000000000000E-05              /* K =  1: 30 */
(PID.TID 0000.0001)     ;
(PID.TID 0000.0001) diffKrNrS = /* vertical profile of vertical diffusion of Salt ( m^2/s )*/
(PID.TID 0000.0001)    30 @  5.000000000000000E-05              /* K =  1: 30 */
(PID.TID 0000.0001)     ;
(PID.TID 0000.0001) diffKrBL79surf = /* Surface diffusion for Bryan and Lewis 79 ( m^2/s ) */
(PID.TID 0000.0001)                 0.000000000000000E+00
(PID.TID 0000.0001)     ;
(PID.TID 0000.0001) diffKrBL79deep = /* Deep diffusion for Bryan and Lewis 1979 ( m^2/s ) */
(PID.TID 0000.0001)                 0.000000000000000E+00
(PID.TID 0000.0001)     ;
(PID.TID 0000.0001) diffKrBL79scl = /* Depth scale for Bryan and Lewis 1979 ( m ) */
(PID.TID 0000.0001)                 2.000000000000000E+02
(PID.TID 0000.0001)     ;
(PID.TID 0000.0001) diffKrBL79Ho = /* Turning depth for Bryan and Lewis 1979 ( m ) */
(PID.TID 0000.0001)                -2.000000000000000E+03
(PID.TID 0000.0001)     ;
(PID.TID 0000.0001) ivdc_kappa = /* Implicit Vertical Diffusivity for Convection ( m^2/s) */
(PID.TID 0000.0001)                 0.000000000000000E+00
(PID.TID 0000.0001)     ;
(PID.TID 0000.0001) hMixCriteria=  /* Criteria for mixed-layer diagnostic */
(PID.TID 0000.0001)                -8.000000000000000E-01
(PID.TID 0000.0001)     ;
(PID.TID 0000.0001) dRhoSmall =  /* Parameter for mixed-layer diagnostic */
(PID.TID 0000.0001)                 1.000000000000000E-06
(PID.TID 0000.0001)     ;
(PID.TID 0000.0001) hMixSmooth=  /* Smoothing parameter for mixed-layer diagnostic */
(PID.TID 0000.0001)                 0.000000000000000E+00
(PID.TID 0000.0001)     ;
(PID.TID 0000.0001) eosType =  /* Type of Equation of State */
(PID.TID 0000.0001)               'JMD95Z'
(PID.TID 0000.0001)     ;
(PID.TID 0000.0001) celsius2K = /* 0 degree Celsius converted to Kelvin ( K ) */
(PID.TID 0000.0001)                 2.731500000000000E+02
(PID.TID 0000.0001)     ;
(PID.TID 0000.0001) rhoConst  = /* Reference density (Boussinesq)  ( kg/m^3 ) */
(PID.TID 0000.0001)                 1.030000000000000E+03
(PID.TID 0000.0001)     ;
(PID.TID 0000.0001) rhoFacC = /* normalized Reference density @ cell-Center (-) */
(PID.TID 0000.0001)    30 @  1.000000000000000E+00              /* K =  1: 30 */
(PID.TID 0000.0001)     ;
(PID.TID 0000.0001) rhoFacF = /* normalized Reference density @ W-Interface (-) */
(PID.TID 0000.0001)    31 @  1.000000000000000E+00              /* K =  1: 31 */
(PID.TID 0000.0001)     ;
(PID.TID 0000.0001) rhoConstFresh = /* Fresh-water reference density ( kg/m^3 ) */
(PID.TID 0000.0001)                 1.030000000000000E+03
(PID.TID 0000.0001)     ;
(PID.TID 0000.0001) gravity =   /* Gravitational acceleration ( m/s^2 ) */
(PID.TID 0000.0001)                 9.810000000000000E+00
(PID.TID 0000.0001)     ;
(PID.TID 0000.0001) gBaro =   /* Barotropic gravity ( m/s^2 ) */
(PID.TID 0000.0001)                 9.810000000000000E+00
(PID.TID 0000.0001)     ;
(PID.TID 0000.0001) rotationPeriod =   /* Rotation Period ( s ) */
(PID.TID 0000.0001)                 8.616400000000000E+04
(PID.TID 0000.0001)     ;
(PID.TID 0000.0001) omega =   /* Angular velocity ( rad/s ) */
(PID.TID 0000.0001)                 7.292123516990375E-05
(PID.TID 0000.0001)     ;
(PID.TID 0000.0001) f0 =   /* Reference coriolis parameter ( 1/s ) */
(PID.TID 0000.0001)                 1.000000000000000E-04
(PID.TID 0000.0001)     ;
(PID.TID 0000.0001) beta =   /* Beta ( 1/(m.s) ) */
(PID.TID 0000.0001)                 9.999999999999999E-12
(PID.TID 0000.0001)     ;
(PID.TID 0000.0001) fPrime =   /* Second coriolis parameter ( 1/s ) */
(PID.TID 0000.0001)                 0.000000000000000E+00
(PID.TID 0000.0001)     ;
(PID.TID 0000.0001) rigidLid =   /* Rigid lid on/off flag */
(PID.TID 0000.0001)                   F
(PID.TID 0000.0001)     ;
(PID.TID 0000.0001) implicitFreeSurface =   /* Implicit free surface on/off flag */
(PID.TID 0000.0001)                   T
(PID.TID 0000.0001)     ;
(PID.TID 0000.0001) freeSurfFac =   /* Implicit free surface factor */
(PID.TID 0000.0001)                 1.000000000000000E+00
(PID.TID 0000.0001)     ;
(PID.TID 0000.0001) implicSurfPress =  /* Surface Pressure implicit factor (0-1)*/
(PID.TID 0000.0001)                 1.000000000000000E+00
(PID.TID 0000.0001)     ;
(PID.TID 0000.0001) implicDiv2Dflow =  /* Barot. Flow Div. implicit factor (0-1)*/
(PID.TID 0000.0001)                 1.000000000000000E+00
(PID.TID 0000.0001)     ;
(PID.TID 0000.0001) uniformLin_PhiSurf = /* use uniform Bo_surf on/off flag*/
(PID.TID 0000.0001)                   T
(PID.TID 0000.0001)     ;
(PID.TID 0000.0001) uniformFreeSurfLev = /* free-surface level-index is uniform */
(PID.TID 0000.0001)                   F
(PID.TID 0000.0001)     ;
(PID.TID 0000.0001) hFacMin =   /* minimum partial cell factor (hFac) */
(PID.TID 0000.0001)                 1.000000000000000E-01
(PID.TID 0000.0001)     ;
(PID.TID 0000.0001) hFacMinDr = /* minimum partial cell thickness ( m) */
(PID.TID 0000.0001)                 1.000000000000000E-01
(PID.TID 0000.0001)     ;
(PID.TID 0000.0001) exactConserv =  /* Exact Volume Conservation on/off flag*/
(PID.TID 0000.0001)                   T
(PID.TID 0000.0001)     ;
(PID.TID 0000.0001) linFSConserveTr = /* Tracer correction for Lin Free Surface on/off flag*/
(PID.TID 0000.0001)                   F
(PID.TID 0000.0001)     ;
(PID.TID 0000.0001) nonlinFreeSurf = /* Non-linear Free Surf. options (-1,0,1,2,3)*/
(PID.TID 0000.0001)                       2
(PID.TID 0000.0001)      -1,0= Off ; 1,2,3= On, 2=+rescale gU,gV, 3=+update cg2d solv.
(PID.TID 0000.0001)     ;
(PID.TID 0000.0001) hFacInf =   /* lower threshold for hFac (nonlinFreeSurf only)*/
(PID.TID 0000.0001)                 5.000000000000000E-02
(PID.TID 0000.0001)     ;
(PID.TID 0000.0001) hFacSup =   /* upper threshold for hFac (nonlinFreeSurf only)*/
(PID.TID 0000.0001)                 2.000000000000000E+00
(PID.TID 0000.0001)     ;
(PID.TID 0000.0001) select_rStar = /* r* Vertical coord. options (=0 r coord.; >0 uses r*)*/
(PID.TID 0000.0001)                       0
(PID.TID 0000.0001)     ;
(PID.TID 0000.0001) useRealFreshWaterFlux = /* Real Fresh Water Flux on/off flag*/
(PID.TID 0000.0001)                   F
(PID.TID 0000.0001)     ;
(PID.TID 0000.0001) temp_EvPrRn = /* Temp. of Evap/Prec/R (UNSET=use local T)(oC)*/
(PID.TID 0000.0001)                 1.234567000000000E+05
(PID.TID 0000.0001)     ;
(PID.TID 0000.0001) salt_EvPrRn = /* Salin. of Evap/Prec/R (UNSET=use local S)(psu)*/
(PID.TID 0000.0001)                 0.000000000000000E+00
(PID.TID 0000.0001)     ;
(PID.TID 0000.0001) selectAddFluid = /* option for mass source/sink of fluid (=0: off) */
(PID.TID 0000.0001)                       0
(PID.TID 0000.0001)     ;
(PID.TID 0000.0001) temp_addMass = /* Temp. of addMass array (UNSET=use local T)(oC)*/
(PID.TID 0000.0001)                 1.234567000000000E+05
(PID.TID 0000.0001)     ;
(PID.TID 0000.0001) salt_addMass = /* Salin. of addMass array (UNSET=use local S)(psu)*/
(PID.TID 0000.0001)                 0.000000000000000E+00
(PID.TID 0000.0001)     ;
(PID.TID 0000.0001) convertFW2Salt = /* convert F.W. Flux to Salt Flux (-1=use local S)(psu)*/
(PID.TID 0000.0001)                 3.340000000000000E+01
(PID.TID 0000.0001)     ;
(PID.TID 0000.0001) use3Dsolver = /* use 3-D pressure solver on/off flag */
(PID.TID 0000.0001)                   F
(PID.TID 0000.0001)     ;
(PID.TID 0000.0001) nonHydrostatic =  /* Non-Hydrostatic on/off flag */
(PID.TID 0000.0001)                   F
(PID.TID 0000.0001)     ;
(PID.TID 0000.0001) nh_Am2 = /* Non-Hydrostatic terms scaling factor */
(PID.TID 0000.0001)                 1.000000000000000E+00
(PID.TID 0000.0001)     ;
(PID.TID 0000.0001) implicitNHPress = /* Non-Hyd Pressure implicit factor (0-1)*/
(PID.TID 0000.0001)                 1.000000000000000E+00
(PID.TID 0000.0001)     ;
(PID.TID 0000.0001) selectNHfreeSurf = /* Non-Hyd (free-)Surface option */
(PID.TID 0000.0001)                       0
(PID.TID 0000.0001)     ;
(PID.TID 0000.0001) quasiHydrostatic = /* Quasi-Hydrostatic on/off flag */
(PID.TID 0000.0001)                   F
(PID.TID 0000.0001)     ;
(PID.TID 0000.0001) calc_wVelocity = /* vertical velocity calculation on/off flag */
(PID.TID 0000.0001)                   T
(PID.TID 0000.0001)     ;
(PID.TID 0000.0001) momStepping =  /* Momentum equation on/off flag */
(PID.TID 0000.0001)                   T
(PID.TID 0000.0001)     ;
(PID.TID 0000.0001) vectorInvariantMomentum= /* Vector-Invariant Momentum on/off */
(PID.TID 0000.0001)                   T
(PID.TID 0000.0001)     ;
(PID.TID 0000.0001) momAdvection =  /* Momentum advection on/off flag */
(PID.TID 0000.0001)                   T
(PID.TID 0000.0001)     ;
(PID.TID 0000.0001) momViscosity =  /* Momentum viscosity on/off flag */
(PID.TID 0000.0001)                   T
(PID.TID 0000.0001)     ;
(PID.TID 0000.0001) momImplVertAdv= /* Momentum implicit vert. advection on/off*/
(PID.TID 0000.0001)                   F
(PID.TID 0000.0001)     ;
(PID.TID 0000.0001) implicitViscosity = /* Implicit viscosity on/off flag */
(PID.TID 0000.0001)                   F
(PID.TID 0000.0001)     ;
(PID.TID 0000.0001) metricTerms =  /* metric-Terms on/off flag */
(PID.TID 0000.0001)                   T
(PID.TID 0000.0001)     ;
(PID.TID 0000.0001) useNHMTerms = /* Non-Hydrostatic Metric-Terms on/off */
(PID.TID 0000.0001)                   F
(PID.TID 0000.0001)     ;
(PID.TID 0000.0001) selectCoriMap = /* Coriolis Map options (0,1,2,3)*/
(PID.TID 0000.0001)                       2
(PID.TID 0000.0001)     0= f-Plane ; 1= Beta-Plane ; 2= Spherical ; 3= read from file
(PID.TID 0000.0001)     ;
(PID.TID 0000.0001) use3dCoriolis = /* 3-D Coriolis on/off flag */
(PID.TID 0000.0001)                   F
(PID.TID 0000.0001)     ;
(PID.TID 0000.0001) useCoriolis =  /* Coriolis on/off flag */
(PID.TID 0000.0001)                   T
(PID.TID 0000.0001)     ;
(PID.TID 0000.0001) useCDscheme =  /* CD scheme on/off flag */
(PID.TID 0000.0001)                   T
(PID.TID 0000.0001)     ;
(PID.TID 0000.0001) useEnergyConservingCoriolis= /* Flx-Form Coriolis scheme flag */
(PID.TID 0000.0001)                   F
(PID.TID 0000.0001)     ;
(PID.TID 0000.0001) useJamartWetPoints= /* Coriolis WetPoints method flag */
(PID.TID 0000.0001)                   F
(PID.TID 0000.0001)     ;
(PID.TID 0000.0001) useJamartMomAdv= /* V.I Non-linear terms Jamart flag */
(PID.TID 0000.0001)                   F
(PID.TID 0000.0001)     ;
(PID.TID 0000.0001) useAbsVorticity= /* V.I Works with f+zeta in Coriolis */
(PID.TID 0000.0001)                   F
(PID.TID 0000.0001)     ;
(PID.TID 0000.0001) selectVortScheme= /* V.I Scheme selector for Vorticity-Term */
(PID.TID 0000.0001)                       1
(PID.TID 0000.0001)    = 0 : enstrophy (Shallow-Water Eq.) conserving scheme by Sadourny, JAS 75
(PID.TID 0000.0001)    = 1 : same as 0 with modified hFac
(PID.TID 0000.0001)    = 2 : energy conserving scheme (used by Sadourny in JAS 75 paper)
(PID.TID 0000.0001)    = 3 : energy (general) and enstrophy (2D, nonDiv.) conserving scheme
(PID.TID 0000.0001)          from Sadourny (Burridge & Haseler, ECMWF Rep.4, 1977)
(PID.TID 0000.0001)     ;
(PID.TID 0000.0001) upwindVorticity= /* V.I Upwind bias vorticity flag */
(PID.TID 0000.0001)                   F
(PID.TID 0000.0001)     ;
(PID.TID 0000.0001) highOrderVorticity= /* V.I High order vort. advect. flag */
(PID.TID 0000.0001)                   F
(PID.TID 0000.0001)     ;
(PID.TID 0000.0001) upwindShear= /* V.I Upwind vertical Shear advection flag */
(PID.TID 0000.0001)                   F
(PID.TID 0000.0001)     ;
(PID.TID 0000.0001) selectKEscheme= /* V.I Kinetic Energy scheme selector */
(PID.TID 0000.0001)                       0
(PID.TID 0000.0001)     ;
(PID.TID 0000.0001) momForcing =  /* Momentum forcing on/off flag */
(PID.TID 0000.0001)                   T
(PID.TID 0000.0001)     ;
(PID.TID 0000.0001) momPressureForcing =  /* Momentum pressure term on/off flag */
(PID.TID 0000.0001)                   T
(PID.TID 0000.0001)     ;
(PID.TID 0000.0001) implicitIntGravWave= /* Implicit Internal Gravity Wave flag */
(PID.TID 0000.0001)                   F
(PID.TID 0000.0001)     ;
(PID.TID 0000.0001) staggerTimeStep =    /* Stagger time stepping on/off flag */
(PID.TID 0000.0001)                   T
(PID.TID 0000.0001)     ;
(PID.TID 0000.0001) doResetHFactors = /* reset thickness factors @ each time-step */
(PID.TID 0000.0001)                   T
(PID.TID 0000.0001)     ;
(PID.TID 0000.0001) multiDimAdvection =  /* enable/disable Multi-Dim Advection */
(PID.TID 0000.0001)                   T
(PID.TID 0000.0001)     ;
(PID.TID 0000.0001) useMultiDimAdvec =   /* Multi-Dim Advection is/is-not used */
(PID.TID 0000.0001)                   F
(PID.TID 0000.0001)     ;
(PID.TID 0000.0001) implicitDiffusion = /* Implicit Diffusion on/off flag */
(PID.TID 0000.0001)                   T
(PID.TID 0000.0001)     ;
(PID.TID 0000.0001) tempStepping =  /* Temperature equation on/off flag */
(PID.TID 0000.0001)                   T
(PID.TID 0000.0001)     ;
(PID.TID 0000.0001) tempAdvection = /* Temperature advection on/off flag */
(PID.TID 0000.0001)                   T
(PID.TID 0000.0001)     ;
(PID.TID 0000.0001) tempImplVertAdv = /* Temp. implicit vert. advection on/off */
(PID.TID 0000.0001)                   F
(PID.TID 0000.0001)     ;
(PID.TID 0000.0001) tempForcing  =  /* Temperature forcing on/off flag */
(PID.TID 0000.0001)                   T
(PID.TID 0000.0001)     ;
(PID.TID 0000.0001) doThetaClimRelax = /* apply SST relaxation on/off flag */
(PID.TID 0000.0001)                   F
(PID.TID 0000.0001)     ;
(PID.TID 0000.0001) tempIsActiveTr = /* Temp. is a dynamically Active Tracer */
(PID.TID 0000.0001)                   T
(PID.TID 0000.0001)     ;
(PID.TID 0000.0001) saltStepping =  /* Salinity equation on/off flag */
(PID.TID 0000.0001)                   T
(PID.TID 0000.0001)     ;
(PID.TID 0000.0001) saltAdvection = /* Salinity advection on/off flag */
(PID.TID 0000.0001)                   T
(PID.TID 0000.0001)     ;
(PID.TID 0000.0001) saltImplVertAdv = /* Sali. implicit vert. advection on/off */
(PID.TID 0000.0001)                   F
(PID.TID 0000.0001)     ;
(PID.TID 0000.0001) saltForcing  =  /* Salinity forcing on/off flag */
(PID.TID 0000.0001)                   T
(PID.TID 0000.0001)     ;
(PID.TID 0000.0001) doSaltClimRelax = /* apply SSS relaxation on/off flag */
(PID.TID 0000.0001)                   F
(PID.TID 0000.0001)     ;
(PID.TID 0000.0001) saltIsActiveTr = /* Salt  is a dynamically Active Tracer */
(PID.TID 0000.0001)                   T
(PID.TID 0000.0001)     ;
(PID.TID 0000.0001)  readBinaryPrec = /* Precision used for reading binary files */
(PID.TID 0000.0001)                      64
(PID.TID 0000.0001)     ;
(PID.TID 0000.0001) writeBinaryPrec = /* Precision used for writing binary files */
(PID.TID 0000.0001)                      32
(PID.TID 0000.0001)     ;
(PID.TID 0000.0001)  globalFiles = /* write "global" (=not per tile) files */
(PID.TID 0000.0001)                   F
(PID.TID 0000.0001)     ;
(PID.TID 0000.0001)  useSingleCpuIO = /* only master MPI process does I/O */
(PID.TID 0000.0001)                   T
(PID.TID 0000.0001)     ;
(PID.TID 0000.0001) /* debLev[*]  : level of debug & auxiliary message printing */
(PID.TID 0000.0001) debLevZero =  0 ; /* level of disabled aux. msg printing */
(PID.TID 0000.0001)    debLevA =  1 ; /* level of minimum  aux. msg printing */
(PID.TID 0000.0001)    debLevB =  2 ; /* level of low aux. print (report read-file opening)*/
(PID.TID 0000.0001)    debLevC =  3 ; /* level of moderate debug prt (most pkgs debug msg) */
(PID.TID 0000.0001)    debLevD =  4 ; /* level of enhanced debug prt (add DEBUG_STATS prt) */
(PID.TID 0000.0001)    debLevE =  5 ; /* level of extensive debug printing */
(PID.TID 0000.0001) debugLevel =  /* select debug printing level */
(PID.TID 0000.0001)                       1
(PID.TID 0000.0001)     ;
(PID.TID 0000.0001) //
(PID.TID 0000.0001) // Elliptic solver(s) paramters ( PARM02 in namelist )
(PID.TID 0000.0001) //
(PID.TID 0000.0001) cg2dMaxIters =   /* Upper limit on 2d con. grad iterations  */
(PID.TID 0000.0001)                    1000
(PID.TID 0000.0001)     ;
(PID.TID 0000.0001) cg2dChkResFreq =   /* 2d con. grad convergence test frequency */
(PID.TID 0000.0001)                       1
(PID.TID 0000.0001)     ;
(PID.TID 0000.0001) cg2dUseMinResSol= /* use cg2d last-iter(=0) / min-resid.(=1) solution */
(PID.TID 0000.0001)                       0
(PID.TID 0000.0001)     ;
(PID.TID 0000.0001) cg2dTargetResidual =   /* 2d con. grad target residual  */
(PID.TID 0000.0001)                 1.000000000000000E-13
(PID.TID 0000.0001)     ;
(PID.TID 0000.0001) cg2dTargetResWunit =   /* CG2d target residual [W units] */
(PID.TID 0000.0001)                -1.000000000000000E+00
(PID.TID 0000.0001)     ;
(PID.TID 0000.0001) cg2dPreCondFreq =   /* Freq. for updating cg2d preconditioner */
(PID.TID 0000.0001)                       1
(PID.TID 0000.0001)     ;
(PID.TID 0000.0001) useSRCGSolver =  /* use single reduction CG solver(s) */
(PID.TID 0000.0001)                   F
(PID.TID 0000.0001)     ;
(PID.TID 0000.0001) printResidualFreq = /* Freq. for printing CG residual */
(PID.TID 0000.0001)                       0
(PID.TID 0000.0001)     ;
(PID.TID 0000.0001) //
(PID.TID 0000.0001) // Time stepping paramters ( PARM03 in namelist )
(PID.TID 0000.0001) //
(PID.TID 0000.0001) deltaTMom =   /* Momentum equation timestep ( s ) */
(PID.TID 0000.0001)                 1.800000000000000E+03
(PID.TID 0000.0001)     ;
(PID.TID 0000.0001) deltaTFreeSurf = /* FreeSurface equation timestep ( s ) */
(PID.TID 0000.0001)                 1.800000000000000E+03
(PID.TID 0000.0001)     ;
(PID.TID 0000.0001) dTtracerLev =  /* Tracer equation timestep ( s ) */
(PID.TID 0000.0001)    30 @  1.800000000000000E+03              /* K =  1: 30 */
(PID.TID 0000.0001)     ;
(PID.TID 0000.0001) deltaTClock  =   /* Model clock timestep ( s ) */
(PID.TID 0000.0001)                 1.800000000000000E+03
(PID.TID 0000.0001)     ;
(PID.TID 0000.0001) cAdjFreq =   /* Convective adjustment interval ( s ) */
(PID.TID 0000.0001)                 1.000000000000000E+00
(PID.TID 0000.0001)     ;
(PID.TID 0000.0001) momForcingOutAB = /* =1: take Momentum Forcing out of Adams-Bash. stepping */
(PID.TID 0000.0001)                       0
(PID.TID 0000.0001)     ;
(PID.TID 0000.0001) tracForcingOutAB = /* =1: take T,S,pTr Forcing out of Adams-Bash. stepping */
(PID.TID 0000.0001)                       0
(PID.TID 0000.0001)     ;
(PID.TID 0000.0001) momDissip_In_AB = /* put Dissipation Tendency in Adams-Bash. stepping */
(PID.TID 0000.0001)                   T
(PID.TID 0000.0001)     ;
(PID.TID 0000.0001) doAB_onGtGs = /* apply AB on Tendencies (rather than on T,S)*/
(PID.TID 0000.0001)                   T
(PID.TID 0000.0001)     ;
(PID.TID 0000.0001) abEps =   /* Adams-Bashforth-2 stabilizing weight */
(PID.TID 0000.0001)                 1.000000000000000E-01
(PID.TID 0000.0001)     ;
(PID.TID 0000.0001) tauCD =   /* CD coupling time-scale ( s ) */
(PID.TID 0000.0001)                 4.000000000000000E+05
(PID.TID 0000.0001)     ;
(PID.TID 0000.0001) rCD =   /* Normalised CD coupling parameter */
(PID.TID 0000.0001)                 9.955000000000001E-01
(PID.TID 0000.0001)     ;
(PID.TID 0000.0001) epsAB_CD = /* AB-2 stabilizing weight for CD-scheme*/
(PID.TID 0000.0001)                 1.000000000000000E-01
(PID.TID 0000.0001)     ;
(PID.TID 0000.0001) pickupStrictlyMatch= /* stop if pickup do not strictly match */
(PID.TID 0000.0001)                   T
(PID.TID 0000.0001)     ;
(PID.TID 0000.0001) nIter0   =   /* Run starting timestep number */
(PID.TID 0000.0001)                    8640
(PID.TID 0000.0001)     ;
(PID.TID 0000.0001) nTimeSteps = /* Number of timesteps */
(PID.TID 0000.0001)                      10
(PID.TID 0000.0001)     ;
(PID.TID 0000.0001) nEndIter =   /* Run ending timestep number */
(PID.TID 0000.0001)                    8650
(PID.TID 0000.0001)     ;
(PID.TID 0000.0001) baseTime =   /* Model base time ( s ) */
(PID.TID 0000.0001)                 0.000000000000000E+00
(PID.TID 0000.0001)     ;
(PID.TID 0000.0001) startTime =  /* Run start time ( s ) */
(PID.TID 0000.0001)                 1.555200000000000E+07
(PID.TID 0000.0001)     ;
(PID.TID 0000.0001) endTime  =   /* Integration ending time ( s ) */
(PID.TID 0000.0001)                 1.557000000000000E+07
(PID.TID 0000.0001)     ;
(PID.TID 0000.0001) pChkPtFreq = /* Permanent restart/pickup file interval ( s ) */
(PID.TID 0000.0001)                 0.000000000000000E+00
(PID.TID 0000.0001)     ;
(PID.TID 0000.0001) chkPtFreq  = /* Rolling restart/pickup file interval ( s ) */
(PID.TID 0000.0001)                 0.000000000000000E+00
(PID.TID 0000.0001)     ;
(PID.TID 0000.0001) pickup_write_mdsio =   /* Model IO flag. */
(PID.TID 0000.0001)                   T
(PID.TID 0000.0001)     ;
(PID.TID 0000.0001) pickup_read_mdsio =   /* Model IO flag. */
(PID.TID 0000.0001)                   T
(PID.TID 0000.0001)     ;
(PID.TID 0000.0001) pickup_write_mnc =   /* Model IO flag. */
(PID.TID 0000.0001)                   F
(PID.TID 0000.0001)     ;
(PID.TID 0000.0001) pickup_read_mnc =   /* Model IO flag. */
(PID.TID 0000.0001)                   F
(PID.TID 0000.0001)     ;
(PID.TID 0000.0001) pickup_write_immed =   /* Model IO flag. */
(PID.TID 0000.0001)                   F
(PID.TID 0000.0001)     ;
(PID.TID 0000.0001) writePickupAtEnd =   /* Model IO flag. */
(PID.TID 0000.0001)                   T
(PID.TID 0000.0001)     ;
(PID.TID 0000.0001) dumpFreq =   /* Model state write out interval ( s ). */
(PID.TID 0000.0001)                 0.000000000000000E+00
(PID.TID 0000.0001)     ;
(PID.TID 0000.0001) dumpInitAndLast= /* write out Initial & Last iter. model state */
(PID.TID 0000.0001)                   T
(PID.TID 0000.0001)     ;
(PID.TID 0000.0001) snapshot_mdsio =   /* Model IO flag. */
(PID.TID 0000.0001)                   T
(PID.TID 0000.0001)     ;
(PID.TID 0000.0001) snapshot_mnc =   /* Model IO flag. */
(PID.TID 0000.0001)                   F
(PID.TID 0000.0001)     ;
(PID.TID 0000.0001) monitorFreq =   /* Monitor output interval ( s ). */
(PID.TID 0000.0001)                 1.000000000000000E+00
(PID.TID 0000.0001)     ;
(PID.TID 0000.0001) monitorSelect = /* select group of variables to monitor */
(PID.TID 0000.0001)                       2
(PID.TID 0000.0001)     ;
(PID.TID 0000.0001) monitor_stdio =   /* Model IO flag. */
(PID.TID 0000.0001)                   T
(PID.TID 0000.0001)     ;
(PID.TID 0000.0001) monitor_mnc =   /* Model IO flag. */
(PID.TID 0000.0001)                   F
(PID.TID 0000.0001)     ;
(PID.TID 0000.0001) externForcingPeriod =   /* forcing period (s) */
(PID.TID 0000.0001)                 0.000000000000000E+00
(PID.TID 0000.0001)     ;
(PID.TID 0000.0001) externForcingCycle =   /* period of the cyle (s). */
(PID.TID 0000.0001)                 0.000000000000000E+00
(PID.TID 0000.0001)     ;
(PID.TID 0000.0001) tauThetaClimRelax =   /* relaxation time scale (s) */
(PID.TID 0000.0001)                 0.000000000000000E+00
(PID.TID 0000.0001)     ;
(PID.TID 0000.0001) tauSaltClimRelax =   /* relaxation time scale (s) */
(PID.TID 0000.0001)                 0.000000000000000E+00
(PID.TID 0000.0001)     ;
(PID.TID 0000.0001) latBandClimRelax =   /* max. Lat. where relaxation */
(PID.TID 0000.0001)                 1.800000000000000E+02
(PID.TID 0000.0001)     ;
(PID.TID 0000.0001) //
(PID.TID 0000.0001) // Gridding paramters ( PARM04 in namelist )
(PID.TID 0000.0001) //
(PID.TID 0000.0001) usingCartesianGrid = /* Cartesian coordinates flag ( True/False ) */
(PID.TID 0000.0001)                   F
(PID.TID 0000.0001)     ;
(PID.TID 0000.0001) usingCylindricalGrid = /* Cylindrical coordinates flag ( True/False ) */
(PID.TID 0000.0001)                   F
(PID.TID 0000.0001)     ;
(PID.TID 0000.0001) usingSphericalPolarGrid = /* Spherical coordinates flag ( True/False ) */
(PID.TID 0000.0001)                   T
(PID.TID 0000.0001)     ;
(PID.TID 0000.0001) usingCurvilinearGrid = /* Curvilinear coordinates flag ( True/False ) */
(PID.TID 0000.0001)                   F
(PID.TID 0000.0001)     ;
(PID.TID 0000.0001) selectSigmaCoord = /* Hybrid-Sigma Vert. Coordinate option */
(PID.TID 0000.0001)                       0
(PID.TID 0000.0001)     ;
(PID.TID 0000.0001) Ro_SeaLevel = /* r(1) ( units of r ==  m ) */
(PID.TID 0000.0001)                 0.000000000000000E+00
(PID.TID 0000.0001)     ;
(PID.TID 0000.0001) rSigmaBnd = /* r/sigma transition ( units of r ==  m ) */
(PID.TID 0000.0001)                 1.234567000000000E+05
(PID.TID 0000.0001)     ;
(PID.TID 0000.0001) rkSign =   /* index orientation relative to vertical coordinate */
(PID.TID 0000.0001)                -1.000000000000000E+00
(PID.TID 0000.0001)     ;
(PID.TID 0000.0001) gravitySign = /* gravity orientation relative to vertical coordinate */
(PID.TID 0000.0001)                -1.000000000000000E+00
(PID.TID 0000.0001)     ;
(PID.TID 0000.0001) mass2rUnit = /* convert mass per unit area [kg/m2] to r-units [m] */
(PID.TID 0000.0001)                 9.708737864077669E-04
(PID.TID 0000.0001)     ;
(PID.TID 0000.0001) rUnit2mass = /* convert r-units [m] to mass per unit area [kg/m2] */
(PID.TID 0000.0001)                 1.030000000000000E+03
(PID.TID 0000.0001)     ;
(PID.TID 0000.0001) drC =   /* C spacing ( units of r ) */
(PID.TID 0000.0001)                 1.500000000000000E+01,      /* K =  1 */
(PID.TID 0000.0001)    29 @  3.000000000000000E+01,             /* K =  2: 30 */
(PID.TID 0000.0001)                 1.500000000000000E+01       /* K = 31 */
(PID.TID 0000.0001)     ;
(PID.TID 0000.0001) drF =   /* W spacing ( units of r ) */
(PID.TID 0000.0001)    30 @  3.000000000000000E+01              /* K =  1: 30 */
(PID.TID 0000.0001)     ;
(PID.TID 0000.0001) delX = /* U spacing ( m - cartesian, degrees - spherical ) */
(PID.TID 0000.0001)    50 @  3.000000000000000E-01              /* I =  1: 50 */
(PID.TID 0000.0001)     ;
(PID.TID 0000.0001) delY = /* V spacing ( m - cartesian, degrees - spherical ) */
(PID.TID 0000.0001)   100 @  1.000000000000000E-01              /* J =  1:100 */
(PID.TID 0000.0001)     ;
(PID.TID 0000.0001) xgOrigin = /* X-axis origin of West  edge (cartesian: m, lat-lon: deg) */
(PID.TID 0000.0001)                 0.000000000000000E+00
(PID.TID 0000.0001)     ;
(PID.TID 0000.0001) ygOrigin = /* Y-axis origin of South edge (cartesian: m, lat-lon: deg) */
(PID.TID 0000.0001)                -8.000000000000000E+01
(PID.TID 0000.0001)     ;
(PID.TID 0000.0001) rSphere =  /* Radius ( ignored - cartesian, m - spherical ) */
(PID.TID 0000.0001)                 6.370000000000000E+06
(PID.TID 0000.0001)     ;
(PID.TID 0000.0001) deepAtmosphere = /* Deep/Shallow Atmosphere flag (True/False) */
(PID.TID 0000.0001)                   F
(PID.TID 0000.0001)     ;
(PID.TID 0000.0001) xC =  /* xC(:,1,:,1) : P-point X coord ( deg. or m if cartesian) */
(PID.TID 0000.0001)                 1.500000000000001E-01,      /* I =  1 */
(PID.TID 0000.0001)                 4.500000000000001E-01,      /* I =  2 */
(PID.TID 0000.0001)                 7.500000000000002E-01,      /* I =  3 */
(PID.TID 0000.0001)                 1.050000000000000E+00,      /* I =  4 */
(PID.TID 0000.0001)                 1.350000000000000E+00,      /* I =  5 */
(PID.TID 0000.0001)                 1.650000000000000E+00,      /* I =  6 */
(PID.TID 0000.0001)                 1.950000000000000E+00,      /* I =  7 */
(PID.TID 0000.0001)                 2.250000000000000E+00,      /* I =  8 */
(PID.TID 0000.0001)                 2.550000000000000E+00,      /* I =  9 */
(PID.TID 0000.0001)                 2.850000000000000E+00,      /* I = 10 */
(PID.TID 0000.0001)                 3.149999999999999E+00,      /* I = 11 */
(PID.TID 0000.0001)                 3.449999999999999E+00,      /* I = 12 */
(PID.TID 0000.0001)                 3.749999999999999E+00,      /* I = 13 */
(PID.TID 0000.0001)                 4.049999999999999E+00,      /* I = 14 */
(PID.TID 0000.0001)                 4.350000000000000E+00,      /* I = 15 */
(PID.TID 0000.0001)                 4.649999999999999E+00,      /* I = 16 */
(PID.TID 0000.0001)                 4.949999999999999E+00,      /* I = 17 */
(PID.TID 0000.0001)                 5.249999999999998E+00,      /* I = 18 */
(PID.TID 0000.0001)                 5.549999999999999E+00,      /* I = 19 */
(PID.TID 0000.0001)                 5.849999999999998E+00,      /* I = 20 */
(PID.TID 0000.0001)                 6.149999999999999E+00,      /* I = 21 */
(PID.TID 0000.0001)                 6.449999999999998E+00,      /* I = 22 */
(PID.TID 0000.0001)                 6.749999999999998E+00,      /* I = 23 */
(PID.TID 0000.0001)                 7.049999999999997E+00,      /* I = 24 */
(PID.TID 0000.0001)                 7.349999999999997E+00,      /* I = 25 */
(PID.TID 0000.0001)                 7.649999999999997E+00,      /* I = 26 */
(PID.TID 0000.0001)                 7.949999999999998E+00,      /* I = 27 */
(PID.TID 0000.0001)                 8.249999999999998E+00,      /* I = 28 */
(PID.TID 0000.0001)                 8.549999999999999E+00,      /* I = 29 */
(PID.TID 0000.0001)                 8.850000000000000E+00,      /* I = 30 */
(PID.TID 0000.0001)                 9.150000000000000E+00,      /* I = 31 */
(PID.TID 0000.0001)                 9.450000000000001E+00,      /* I = 32 */
(PID.TID 0000.0001)                 9.750000000000002E+00,      /* I = 33 */
(PID.TID 0000.0001)                 1.005000000000000E+01,      /* I = 34 */
(PID.TID 0000.0001)                 1.035000000000000E+01,      /* I = 35 */
(PID.TID 0000.0001)                 1.065000000000000E+01,      /* I = 36 */
(PID.TID 0000.0001)                 1.095000000000001E+01,      /* I = 37 */
(PID.TID 0000.0001)                 1.125000000000001E+01,      /* I = 38 */
(PID.TID 0000.0001)                 1.155000000000000E+01,      /* I = 39 */
(PID.TID 0000.0001)                 1.185000000000001E+01,      /* I = 40 */
(PID.TID 0000.0001)                 1.215000000000001E+01,      /* I = 41 */
(PID.TID 0000.0001)                 1.245000000000001E+01,      /* I = 42 */
(PID.TID 0000.0001)                 1.275000000000001E+01,      /* I = 43 */
(PID.TID 0000.0001)                 1.305000000000001E+01,      /* I = 44 */
(PID.TID 0000.0001)                 1.335000000000001E+01,      /* I = 45 */
(PID.TID 0000.0001)                 1.365000000000001E+01,      /* I = 46 */
(PID.TID 0000.0001)                 1.395000000000001E+01,      /* I = 47 */
(PID.TID 0000.0001)                 1.425000000000001E+01,      /* I = 48 */
(PID.TID 0000.0001)                 1.455000000000001E+01,      /* I = 49 */
(PID.TID 0000.0001)                 1.485000000000001E+01       /* I = 50 */
(PID.TID 0000.0001)     ;
(PID.TID 0000.0001) yC =  /* yC(1,:,1,:) : P-point Y coord ( deg. or m if cartesian) */
(PID.TID 0000.0001)                -7.995000000000000E+01,      /* J =  1 */
(PID.TID 0000.0001)                -7.985000000000001E+01,      /* J =  2 */
(PID.TID 0000.0001)                -7.975000000000001E+01,      /* J =  3 */
(PID.TID 0000.0001)      . . .
(PID.TID 0000.0001)                -7.775000000000013E+01,      /* J = 23 */
(PID.TID 0000.0001)                -7.765000000000013E+01,      /* J = 24 */
(PID.TID 0000.0001)                -7.755000000000014E+01,      /* J = 25 */
(PID.TID 0000.0001)                -7.745000000000014E+01,      /* J = 26 */
(PID.TID 0000.0001)                -7.735000000000015E+01,      /* J = 27 */
(PID.TID 0000.0001)                -7.725000000000016E+01,      /* J = 28 */
(PID.TID 0000.0001)      . . .
(PID.TID 0000.0001)                -7.525000000000027E+01,      /* J = 48 */
(PID.TID 0000.0001)                -7.515000000000028E+01,      /* J = 49 */
(PID.TID 0000.0001)                -7.505000000000028E+01,      /* J = 50 */
(PID.TID 0000.0001)                -7.495000000000029E+01,      /* J = 51 */
(PID.TID 0000.0001)                -7.485000000000029E+01,      /* J = 52 */
(PID.TID 0000.0001)                -7.475000000000030E+01,      /* J = 53 */
(PID.TID 0000.0001)      . . .
(PID.TID 0000.0001)                -7.275000000000041E+01,      /* J = 73 */
(PID.TID 0000.0001)                -7.265000000000042E+01,      /* J = 74 */
(PID.TID 0000.0001)                -7.255000000000042E+01,      /* J = 75 */
(PID.TID 0000.0001)                -7.245000000000043E+01,      /* J = 76 */
(PID.TID 0000.0001)                -7.235000000000043E+01,      /* J = 77 */
(PID.TID 0000.0001)                -7.225000000000044E+01,      /* J = 78 */
(PID.TID 0000.0001)      . . .
(PID.TID 0000.0001)                -7.025000000000055E+01,      /* J = 98 */
(PID.TID 0000.0001)                -7.015000000000056E+01,      /* J = 99 */
(PID.TID 0000.0001)                -7.005000000000057E+01       /* J =100 */
(PID.TID 0000.0001)     ;
(PID.TID 0000.0001) rcoord = /* P-point R coordinate (  units of r ) */
(PID.TID 0000.0001)                -1.500000000000000E+01,      /* K =  1 */
(PID.TID 0000.0001)                -4.500000000000000E+01,      /* K =  2 */
(PID.TID 0000.0001)                -7.500000000000000E+01,      /* K =  3 */
(PID.TID 0000.0001)                -1.050000000000000E+02,      /* K =  4 */
(PID.TID 0000.0001)                -1.350000000000000E+02,      /* K =  5 */
(PID.TID 0000.0001)                -1.650000000000000E+02,      /* K =  6 */
(PID.TID 0000.0001)                -1.950000000000000E+02,      /* K =  7 */
(PID.TID 0000.0001)                -2.250000000000000E+02,      /* K =  8 */
(PID.TID 0000.0001)                -2.550000000000000E+02,      /* K =  9 */
(PID.TID 0000.0001)                -2.850000000000000E+02,      /* K = 10 */
(PID.TID 0000.0001)                -3.150000000000000E+02,      /* K = 11 */
(PID.TID 0000.0001)                -3.450000000000000E+02,      /* K = 12 */
(PID.TID 0000.0001)                -3.750000000000000E+02,      /* K = 13 */
(PID.TID 0000.0001)                -4.050000000000000E+02,      /* K = 14 */
(PID.TID 0000.0001)                -4.350000000000000E+02,      /* K = 15 */
(PID.TID 0000.0001)                -4.650000000000000E+02,      /* K = 16 */
(PID.TID 0000.0001)                -4.950000000000000E+02,      /* K = 17 */
(PID.TID 0000.0001)                -5.250000000000000E+02,      /* K = 18 */
(PID.TID 0000.0001)                -5.550000000000000E+02,      /* K = 19 */
(PID.TID 0000.0001)                -5.850000000000000E+02,      /* K = 20 */
(PID.TID 0000.0001)                -6.150000000000000E+02,      /* K = 21 */
(PID.TID 0000.0001)                -6.450000000000000E+02,      /* K = 22 */
(PID.TID 0000.0001)                -6.750000000000000E+02,      /* K = 23 */
(PID.TID 0000.0001)                -7.050000000000000E+02,      /* K = 24 */
(PID.TID 0000.0001)                -7.350000000000000E+02,      /* K = 25 */
(PID.TID 0000.0001)                -7.650000000000000E+02,      /* K = 26 */
(PID.TID 0000.0001)                -7.950000000000000E+02,      /* K = 27 */
(PID.TID 0000.0001)                -8.250000000000000E+02,      /* K = 28 */
(PID.TID 0000.0001)                -8.550000000000000E+02,      /* K = 29 */
(PID.TID 0000.0001)                -8.850000000000000E+02       /* K = 30 */
(PID.TID 0000.0001)     ;
(PID.TID 0000.0001) rF =   /* W-Interf. R coordinate (  units of r ) */
(PID.TID 0000.0001)                 0.000000000000000E+00,      /* K =  1 */
(PID.TID 0000.0001)                -3.000000000000000E+01,      /* K =  2 */
(PID.TID 0000.0001)                -6.000000000000000E+01,      /* K =  3 */
(PID.TID 0000.0001)                -9.000000000000000E+01,      /* K =  4 */
(PID.TID 0000.0001)                -1.200000000000000E+02,      /* K =  5 */
(PID.TID 0000.0001)                -1.500000000000000E+02,      /* K =  6 */
(PID.TID 0000.0001)                -1.800000000000000E+02,      /* K =  7 */
(PID.TID 0000.0001)                -2.100000000000000E+02,      /* K =  8 */
(PID.TID 0000.0001)                -2.400000000000000E+02,      /* K =  9 */
(PID.TID 0000.0001)                -2.700000000000000E+02,      /* K = 10 */
(PID.TID 0000.0001)                -3.000000000000000E+02,      /* K = 11 */
(PID.TID 0000.0001)                -3.300000000000000E+02,      /* K = 12 */
(PID.TID 0000.0001)                -3.600000000000000E+02,      /* K = 13 */
(PID.TID 0000.0001)                -3.900000000000000E+02,      /* K = 14 */
(PID.TID 0000.0001)                -4.200000000000000E+02,      /* K = 15 */
(PID.TID 0000.0001)                -4.500000000000000E+02,      /* K = 16 */
(PID.TID 0000.0001)                -4.800000000000000E+02,      /* K = 17 */
(PID.TID 0000.0001)                -5.100000000000000E+02,      /* K = 18 */
(PID.TID 0000.0001)                -5.400000000000000E+02,      /* K = 19 */
(PID.TID 0000.0001)                -5.700000000000000E+02,      /* K = 20 */
(PID.TID 0000.0001)                -6.000000000000000E+02,      /* K = 21 */
(PID.TID 0000.0001)                -6.300000000000000E+02,      /* K = 22 */
(PID.TID 0000.0001)                -6.600000000000000E+02,      /* K = 23 */
(PID.TID 0000.0001)                -6.900000000000000E+02,      /* K = 24 */
(PID.TID 0000.0001)                -7.200000000000000E+02,      /* K = 25 */
(PID.TID 0000.0001)                -7.500000000000000E+02,      /* K = 26 */
(PID.TID 0000.0001)                -7.800000000000000E+02,      /* K = 27 */
(PID.TID 0000.0001)                -8.100000000000000E+02,      /* K = 28 */
(PID.TID 0000.0001)                -8.400000000000000E+02,      /* K = 29 */
(PID.TID 0000.0001)                -8.700000000000000E+02,      /* K = 30 */
(PID.TID 0000.0001)                -9.000000000000000E+02       /* K = 31 */
(PID.TID 0000.0001)     ;
(PID.TID 0000.0001) deepFacC = /* deep-model grid factor @ cell-Center (-) */
(PID.TID 0000.0001)    30 @  1.000000000000000E+00              /* K =  1: 30 */
(PID.TID 0000.0001)     ;
(PID.TID 0000.0001) deepFacF = /* deep-model grid factor @ W-Interface (-) */
(PID.TID 0000.0001)    31 @  1.000000000000000E+00              /* K =  1: 31 */
(PID.TID 0000.0001)     ;
(PID.TID 0000.0001) rVel2wUnit = /* convert units: rVel -> wSpeed (=1 if z-coord)*/
(PID.TID 0000.0001)    31 @  1.000000000000000E+00              /* K =  1: 31 */
(PID.TID 0000.0001)     ;
(PID.TID 0000.0001) wUnit2rVel = /* convert units: wSpeed -> rVel (=1 if z-coord)*/
(PID.TID 0000.0001)    31 @  1.000000000000000E+00              /* K =  1: 31 */
(PID.TID 0000.0001)     ;
(PID.TID 0000.0001) dBdrRef = /* Vertical grad. of reference buoyancy [(m/s/r)^2] */
(PID.TID 0000.0001)    30 @  0.000000000000000E+00              /* K =  1: 30 */
(PID.TID 0000.0001)     ;
(PID.TID 0000.0001) rotateGrid = /* use rotated grid ( True/False ) */
(PID.TID 0000.0001)                   F
(PID.TID 0000.0001)     ;
(PID.TID 0000.0001) phiEuler = /* Euler angle, rotation about original z-coordinate [rad] */
(PID.TID 0000.0001)                 0.000000000000000E+00
(PID.TID 0000.0001)     ;
(PID.TID 0000.0001) thetaEuler = /* Euler angle, rotation about new x-coordinate [rad] */
(PID.TID 0000.0001)                 0.000000000000000E+00
(PID.TID 0000.0001)     ;
(PID.TID 0000.0001) psiEuler = /* Euler angle, rotation about new z-coordinate [rad] */
(PID.TID 0000.0001)                 0.000000000000000E+00
(PID.TID 0000.0001)     ;
(PID.TID 0000.0001) dxF =  /* dxF(:,1,:,1) ( units: m ) */
(PID.TID 0000.0001)    50 @  5.820391490558872E+03              /* I =  1: 50 */
(PID.TID 0000.0001)     ;
(PID.TID 0000.0001) dxF =  /* dxF(1,:,1,:) ( units: m ) */
(PID.TID 0000.0001)                 5.820391490558872E+03,      /* J =  1 */
(PID.TID 0000.0001)                 5.877701765291692E+03,      /* J =  2 */
(PID.TID 0000.0001)                 5.934994135525598E+03,      /* J =  3 */
(PID.TID 0000.0001)      . . .
(PID.TID 0000.0001)                 7.076813247621209E+03,      /* J = 23 */
(PID.TID 0000.0001)                 7.133689397375063E+03,      /* J = 24 */
(PID.TID 0000.0001)                 7.190543816673855E+03,      /* J = 25 */
(PID.TID 0000.0001)                 7.247376332329164E+03,      /* J = 26 */
(PID.TID 0000.0001)                 7.304186771219292E+03,      /* J = 27 */
(PID.TID 0000.0001)                 7.360974960289787E+03,      /* J = 28 */
(PID.TID 0000.0001)      . . .
(PID.TID 0000.0001)                 8.491800393599013E+03,      /* J = 48 */
(PID.TID 0000.0001)                 8.548081485571185E+03,      /* J = 49 */
(PID.TID 0000.0001)                 8.604336538604706E+03,      /* J = 50 */
(PID.TID 0000.0001)                 8.660565381336924E+03,      /* J = 51 */
(PID.TID 0000.0001)                 8.716767842485036E+03,      /* J = 52 */
(PID.TID 0000.0001)                 8.772943750846600E+03,      /* J = 53 */
(PID.TID 0000.0001)      . . .
(PID.TID 0000.0001)                 9.890622914885218E+03,      /* J = 73 */
(PID.TID 0000.0001)                 9.946201814818334E+03,      /* J = 74 */
(PID.TID 0000.0001)                 1.000175041689580E+04,      /* J = 75 */
(PID.TID 0000.0001)                 1.005726855190695E+04,      /* J = 76 */
(PID.TID 0000.0001)                 1.011275605073392E+04,      /* J = 77 */
(PID.TID 0000.0001)                 1.016821274435215E+04,      /* J = 78 */
(PID.TID 0000.0001)      . . .
(PID.TID 0000.0001)                 1.127061807330668E+04,      /* J = 98 */
(PID.TID 0000.0001)                 1.132538898360582E+04,      /* J = 99 */
(PID.TID 0000.0001)                 1.138012539480601E+04       /* J =100 */
(PID.TID 0000.0001)     ;
(PID.TID 0000.0001) dyF =  /* dyF(:,1,:,1) ( units: m ) */
(PID.TID 0000.0001)    50 @  1.111774733520388E+04              /* I =  1: 50 */
(PID.TID 0000.0001)     ;
(PID.TID 0000.0001) dyF =  /* dyF(1,:,1,:) ( units: m ) */
(PID.TID 0000.0001)   100 @  1.111774733520388E+04              /* J =  1:100 */
(PID.TID 0000.0001)     ;
(PID.TID 0000.0001) dxG =  /* dxG(:,1,:,1) ( units: m ) */
(PID.TID 0000.0001)    50 @  5.791729693558576E+03              /* I =  1: 50 */
(PID.TID 0000.0001)     ;
(PID.TID 0000.0001) dxG =  /* dxG(1,:,1,:) ( units: m ) */
(PID.TID 0000.0001)                 5.791729693558576E+03,      /* J =  1 */
(PID.TID 0000.0001)                 5.849048855077854E+03,      /* J =  2 */
(PID.TID 0000.0001)                 5.906350199379949E+03,      /* J =  3 */
(PID.TID 0000.0001)      . . .
(PID.TID 0000.0001)                 7.048367077963129E+03,      /* J = 23 */
(PID.TID 0000.0001)                 7.105254027978149E+03,      /* J = 24 */
(PID.TID 0000.0001)                 7.162119334157175E+03,      /* J = 25 */
(PID.TID 0000.0001)                 7.218962823278620E+03,      /* J = 26 */
(PID.TID 0000.0001)                 7.275784322187360E+03,      /* J = 27 */
(PID.TID 0000.0001)                 7.332583657795253E+03,      /* J = 28 */
(PID.TID 0000.0001)      . . .
(PID.TID 0000.0001)                 8.463650136583461E+03,      /* J = 48 */
(PID.TID 0000.0001)                 8.519944183739159E+03,      /* J = 49 */
(PID.TID 0000.0001)                 8.576212277667308E+03,      /* J = 50 */
(PID.TID 0000.0001)                 8.632454246965530E+03,      /* J = 51 */
(PID.TID 0000.0001)                 8.688669920311038E+03,      /* J = 52 */
(PID.TID 0000.0001)                 8.744859126461139E+03,      /* J = 53 */
(PID.TID 0000.0001)      . . .
(PID.TID 0000.0001)                 9.862822156126382E+03,      /* J = 73 */
(PID.TID 0000.0001)                 9.918416141504455E+03,      /* J = 74 */
(PID.TID 0000.0001)                 9.973979913666863E+03,      /* J = 75 */
(PID.TID 0000.0001)                 1.002951330335672E+04,      /* J = 76 */
(PID.TID 0000.0001)                 1.008501614140969E+04,      /* J = 77 */
(PID.TID 0000.0001)                 1.014048825875450E+04,      /* J = 78 */
(PID.TID 0000.0001)      . . .
(PID.TID 0000.0001)                 1.124321973312895E+04,      /* J = 98 */
(PID.TID 0000.0001)                 1.129800783041847E+04,      /* J = 99 */
(PID.TID 0000.0001)                 1.135276151201679E+04       /* J =100 */
(PID.TID 0000.0001)     ;
(PID.TID 0000.0001) dyG =  /* dyG(:,1,:,1) ( units: m ) */
(PID.TID 0000.0001)    50 @  1.111774733520388E+04              /* I =  1: 50 */
(PID.TID 0000.0001)     ;
(PID.TID 0000.0001) dyG =  /* dyG(1,:,1,:) ( units: m ) */
(PID.TID 0000.0001)   100 @  1.111774733520388E+04              /* J =  1:100 */
(PID.TID 0000.0001)     ;
(PID.TID 0000.0001) dxC =  /* dxC(:,1,:,1) ( units: m ) */
(PID.TID 0000.0001)    50 @  5.820391490558872E+03              /* I =  1: 50 */
(PID.TID 0000.0001)     ;
(PID.TID 0000.0001) dxC =  /* dxC(1,:,1,:) ( units: m ) */
(PID.TID 0000.0001)                 5.820391490558872E+03,      /* J =  1 */
(PID.TID 0000.0001)                 5.877701765291692E+03,      /* J =  2 */
(PID.TID 0000.0001)                 5.934994135525598E+03,      /* J =  3 */
(PID.TID 0000.0001)      . . .
(PID.TID 0000.0001)                 7.076813247621209E+03,      /* J = 23 */
(PID.TID 0000.0001)                 7.133689397375063E+03,      /* J = 24 */
(PID.TID 0000.0001)                 7.190543816673855E+03,      /* J = 25 */
(PID.TID 0000.0001)                 7.247376332329164E+03,      /* J = 26 */
(PID.TID 0000.0001)                 7.304186771219292E+03,      /* J = 27 */
(PID.TID 0000.0001)                 7.360974960289787E+03,      /* J = 28 */
(PID.TID 0000.0001)      . . .
(PID.TID 0000.0001)                 8.491800393599013E+03,      /* J = 48 */
(PID.TID 0000.0001)                 8.548081485571185E+03,      /* J = 49 */
(PID.TID 0000.0001)                 8.604336538604706E+03,      /* J = 50 */
(PID.TID 0000.0001)                 8.660565381336924E+03,      /* J = 51 */
(PID.TID 0000.0001)                 8.716767842485036E+03,      /* J = 52 */
(PID.TID 0000.0001)                 8.772943750846600E+03,      /* J = 53 */
(PID.TID 0000.0001)      . . .
(PID.TID 0000.0001)                 9.890622914885218E+03,      /* J = 73 */
(PID.TID 0000.0001)                 9.946201814818334E+03,      /* J = 74 */
(PID.TID 0000.0001)                 1.000175041689580E+04,      /* J = 75 */
(PID.TID 0000.0001)                 1.005726855190695E+04,      /* J = 76 */
(PID.TID 0000.0001)                 1.011275605073392E+04,      /* J = 77 */
(PID.TID 0000.0001)                 1.016821274435215E+04,      /* J = 78 */
(PID.TID 0000.0001)      . . .
(PID.TID 0000.0001)                 1.127061807330668E+04,      /* J = 98 */
(PID.TID 0000.0001)                 1.132538898360582E+04,      /* J = 99 */
(PID.TID 0000.0001)                 1.138012539480601E+04       /* J =100 */
(PID.TID 0000.0001)     ;
(PID.TID 0000.0001) dyC =  /* dyC(:,1,:,1) ( units: m ) */
(PID.TID 0000.0001)    50 @  1.111774733520388E+04              /* I =  1: 50 */
(PID.TID 0000.0001)     ;
(PID.TID 0000.0001) dyC =  /* dyC(1,:,1,:) ( units: m ) */
(PID.TID 0000.0001)   100 @  1.111774733520388E+04              /* J =  1:100 */
(PID.TID 0000.0001)     ;
(PID.TID 0000.0001) dxV =  /* dxV(:,1,:,1) ( units: m ) */
(PID.TID 0000.0001)    50 @  5.791729693558576E+03              /* I =  1: 50 */
(PID.TID 0000.0001)     ;
(PID.TID 0000.0001) dxV =  /* dxV(1,:,1,:) ( units: m ) */
(PID.TID 0000.0001)                 5.791729693558576E+03,      /* J =  1 */
(PID.TID 0000.0001)                 5.849048855077854E+03,      /* J =  2 */
(PID.TID 0000.0001)                 5.906350199379949E+03,      /* J =  3 */
(PID.TID 0000.0001)      . . .
(PID.TID 0000.0001)                 7.048367077963129E+03,      /* J = 23 */
(PID.TID 0000.0001)                 7.105254027978149E+03,      /* J = 24 */
(PID.TID 0000.0001)                 7.162119334157175E+03,      /* J = 25 */
(PID.TID 0000.0001)                 7.218962823278620E+03,      /* J = 26 */
(PID.TID 0000.0001)                 7.275784322187360E+03,      /* J = 27 */
(PID.TID 0000.0001)                 7.332583657795253E+03,      /* J = 28 */
(PID.TID 0000.0001)      . . .
(PID.TID 0000.0001)                 8.463650136583461E+03,      /* J = 48 */
(PID.TID 0000.0001)                 8.519944183739159E+03,      /* J = 49 */
(PID.TID 0000.0001)                 8.576212277667308E+03,      /* J = 50 */
(PID.TID 0000.0001)                 8.632454246965530E+03,      /* J = 51 */
(PID.TID 0000.0001)                 8.688669920311038E+03,      /* J = 52 */
(PID.TID 0000.0001)                 8.744859126461139E+03,      /* J = 53 */
(PID.TID 0000.0001)      . . .
(PID.TID 0000.0001)                 9.862822156126382E+03,      /* J = 73 */
(PID.TID 0000.0001)                 9.918416141504455E+03,      /* J = 74 */
(PID.TID 0000.0001)                 9.973979913666863E+03,      /* J = 75 */
(PID.TID 0000.0001)                 1.002951330335672E+04,      /* J = 76 */
(PID.TID 0000.0001)                 1.008501614140969E+04,      /* J = 77 */
(PID.TID 0000.0001)                 1.014048825875450E+04,      /* J = 78 */
(PID.TID 0000.0001)      . . .
(PID.TID 0000.0001)                 1.124321973312895E+04,      /* J = 98 */
(PID.TID 0000.0001)                 1.129800783041847E+04,      /* J = 99 */
(PID.TID 0000.0001)                 1.135276151201679E+04       /* J =100 */
(PID.TID 0000.0001)     ;
(PID.TID 0000.0001) dyU =  /* dyU(:,1,:,1) ( units: m ) */
(PID.TID 0000.0001)    50 @  1.111774733520388E+04              /* I =  1: 50 */
(PID.TID 0000.0001)     ;
(PID.TID 0000.0001) dyU =  /* dyU(1,:,1,:) ( units: m ) */
(PID.TID 0000.0001)   100 @  1.111774733520388E+04              /* J =  1:100 */
(PID.TID 0000.0001)     ;
(PID.TID 0000.0001) rA  =  /* rA (:,1,:,1) ( units: m^2 ) */
(PID.TID 0000.0001)    50 @  6.470963377080289E+07              /* I =  1: 50 */
(PID.TID 0000.0001)     ;
(PID.TID 0000.0001) rA  =  /* rA (1,:,1,:) ( units: m^2 ) */
(PID.TID 0000.0001)                 6.470963377080289E+07,      /* J =  1 */
(PID.TID 0000.0001)                 6.534679484410104E+07,      /* J =  2 */
(PID.TID 0000.0001)                 6.598375685977945E+07,      /* J =  3 */
(PID.TID 0000.0001)      . . .
(PID.TID 0000.0001)                 7.867821163932665E+07,      /* J = 23 */
(PID.TID 0000.0001)                 7.931054622142966E+07,      /* J = 24 */
(PID.TID 0000.0001)                 7.994263920984067E+07,      /* J = 25 */
(PID.TID 0000.0001)                 8.057448867913349E+07,      /* J = 26 */
(PID.TID 0000.0001)                 8.120609270456599E+07,      /* J = 27 */
(PID.TID 0000.0001)                 8.183744936212724E+07,      /* J = 28 */
(PID.TID 0000.0001)      . . .
(PID.TID 0000.0001)                 9.440967921416211E+07,      /* J = 48 */
(PID.TID 0000.0001)                 9.503539809503193E+07,      /* J = 49 */
(PID.TID 0000.0001)                 9.566082748163140E+07,      /* J = 50 */
(PID.TID 0000.0001)                 9.628596546870193E+07,      /* J = 51 */
(PID.TID 0000.0001)                 9.691081015209354E+07,      /* J = 52 */
(PID.TID 0000.0001)                 9.753535962826957E+07,      /* J = 53 */
(PID.TID 0000.0001)      . . .
(PID.TID 0000.0001)                 1.099614325987181E+08,      /* J = 73 */
(PID.TID 0000.0001)                 1.105793446869293E+08,      /* J = 74 */
(PID.TID 0000.0001)                 1.111969199312560E+08,      /* J = 75 */
(PID.TID 0000.0001)                 1.118141564504991E+08,      /* J = 76 */
(PID.TID 0000.0001)                 1.124310523644033E+08,      /* J = 77 */
(PID.TID 0000.0001)                 1.130476057938687E+08,      /* J = 78 */
(PID.TID 0000.0001)      . . .
(PID.TID 0000.0001)                 1.253038681465364E+08,      /* J = 98 */
(PID.TID 0000.0001)                 1.259127972112936E+08,      /* J = 99 */
(PID.TID 0000.0001)                 1.265213427237870E+08       /* J =100 */
(PID.TID 0000.0001)     ;
(PID.TID 0000.0001) rAw =  /* rAw(:,1,:,1) ( units: m^2 ) */
(PID.TID 0000.0001)    50 @  6.470963377080289E+07              /* I =  1: 50 */
(PID.TID 0000.0001)     ;
(PID.TID 0000.0001) rAw =  /* rAw(1,:,1,:) ( units: m^2 ) */
(PID.TID 0000.0001)                 6.470963377080289E+07,      /* J =  1 */
(PID.TID 0000.0001)                 6.534679484410104E+07,      /* J =  2 */
(PID.TID 0000.0001)                 6.598375685977945E+07,      /* J =  3 */
(PID.TID 0000.0001)      . . .
(PID.TID 0000.0001)                 7.867821163932665E+07,      /* J = 23 */
(PID.TID 0000.0001)                 7.931054622142966E+07,      /* J = 24 */
(PID.TID 0000.0001)                 7.994263920984067E+07,      /* J = 25 */
(PID.TID 0000.0001)                 8.057448867913349E+07,      /* J = 26 */
(PID.TID 0000.0001)                 8.120609270456599E+07,      /* J = 27 */
(PID.TID 0000.0001)                 8.183744936212724E+07,      /* J = 28 */
(PID.TID 0000.0001)      . . .
(PID.TID 0000.0001)                 9.440967921416211E+07,      /* J = 48 */
(PID.TID 0000.0001)                 9.503539809503193E+07,      /* J = 49 */
(PID.TID 0000.0001)                 9.566082748163140E+07,      /* J = 50 */
(PID.TID 0000.0001)                 9.628596546870193E+07,      /* J = 51 */
(PID.TID 0000.0001)                 9.691081015209354E+07,      /* J = 52 */
(PID.TID 0000.0001)                 9.753535962826957E+07,      /* J = 53 */
(PID.TID 0000.0001)      . . .
(PID.TID 0000.0001)                 1.099614325987181E+08,      /* J = 73 */
(PID.TID 0000.0001)                 1.105793446869293E+08,      /* J = 74 */
(PID.TID 0000.0001)                 1.111969199312560E+08,      /* J = 75 */
(PID.TID 0000.0001)                 1.118141564504991E+08,      /* J = 76 */
(PID.TID 0000.0001)                 1.124310523644033E+08,      /* J = 77 */
(PID.TID 0000.0001)                 1.130476057938687E+08,      /* J = 78 */
(PID.TID 0000.0001)      . . .
(PID.TID 0000.0001)                 1.253038681465364E+08,      /* J = 98 */
(PID.TID 0000.0001)                 1.259127972112936E+08,      /* J = 99 */
(PID.TID 0000.0001)                 1.265213427237870E+08       /* J =100 */
(PID.TID 0000.0001)     ;
(PID.TID 0000.0001) rAs =  /* rAs(:,1,:,1) ( units: m^2 ) */
(PID.TID 0000.0001)    50 @  6.439097919401864E+07              /* I =  1: 50 */
(PID.TID 0000.0001)     ;
(PID.TID 0000.0001) rAs =  /* rAs(1,:,1,:) ( units: m^2 ) */
(PID.TID 0000.0001)                 6.439097919401864E+07,      /* J =  1 */
(PID.TID 0000.0001)                 6.502823906837179E+07,      /* J =  2 */
(PID.TID 0000.0001)                 6.566530085543716E+07,      /* J =  3 */
(PID.TID 0000.0001)      . . .
(PID.TID 0000.0001)                 7.836195435256335E+07,      /* J = 23 */
(PID.TID 0000.0001)                 7.899440900921808E+07,      /* J = 24 */
(PID.TID 0000.0001)                 7.962662303520055E+07,      /* J = 25 */
(PID.TID 0000.0001)                 8.025859450470714E+07,      /* J = 26 */
(PID.TID 0000.0001)                 8.089032149259475E+07,      /* J = 27 */
(PID.TID 0000.0001)                 8.152180207452223E+07,      /* J = 28 */
(PID.TID 0000.0001)      . . .
(PID.TID 0000.0001)                 9.409671180895932E+07,      /* J = 48 */
(PID.TID 0000.0001)                 9.472257472228888E+07,      /* J = 49 */
(PID.TID 0000.0001)                 9.534814909420149E+07,      /* J = 50 */
(PID.TID 0000.0001)                 9.597343301913190E+07,      /* J = 51 */
(PID.TID 0000.0001)                 9.659842459236403E+07,      /* J = 52 */
(PID.TID 0000.0001)                 9.722312190998378E+07,      /* J = 53 */
(PID.TID 0000.0001)      . . .
(PID.TID 0000.0001)                 1.096523508263446E+08,      /* J = 73 */
(PID.TID 0000.0001)                 1.102704306306916E+08,      /* J = 74 */
(PID.TID 0000.0001)                 1.108881745321664E+08,      /* J = 75 */
(PID.TID 0000.0001)                 1.115055806490511E+08,      /* J = 76 */
(PID.TID 0000.0001)                 1.121226471005947E+08,      /* J = 77 */
(PID.TID 0000.0001)                 1.127393720071080E+08,      /* J = 78 */
(PID.TID 0000.0001)      . . .
(PID.TID 0000.0001)                 1.249992603617116E+08,      /* J = 98 */
(PID.TID 0000.0001)                 1.256083805070198E+08,      /* J = 99 */
(PID.TID 0000.0001)                 1.262171180274426E+08       /* J =100 */
(PID.TID 0000.0001)     ;
(PID.TID 0000.0001) globalArea = /* Integrated horizontal Area (m^2) */
(PID.TID 0000.0001)                 4.665024516720074E+11
(PID.TID 0000.0001)     ;
(PID.TID 0000.0001) // =======================================================
(PID.TID 0000.0001) // End of Model config. summary
(PID.TID 0000.0001) // =======================================================
(PID.TID 0000.0001) 
(PID.TID 0000.0001) == Packages configuration : Check & print summary ==
(PID.TID 0000.0001) 
(PID.TID 0000.0001) SHELFICE_CHECK: #define ALLOW_SHELFICE
(PID.TID 0000.0001) CTRL_CHECK: ctrl package
(PID.TID 0000.0001) COST_CHECK: cost package
(PID.TID 0000.0001) GRDCHK_CHECK: grdchk package
(PID.TID 0000.0001) GAD_CHECK: #define ALLOW_GENERIC_ADVDIFF
(PID.TID 0000.0001) // =======================================================
(PID.TID 0000.0001) // Check Model config. (CONFIG_CHECK):
(PID.TID 0000.0001) // CONFIG_CHECK : Normal End
(PID.TID 0000.0001) // =======================================================
(PID.TID 0000.0001) 
(PID.TID 0000.0001)  nRecords = 243 ; filePrec =  64 ; fileIter =      8640
(PID.TID 0000.0001)     nDims =   2 , dims:
(PID.TID 0000.0001)    1:  50   1  50
(PID.TID 0000.0001)    2: 100   1 100
(PID.TID 0000.0001)     nFlds =  11 , nFl3D =   8 , fields:
(PID.TID 0000.0001)  >Uvel    < >Vvel    < >Theta   < >Salt    < >GuNm1   < >GvNm1   < >GtNm1   < >GsNm1   < >EtaN    < >dEtaHdt < >EtaH    <
(PID.TID 0000.0001) missingVal=  1.00000000000000E+00 ; nTimRec =   1 , timeList:
(PID.TID 0000.0001)   1.555200000000E+07
(PID.TID 0000.0001) READ_MFLDS_3D_RL: read field: "Uvel    ", #   1 in fldList, rec=   1
(PID.TID 0000.0001) READ_MFLDS_3D_RL: read field: "Vvel    ", #   2 in fldList, rec=   2
(PID.TID 0000.0001) READ_MFLDS_3D_RL: read field: "Theta   ", #   3 in fldList, rec=   3
(PID.TID 0000.0001) READ_MFLDS_3D_RL: read field: "Salt    ", #   4 in fldList, rec=   4
(PID.TID 0000.0001) READ_MFLDS_3D_RL: read field: "GuNm1   ", #   5 in fldList, rec=   5
(PID.TID 0000.0001) READ_MFLDS_3D_RL: read field: "GvNm1   ", #   6 in fldList, rec=   6
(PID.TID 0000.0001) READ_MFLDS_3D_RL: read field: "GtNm1   ", #   7 in fldList, rec=   7
(PID.TID 0000.0001) READ_MFLDS_3D_RL: read field: "GsNm1   ", #   8 in fldList, rec=   8
(PID.TID 0000.0001) READ_MFLDS_3D_RL: read field: "EtaN    ", #   9 in fldList, rec= 241
(PID.TID 0000.0001) READ_MFLDS_3D_RL: read field: "dEtaHdt ", #  10 in fldList, rec= 242
(PID.TID 0000.0001) READ_MFLDS_3D_RL: read field: "EtaH    ", #  11 in fldList, rec= 243
(PID.TID 0000.0001) READ_MFLDS_CHECK: - normal end ; reset MFLDS file-name: pickup.0000008640
(PID.TID 0000.0001) // =======================================================
(PID.TID 0000.0001) // Begin MONITOR dynamic field statistics
(PID.TID 0000.0001) // =======================================================
(PID.TID 0000.0001) %MON time_tsnumber                =                  8640
(PID.TID 0000.0001) %MON time_secondsf                =   1.5552000000000E+07
(PID.TID 0000.0001) %MON dynstat_eta_max              =   1.1547478263152E-02
(PID.TID 0000.0001) %MON dynstat_eta_min              =  -2.6792518859505E-03
(PID.TID 0000.0001) %MON dynstat_eta_mean             =  -2.8025747994407E-16
(PID.TID 0000.0001) %MON dynstat_eta_sd               =   1.0200397966504E-03
(PID.TID 0000.0001) %MON dynstat_eta_del2             =   2.5371559200346E-05
(PID.TID 0000.0001) %MON dynstat_uvel_max             =   7.0225293882088E-03
(PID.TID 0000.0001) %MON dynstat_uvel_min             =  -1.1431056075099E-02
(PID.TID 0000.0001) %MON dynstat_uvel_mean            =   2.8733073796793E-05
(PID.TID 0000.0001) %MON dynstat_uvel_sd              =   1.1583626065939E-03
(PID.TID 0000.0001) %MON dynstat_uvel_del2            =   1.2791047697505E-06
(PID.TID 0000.0001) %MON dynstat_vvel_max             =   3.9338955473099E-02
(PID.TID 0000.0001) %MON dynstat_vvel_min             =  -1.3256941080851E-02
(PID.TID 0000.0001) %MON dynstat_vvel_mean            =  -9.2900221668184E-08
(PID.TID 0000.0001) %MON dynstat_vvel_sd              =   2.7751498348026E-03
(PID.TID 0000.0001) %MON dynstat_vvel_del2            =   4.9212700380926E-06
(PID.TID 0000.0001) %MON dynstat_wvel_max             =   4.2878246713501E-05
(PID.TID 0000.0001) %MON dynstat_wvel_min             =  -1.2010769874736E-04
(PID.TID 0000.0001) %MON dynstat_wvel_mean            =  -2.5100714936933E-10
(PID.TID 0000.0001) %MON dynstat_wvel_sd              =   4.2032395307094E-06
(PID.TID 0000.0001) %MON dynstat_wvel_del2            =   1.8639032682412E-08
(PID.TID 0000.0001) %MON dynstat_theta_max            =  -1.8364995507330E+00
(PID.TID 0000.0001) %MON dynstat_theta_min            =  -2.0000000000000E+00
(PID.TID 0000.0001) %MON dynstat_theta_mean           =  -1.9142907392762E+00
(PID.TID 0000.0001) %MON dynstat_theta_sd             =   3.1084271484799E-02
(PID.TID 0000.0001) %MON dynstat_theta_del2           =   6.3421694822619E-06
(PID.TID 0000.0001) %MON dynstat_salt_max             =   3.4425235078521E+01
(PID.TID 0000.0001) %MON dynstat_salt_min             =   3.4119681589956E+01
(PID.TID 0000.0001) %MON dynstat_salt_mean            =   3.4391243316095E+01
(PID.TID 0000.0001) %MON dynstat_salt_sd              =   2.3889924168882E-02
(PID.TID 0000.0001) %MON dynstat_salt_del2            =   3.3297324617654E-06
(PID.TID 0000.0001) %MON advcfl_uvel_max              =   3.4012427019763E-03
(PID.TID 0000.0001) %MON advcfl_vvel_max              =   6.3691067728586E-03
(PID.TID 0000.0001) %MON advcfl_wvel_max              =   7.2064619248418E-03
(PID.TID 0000.0001) %MON advcfl_W_hf_max              =   7.2064619248418E-03
(PID.TID 0000.0001) %MON pe_b_mean                    =   8.1423589033282E-09
(PID.TID 0000.0001) %MON ke_max                       =   7.7392672876306E-04
(PID.TID 0000.0001) %MON ke_mean                      =   4.4630639338795E-06
(PID.TID 0000.0001) %MON ke_vol                       =   2.9239970672193E+14
(PID.TID 0000.0001) %MON vort_r_min                   =  -2.3549373278644E-06
(PID.TID 0000.0001) %MON vort_r_max                   =   4.2468259247500E-06
(PID.TID 0000.0001) %MON vort_a_mean                  =  -1.4007197040361E-04
(PID.TID 0000.0001) %MON vort_a_sd                    =   1.7881275277953E-06
(PID.TID 0000.0001) %MON vort_p_mean                  =  -1.5023213754754E-04
(PID.TID 0000.0001) %MON vort_p_sd                    =   7.5278517385248E-05
(PID.TID 0000.0001) %MON surfExpan_theta_mean         =  -7.4257703758683E-23
(PID.TID 0000.0001) %MON surfExpan_salt_mean          =  -2.1811250098629E-11
(PID.TID 0000.0001) // =======================================================
(PID.TID 0000.0001) // End MONITOR dynamic field statistics
(PID.TID 0000.0001) // =======================================================
(PID.TID 0000.0001) SOLVE_FOR_PRESSURE: putPmEinXvector =    F
 cg2d: Sum(rhs),rhsMax =   7.01383395806943E-13  5.97849185311197E-02
(PID.TID 0000.0001)      cg2d_init_res =   5.92341668373223E+00
(PID.TID 0000.0001)      cg2d_iters(min,last) =      -1     208
(PID.TID 0000.0001)      cg2d_last_res =   8.67822750449766E-14
(PID.TID 0000.0001) // =======================================================
(PID.TID 0000.0001) // Begin MONITOR dynamic field statistics
(PID.TID 0000.0001) // =======================================================
(PID.TID 0000.0001) %MON time_tsnumber                =                  8641
(PID.TID 0000.0001) %MON time_secondsf                =   1.5553800000000E+07
(PID.TID 0000.0001) %MON dynstat_eta_max              =   1.1279822076882E-02
(PID.TID 0000.0001) %MON dynstat_eta_min              =  -3.3100296601825E-03
(PID.TID 0000.0001) %MON dynstat_eta_mean             =  -2.8001897743849E-16
(PID.TID 0000.0001) %MON dynstat_eta_sd               =   9.7653310004373E-04
(PID.TID 0000.0001) %MON dynstat_eta_del2             =   8.2711522599014E-06
(PID.TID 0000.0001) %MON dynstat_uvel_max             =   6.9546523249064E-03
(PID.TID 0000.0001) %MON dynstat_uvel_min             =  -1.2109501410486E-02
(PID.TID 0000.0001) %MON dynstat_uvel_mean            =   2.5153606286351E-05
(PID.TID 0000.0001) %MON dynstat_uvel_sd              =   1.1686713374826E-03
(PID.TID 0000.0001) %MON dynstat_uvel_del2            =   1.6837018566896E-06
(PID.TID 0000.0001) %MON dynstat_vvel_max             =   3.9571300737875E-02
(PID.TID 0000.0001) %MON dynstat_vvel_min             =  -1.3257550590397E-02
(PID.TID 0000.0001) %MON dynstat_vvel_mean            =   4.6554257967500E-06
(PID.TID 0000.0001) %MON dynstat_vvel_sd              =   2.7773763704932E-03
(PID.TID 0000.0001) %MON dynstat_vvel_del2            =   4.9154608674547E-06
(PID.TID 0000.0001) %MON dynstat_wvel_max             =   4.6557104689892E-05
(PID.TID 0000.0001) %MON dynstat_wvel_min             =  -1.2002082352331E-04
(PID.TID 0000.0001) %MON dynstat_wvel_mean            =   3.8661793881047E-09
(PID.TID 0000.0001) %MON dynstat_wvel_sd              =   4.1001623701301E-06
(PID.TID 0000.0001) %MON dynstat_wvel_del2            =   1.8109298304318E-08
(PID.TID 0000.0001) %MON dynstat_theta_max            =  -1.8769131970701E+00
(PID.TID 0000.0001) %MON dynstat_theta_min            =  -2.0008048161429E+00
(PID.TID 0000.0001) %MON dynstat_theta_mean           =  -1.9142990556136E+00
(PID.TID 0000.0001) %MON dynstat_theta_sd             =   3.1104912406247E-02
(PID.TID 0000.0001) %MON dynstat_theta_del2           =   6.2916716286144E-06
(PID.TID 0000.0001) %MON dynstat_salt_max             =   3.4409203525566E+01
(PID.TID 0000.0001) %MON dynstat_salt_min             =   3.4119633639567E+01
(PID.TID 0000.0001) %MON dynstat_salt_mean            =   3.4391240319860E+01
(PID.TID 0000.0001) %MON dynstat_salt_sd              =   2.3901820442164E-02
(PID.TID 0000.0001) %MON dynstat_salt_del2            =   3.3324212186675E-06
(PID.TID 0000.0001) %MON advcfl_uvel_max              =   3.6031100736798E-03
(PID.TID 0000.0001) %MON advcfl_vvel_max              =   6.4067242383386E-03
(PID.TID 0000.0001) %MON advcfl_wvel_max              =   7.2012494113986E-03
(PID.TID 0000.0001) %MON advcfl_W_hf_max              =   7.2012494113986E-03
(PID.TID 0000.0001) %MON pe_b_mean                    =  -3.5738124103419E-07
(PID.TID 0000.0001) %MON ke_max                       =   7.7643519629894E-04
(PID.TID 0000.0001) %MON ke_mean                      =   4.4808385284158E-06
(PID.TID 0000.0001) %MON ke_vol                       =   2.9239970672193E+14
(PID.TID 0000.0001) %MON vort_r_min                   =  -2.3577016281599E-06
(PID.TID 0000.0001) %MON vort_r_max                   =   4.2945409735853E-06
(PID.TID 0000.0001) %MON vort_a_mean                  =  -1.4007161344052E-04
(PID.TID 0000.0001) %MON vort_a_sd                    =   1.7877722072166E-06
(PID.TID 0000.0001) %MON vort_p_mean                  =  -1.5023175469274E-04
(PID.TID 0000.0001) %MON vort_p_sd                    =   7.5268868191360E-05
(PID.TID 0000.0001) %MON surfExpan_theta_mean         =   4.5844692936140E-12
(PID.TID 0000.0001) %MON surfExpan_salt_mean          =   1.5717023913099E-09
(PID.TID 0000.0001) // =======================================================
(PID.TID 0000.0001) // End MONITOR dynamic field statistics
(PID.TID 0000.0001) // =======================================================
 cg2d: Sum(rhs),rhsMax =   7.18772263930134E-13  5.85466144272657E-02
(PID.TID 0000.0001)      cg2d_init_res =   8.60491965288478E-02
(PID.TID 0000.0001)      cg2d_iters(min,last) =      -1     199
(PID.TID 0000.0001)      cg2d_last_res =   7.57331128762779E-14
(PID.TID 0000.0001) // =======================================================
(PID.TID 0000.0001) // Begin MONITOR dynamic field statistics
(PID.TID 0000.0001) // =======================================================
(PID.TID 0000.0001) %MON time_tsnumber                =                  8642
(PID.TID 0000.0001) %MON time_secondsf                =   1.5555600000000E+07
(PID.TID 0000.0001) %MON dynstat_eta_max              =   1.1443701754452E-02
(PID.TID 0000.0001) %MON dynstat_eta_min              =  -3.5259181765624E-03
(PID.TID 0000.0001) %MON dynstat_eta_mean             =  -2.8024044405081E-16
(PID.TID 0000.0001) %MON dynstat_eta_sd               =   1.0073356116208E-03
(PID.TID 0000.0001) %MON dynstat_eta_del2             =   8.2971957333948E-06
(PID.TID 0000.0001) %MON dynstat_uvel_max             =   6.9392272780136E-03
(PID.TID 0000.0001) %MON dynstat_uvel_min             =  -1.2349246738335E-02
(PID.TID 0000.0001) %MON dynstat_uvel_mean            =   2.5617734803688E-05
(PID.TID 0000.0001) %MON dynstat_uvel_sd              =   1.1757601014860E-03
(PID.TID 0000.0001) %MON dynstat_uvel_del2            =   1.8724444917964E-06
(PID.TID 0000.0001) %MON dynstat_vvel_max             =   3.9889220587784E-02
(PID.TID 0000.0001) %MON dynstat_vvel_min             =  -1.3257033535071E-02
(PID.TID 0000.0001) %MON dynstat_vvel_mean            =   8.3197696577083E-06
(PID.TID 0000.0001) %MON dynstat_vvel_sd              =   2.7837117787466E-03
(PID.TID 0000.0001) %MON dynstat_vvel_del2            =   4.9142495243746E-06
(PID.TID 0000.0001) %MON dynstat_wvel_max             =   4.6583784491076E-05
(PID.TID 0000.0001) %MON dynstat_wvel_min             =  -1.2002438774911E-04
(PID.TID 0000.0001) %MON dynstat_wvel_mean            =   7.2172840587962E-09
(PID.TID 0000.0001) %MON dynstat_wvel_sd              =   4.0323258296166E-06
(PID.TID 0000.0001) %MON dynstat_wvel_del2            =   1.7561098351638E-08
(PID.TID 0000.0001) %MON dynstat_theta_max            =  -1.8819023929593E+00
(PID.TID 0000.0001) %MON dynstat_theta_min            =  -2.0013242523923E+00
(PID.TID 0000.0001) %MON dynstat_theta_mean           =  -1.9143045846637E+00
(PID.TID 0000.0001) %MON dynstat_theta_sd             =   3.1118973708100E-02
(PID.TID 0000.0001) %MON dynstat_theta_del2           =   6.2636772001933E-06
(PID.TID 0000.0001) %MON dynstat_salt_max             =   3.4407234075256E+01
(PID.TID 0000.0001) %MON dynstat_salt_min             =   3.4119635387349E+01
(PID.TID 0000.0001) %MON dynstat_salt_mean            =   3.4391238319004E+01
(PID.TID 0000.0001) %MON dynstat_salt_sd              =   2.3909518560774E-02
(PID.TID 0000.0001) %MON dynstat_salt_del2            =   3.3333856110449E-06
(PID.TID 0000.0001) %MON advcfl_uvel_max              =   3.6744448691111E-03
(PID.TID 0000.0001) %MON advcfl_vvel_max              =   6.4581965116852E-03
(PID.TID 0000.0001) %MON advcfl_wvel_max              =   7.2014632649466E-03
(PID.TID 0000.0001) %MON advcfl_W_hf_max              =   7.2014632649466E-03
(PID.TID 0000.0001) %MON pe_b_mean                    =  -3.3134825291416E-07
(PID.TID 0000.0001) %MON ke_max                       =   7.8660679501522E-04
(PID.TID 0000.0001) %MON ke_mean                      =   4.5064224649381E-06
(PID.TID 0000.0001) %MON ke_vol                       =   2.9239970672193E+14
(PID.TID 0000.0001) %MON vort_r_min                   =  -2.3607308034127E-06
(PID.TID 0000.0001) %MON vort_r_max                   =   4.3418837371205E-06
(PID.TID 0000.0001) %MON vort_a_mean                  =  -1.4007161342166E-04
(PID.TID 0000.0001) %MON vort_a_sd                    =   1.7878691125690E-06
(PID.TID 0000.0001) %MON vort_p_mean                  =  -1.5023175144695E-04
(PID.TID 0000.0001) %MON vort_p_sd                    =   7.5270558597888E-05
(PID.TID 0000.0001) %MON surfExpan_theta_mean         =   1.1668770776121E-11
(PID.TID 0000.0001) %MON surfExpan_salt_mean          =   1.6189062766950E-09
(PID.TID 0000.0001) // =======================================================
(PID.TID 0000.0001) // End MONITOR dynamic field statistics
(PID.TID 0000.0001) // =======================================================
 cg2d: Sum(rhs),rhsMax =   7.17037540454157E-13  5.84695845118351E-02
(PID.TID 0000.0001)      cg2d_init_res =   4.20480983920548E-02
(PID.TID 0000.0001)      cg2d_iters(min,last) =      -1     199
(PID.TID 0000.0001)      cg2d_last_res =   8.10493238141634E-14
(PID.TID 0000.0001) // =======================================================
(PID.TID 0000.0001) // Begin MONITOR dynamic field statistics
(PID.TID 0000.0001) // =======================================================
(PID.TID 0000.0001) %MON time_tsnumber                =                  8643
(PID.TID 0000.0001) %MON time_secondsf                =   1.5557400000000E+07
(PID.TID 0000.0001) %MON dynstat_eta_max              =   1.1515725466921E-02
(PID.TID 0000.0001) %MON dynstat_eta_min              =  -3.6552343402708E-03
(PID.TID 0000.0001) %MON dynstat_eta_mean             =  -2.8020211329099E-16
(PID.TID 0000.0001) %MON dynstat_eta_sd               =   1.0180770521047E-03
(PID.TID 0000.0001) %MON dynstat_eta_del2             =   8.2846984711612E-06
(PID.TID 0000.0001) %MON dynstat_uvel_max             =   6.9300527662623E-03
(PID.TID 0000.0001) %MON dynstat_uvel_min             =  -1.2558285516937E-02
(PID.TID 0000.0001) %MON dynstat_uvel_mean            =   2.7278626135481E-05
(PID.TID 0000.0001) %MON dynstat_uvel_sd              =   1.1848855178465E-03
(PID.TID 0000.0001) %MON dynstat_uvel_del2            =   2.0063714960364E-06
(PID.TID 0000.0001) %MON dynstat_vvel_max             =   4.0227636715504E-02
(PID.TID 0000.0001) %MON dynstat_vvel_min             =  -1.3254990254646E-02
(PID.TID 0000.0001) %MON dynstat_vvel_mean            =   1.1333828126732E-05
(PID.TID 0000.0001) %MON dynstat_vvel_sd              =   2.7899826773575E-03
(PID.TID 0000.0001) %MON dynstat_vvel_del2            =   4.9135982093955E-06
(PID.TID 0000.0001) %MON dynstat_wvel_max             =   4.6978688065700E-05
(PID.TID 0000.0001) %MON dynstat_wvel_min             =  -1.2010270769127E-04
(PID.TID 0000.0001) %MON dynstat_wvel_mean            =   8.0351452040653E-09
(PID.TID 0000.0001) %MON dynstat_wvel_sd              =   4.0039247633036E-06
(PID.TID 0000.0001) %MON dynstat_wvel_del2            =   1.7346874060948E-08
(PID.TID 0000.0001) %MON dynstat_theta_max            =  -1.8848535053330E+00
(PID.TID 0000.0001) %MON dynstat_theta_min            =  -2.0018432364571E+00
(PID.TID 0000.0001) %MON dynstat_theta_mean           =  -1.9143101100642E+00
(PID.TID 0000.0001) %MON dynstat_theta_sd             =   3.1133077697374E-02
(PID.TID 0000.0001) %MON dynstat_theta_del2           =   6.2365723495584E-06
(PID.TID 0000.0001) %MON dynstat_salt_max             =   3.4406074126183E+01
(PID.TID 0000.0001) %MON dynstat_salt_min             =   3.4119635366144E+01
(PID.TID 0000.0001) %MON dynstat_salt_mean            =   3.4391236319342E+01
(PID.TID 0000.0001) %MON dynstat_salt_sd              =   2.3917233944728E-02
(PID.TID 0000.0001) %MON dynstat_salt_del2            =   3.3340459749564E-06
(PID.TID 0000.0001) %MON advcfl_uvel_max              =   3.7366431135671E-03
(PID.TID 0000.0001) %MON advcfl_vvel_max              =   6.5129872000800E-03
(PID.TID 0000.0001) %MON advcfl_wvel_max              =   7.2061624614761E-03
(PID.TID 0000.0001) %MON advcfl_W_hf_max              =   7.2061624614761E-03
(PID.TID 0000.0001) %MON pe_b_mean                    =  -2.8591155920122E-07
(PID.TID 0000.0001) %MON ke_max                       =   7.9869864576893E-04
(PID.TID 0000.0001) %MON ke_mean                      =   4.5343164349810E-06
(PID.TID 0000.0001) %MON ke_vol                       =   2.9239970672193E+14
(PID.TID 0000.0001) %MON vort_r_min                   =  -2.3686839589635E-06
(PID.TID 0000.0001) %MON vort_r_max                   =   4.3806760422163E-06
(PID.TID 0000.0001) %MON vort_a_mean                  =  -1.4007161343368E-04
(PID.TID 0000.0001) %MON vort_a_sd                    =   1.7879377905255E-06
(PID.TID 0000.0001) %MON vort_p_mean                  =  -1.5023175150267E-04
(PID.TID 0000.0001) %MON vort_p_sd                    =   7.5270174471990E-05
(PID.TID 0000.0001) %MON surfExpan_theta_mean         =   1.7588722647599E-11
(PID.TID 0000.0001) %MON surfExpan_salt_mean          =   1.6721990962731E-09
(PID.TID 0000.0001) // =======================================================
(PID.TID 0000.0001) // End MONITOR dynamic field statistics
(PID.TID 0000.0001) // =======================================================
 cg2d: Sum(rhs),rhsMax =   7.21547821491697E-13  5.84526906484990E-02
(PID.TID 0000.0001)      cg2d_init_res =   3.95888393192508E-02
(PID.TID 0000.0001)      cg2d_iters(min,last) =      -1     198
(PID.TID 0000.0001)      cg2d_last_res =   8.23592705888825E-14
(PID.TID 0000.0001) // =======================================================
(PID.TID 0000.0001) // Begin MONITOR dynamic field statistics
(PID.TID 0000.0001) // =======================================================
(PID.TID 0000.0001) %MON time_tsnumber                =                  8644
(PID.TID 0000.0001) %MON time_secondsf                =   1.5559200000000E+07
(PID.TID 0000.0001) %MON dynstat_eta_max              =   1.1484365635418E-02
(PID.TID 0000.0001) %MON dynstat_eta_min              =  -3.6775585552260E-03
(PID.TID 0000.0001) %MON dynstat_eta_mean             =  -2.8021063123762E-16
(PID.TID 0000.0001) %MON dynstat_eta_sd               =   1.0148395206827E-03
(PID.TID 0000.0001) %MON dynstat_eta_del2             =   8.2853320832640E-06
(PID.TID 0000.0001) %MON dynstat_uvel_max             =   6.9285060590504E-03
(PID.TID 0000.0001) %MON dynstat_uvel_min             =  -1.2735376568059E-02
(PID.TID 0000.0001) %MON dynstat_uvel_mean            =   2.8792224137416E-05
(PID.TID 0000.0001) %MON dynstat_uvel_sd              =   1.1960625948244E-03
(PID.TID 0000.0001) %MON dynstat_uvel_del2            =   2.0683996347392E-06
(PID.TID 0000.0001) %MON dynstat_vvel_max             =   4.0558582926735E-02
(PID.TID 0000.0001) %MON dynstat_vvel_min             =  -1.3264001995365E-02
(PID.TID 0000.0001) %MON dynstat_vvel_mean            =   1.3423184441651E-05
(PID.TID 0000.0001) %MON dynstat_vvel_sd              =   2.7956706963305E-03
(PID.TID 0000.0001) %MON dynstat_vvel_del2            =   4.9136939331194E-06
(PID.TID 0000.0001) %MON dynstat_wvel_max             =   4.7401868451088E-05
(PID.TID 0000.0001) %MON dynstat_wvel_min             =  -1.2024872089406E-04
(PID.TID 0000.0001) %MON dynstat_wvel_mean            =   7.6246437853815E-09
(PID.TID 0000.0001) %MON dynstat_wvel_sd              =   4.0048396351096E-06
(PID.TID 0000.0001) %MON dynstat_wvel_del2            =   1.7329136724463E-08
(PID.TID 0000.0001) %MON dynstat_theta_max            =  -1.8867202566969E+00
(PID.TID 0000.0001) %MON dynstat_theta_min            =  -2.0023615791813E+00
(PID.TID 0000.0001) %MON dynstat_theta_mean           =  -1.9143156298738E+00
(PID.TID 0000.0001) %MON dynstat_theta_sd             =   3.1147206472419E-02
(PID.TID 0000.0001) %MON dynstat_theta_del2           =   6.2101466619329E-06
(PID.TID 0000.0001) %MON dynstat_salt_max             =   3.4405345019994E+01
(PID.TID 0000.0001) %MON dynstat_salt_min             =   3.4119636222601E+01
(PID.TID 0000.0001) %MON dynstat_salt_mean            =   3.4391234322469E+01
(PID.TID 0000.0001) %MON dynstat_salt_sd              =   2.3924941131180E-02
(PID.TID 0000.0001) %MON dynstat_salt_del2            =   3.3347097691126E-06
(PID.TID 0000.0001) %MON advcfl_uvel_max              =   3.7893355018520E-03
(PID.TID 0000.0001) %MON advcfl_vvel_max              =   6.5665684843326E-03
(PID.TID 0000.0001) %MON advcfl_wvel_max              =   7.2149232536433E-03
(PID.TID 0000.0001) %MON advcfl_W_hf_max              =   7.2149232536433E-03
(PID.TID 0000.0001) %MON pe_b_mean                    =  -2.3197251204643E-07
(PID.TID 0000.0001) %MON ke_max                       =   8.1154743806451E-04
(PID.TID 0000.0001) %MON ke_mean                      =   4.5631168934735E-06
(PID.TID 0000.0001) %MON ke_vol                       =   2.9239970672193E+14
(PID.TID 0000.0001) %MON vort_r_min                   =  -2.3719468558291E-06
(PID.TID 0000.0001) %MON vort_r_max                   =   4.4116105541242E-06
(PID.TID 0000.0001) %MON vort_a_mean                  =  -1.4007161358946E-04
(PID.TID 0000.0001) %MON vort_a_sd                    =   1.7879710982900E-06
(PID.TID 0000.0001) %MON vort_p_mean                  =  -1.5023175165400E-04
(PID.TID 0000.0001) %MON vort_p_sd                    =   7.5269980169705E-05
(PID.TID 0000.0001) %MON surfExpan_theta_mean         =   2.0935788078821E-11
(PID.TID 0000.0001) %MON surfExpan_salt_mean          =   1.5271183148364E-09
(PID.TID 0000.0001) // =======================================================
(PID.TID 0000.0001) // End MONITOR dynamic field statistics
(PID.TID 0000.0001) // =======================================================
 cg2d: Sum(rhs),rhsMax =   7.17037540454157E-13  5.84006602843750E-02
(PID.TID 0000.0001)      cg2d_init_res =   3.92862121637179E-02
(PID.TID 0000.0001)      cg2d_iters(min,last) =      -1     196
(PID.TID 0000.0001)      cg2d_last_res =   8.46761305418875E-14
(PID.TID 0000.0001) // =======================================================
(PID.TID 0000.0001) // Begin MONITOR dynamic field statistics
(PID.TID 0000.0001) // =======================================================
(PID.TID 0000.0001) %MON time_tsnumber                =                  8645
(PID.TID 0000.0001) %MON time_secondsf                =   1.5561000000000E+07
(PID.TID 0000.0001) %MON dynstat_eta_max              =   1.1382916479409E-02
(PID.TID 0000.0001) %MON dynstat_eta_min              =  -3.6398544773614E-03
(PID.TID 0000.0001) %MON dynstat_eta_mean             =  -2.8037673119686E-16
(PID.TID 0000.0001) %MON dynstat_eta_sd               =   1.0046759933909E-03
(PID.TID 0000.0001) %MON dynstat_eta_del2             =   8.2871779834260E-06
(PID.TID 0000.0001) %MON dynstat_uvel_max             =   6.9343727876807E-03
(PID.TID 0000.0001) %MON dynstat_uvel_min             =  -1.2878964808264E-02
(PID.TID 0000.0001) %MON dynstat_uvel_mean            =   2.9626712363344E-05
(PID.TID 0000.0001) %MON dynstat_uvel_sd              =   1.2084442499815E-03
(PID.TID 0000.0001) %MON dynstat_uvel_del2            =   2.0579019929924E-06
(PID.TID 0000.0001) %MON dynstat_vvel_max             =   4.0880104193837E-02
(PID.TID 0000.0001) %MON dynstat_vvel_min             =  -1.3279377915089E-02
(PID.TID 0000.0001) %MON dynstat_vvel_mean            =   1.4142896845998E-05
(PID.TID 0000.0001) %MON dynstat_vvel_sd              =   2.8005747919469E-03
(PID.TID 0000.0001) %MON dynstat_vvel_del2            =   4.9145809790815E-06
(PID.TID 0000.0001) %MON dynstat_wvel_max             =   4.7858219912998E-05
(PID.TID 0000.0001) %MON dynstat_wvel_min             =  -1.2044417035193E-04
(PID.TID 0000.0001) %MON dynstat_wvel_mean            =   6.4259951060791E-09
(PID.TID 0000.0001) %MON dynstat_wvel_sd              =   4.0300372294271E-06
(PID.TID 0000.0001) %MON dynstat_wvel_del2            =   1.7479555737341E-08
(PID.TID 0000.0001) %MON dynstat_theta_max            =  -1.8880327129934E+00
(PID.TID 0000.0001) %MON dynstat_theta_min            =  -2.0028792768661E+00
(PID.TID 0000.0001) %MON dynstat_theta_mean           =  -1.9143211440930E+00
(PID.TID 0000.0001) %MON dynstat_theta_sd             =   3.1161354648279E-02
(PID.TID 0000.0001) %MON dynstat_theta_del2           =   6.1842965927640E-06
(PID.TID 0000.0001) %MON dynstat_salt_max             =   3.4404835984567E+01
(PID.TID 0000.0001) %MON dynstat_salt_min             =   3.4119637932067E+01
(PID.TID 0000.0001) %MON dynstat_salt_mean            =   3.4391232328074E+01
(PID.TID 0000.0001) %MON dynstat_salt_sd              =   2.3932639420854E-02
(PID.TID 0000.0001) %MON dynstat_salt_del2            =   3.3355104683873E-06
(PID.TID 0000.0001) %MON advcfl_uvel_max              =   3.8320593281438E-03
(PID.TID 0000.0001) %MON advcfl_vvel_max              =   6.6186238390133E-03
(PID.TID 0000.0001) %MON advcfl_wvel_max              =   7.2266502211160E-03
(PID.TID 0000.0001) %MON advcfl_W_hf_max              =   7.2266502211160E-03
(PID.TID 0000.0001) %MON pe_b_mean                    =  -1.7981224405808E-07
(PID.TID 0000.0001) %MON ke_max                       =   8.2450710036105E-04
(PID.TID 0000.0001) %MON ke_mean                      =   4.5912935807936E-06
(PID.TID 0000.0001) %MON ke_vol                       =   2.9239970672193E+14
(PID.TID 0000.0001) %MON vort_r_min                   =  -2.3692662261785E-06
(PID.TID 0000.0001) %MON vort_r_max                   =   4.4341944626524E-06
(PID.TID 0000.0001) %MON vort_a_mean                  =  -1.4007161401729E-04
(PID.TID 0000.0001) %MON vort_a_sd                    =   1.7879710971371E-06
(PID.TID 0000.0001) %MON vort_p_mean                  =  -1.5023175203589E-04
(PID.TID 0000.0001) %MON vort_p_sd                    =   7.5269973232416E-05
(PID.TID 0000.0001) %MON surfExpan_theta_mean         =   2.1152073289748E-11
(PID.TID 0000.0001) %MON surfExpan_salt_mean          =   1.2512251481401E-09
(PID.TID 0000.0001) // =======================================================
(PID.TID 0000.0001) // End MONITOR dynamic field statistics
(PID.TID 0000.0001) // =======================================================
 cg2d: Sum(rhs),rhsMax =   7.19632686774219E-13  5.83965554933797E-02
(PID.TID 0000.0001)      cg2d_init_res =   3.85227377043007E-02
(PID.TID 0000.0001)      cg2d_iters(min,last) =      -1     192
(PID.TID 0000.0001)      cg2d_last_res =   9.99347897977567E-14
(PID.TID 0000.0001) // =======================================================
(PID.TID 0000.0001) // Begin MONITOR dynamic field statistics
(PID.TID 0000.0001) // =======================================================
(PID.TID 0000.0001) %MON time_tsnumber                =                  8646
(PID.TID 0000.0001) %MON time_secondsf                =   1.5562800000000E+07
(PID.TID 0000.0001) %MON dynstat_eta_max              =   1.1267134327760E-02
(PID.TID 0000.0001) %MON dynstat_eta_min              =  -3.5757495170460E-03
(PID.TID 0000.0001) %MON dynstat_eta_mean             =  -2.8005730819832E-16
(PID.TID 0000.0001) %MON dynstat_eta_sd               =   9.9350013431000E-04
(PID.TID 0000.0001) %MON dynstat_eta_del2             =   8.2893267514337E-06
(PID.TID 0000.0001) %MON dynstat_uvel_max             =   6.9469821548275E-03
(PID.TID 0000.0001) %MON dynstat_uvel_min             =  -1.2970440470280E-02
(PID.TID 0000.0001) %MON dynstat_uvel_mean            =   2.9909910821887E-05
(PID.TID 0000.0001) %MON dynstat_uvel_sd              =   1.2212423479945E-03
(PID.TID 0000.0001) %MON dynstat_uvel_del2            =   1.9871391340202E-06
(PID.TID 0000.0001) %MON dynstat_vvel_max             =   4.1170626968527E-02
(PID.TID 0000.0001) %MON dynstat_vvel_min             =  -1.3296295712781E-02
(PID.TID 0000.0001) %MON dynstat_vvel_mean            =   1.3201708159840E-05
(PID.TID 0000.0001) %MON dynstat_vvel_sd              =   2.8046292092998E-03
(PID.TID 0000.0001) %MON dynstat_vvel_del2            =   4.9163068517453E-06
(PID.TID 0000.0001) %MON dynstat_wvel_max             =   4.8326955887700E-05
(PID.TID 0000.0001) %MON dynstat_wvel_min             =  -1.2066799967715E-04
(PID.TID 0000.0001) %MON dynstat_wvel_mean            =   4.8248092831891E-09
(PID.TID 0000.0001) %MON dynstat_wvel_sd              =   4.0757360181381E-06
(PID.TID 0000.0001) %MON dynstat_wvel_del2            =   1.7769908813759E-08
(PID.TID 0000.0001) %MON dynstat_theta_max            =  -1.8889940988205E+00
(PID.TID 0000.0001) %MON dynstat_theta_min            =  -2.0033963288792E+00
(PID.TID 0000.0001) %MON dynstat_theta_mean           =  -1.9143266527281E+00
(PID.TID 0000.0001) %MON dynstat_theta_sd             =   3.1175519835576E-02
(PID.TID 0000.0001) %MON dynstat_theta_del2           =   6.1589567992995E-06
(PID.TID 0000.0001) %MON dynstat_salt_max             =   3.4404466085926E+01
(PID.TID 0000.0001) %MON dynstat_salt_min             =   3.4119639550162E+01
(PID.TID 0000.0001) %MON dynstat_salt_mean            =   3.4391230335821E+01
(PID.TID 0000.0001) %MON dynstat_salt_sd              =   2.3940329598325E-02
(PID.TID 0000.0001) %MON dynstat_salt_del2            =   3.3364858961718E-06
(PID.TID 0000.0001) %MON advcfl_uvel_max              =   3.8592773669494E-03
(PID.TID 0000.0001) %MON advcfl_vvel_max              =   6.6656604354275E-03
(PID.TID 0000.0001) %MON advcfl_wvel_max              =   7.2400799806293E-03
(PID.TID 0000.0001) %MON advcfl_W_hf_max              =   7.2400799806293E-03
(PID.TID 0000.0001) %MON pe_b_mean                    =  -1.3637071896132E-07
(PID.TID 0000.0001) %MON ke_max                       =   8.3698051832373E-04
(PID.TID 0000.0001) %MON ke_mean                      =   4.6177488180229E-06
(PID.TID 0000.0001) %MON ke_vol                       =   2.9239970672193E+14
(PID.TID 0000.0001) %MON vort_r_min                   =  -2.3630502904886E-06
(PID.TID 0000.0001) %MON vort_r_max                   =   4.4484802944008E-06
(PID.TID 0000.0001) %MON vort_a_mean                  =  -1.4007161475625E-04
(PID.TID 0000.0001) %MON vort_a_sd                    =   1.7879476881464E-06
(PID.TID 0000.0001) %MON vort_p_mean                  =  -1.5023175275159E-04
(PID.TID 0000.0001) %MON vort_p_sd                    =   7.5270129734008E-05
(PID.TID 0000.0001) %MON surfExpan_theta_mean         =   1.8467070948825E-11
(PID.TID 0000.0001) %MON surfExpan_salt_mean          =   9.1743802889370E-10
(PID.TID 0000.0001) // =======================================================
(PID.TID 0000.0001) // End MONITOR dynamic field statistics
(PID.TID 0000.0001) // =======================================================
 cg2d: Sum(rhs),rhsMax =   7.18175519054398E-13  5.84579952492577E-02
(PID.TID 0000.0001)      cg2d_init_res =   3.77188136966765E-02
(PID.TID 0000.0001)      cg2d_iters(min,last) =      -1     194
(PID.TID 0000.0001)      cg2d_last_res =   9.78107281084462E-14
(PID.TID 0000.0001) // =======================================================
(PID.TID 0000.0001) // Begin MONITOR dynamic field statistics
(PID.TID 0000.0001) // =======================================================
(PID.TID 0000.0001) %MON time_tsnumber                =                  8647
(PID.TID 0000.0001) %MON time_secondsf                =   1.5564600000000E+07
(PID.TID 0000.0001) %MON dynstat_eta_max              =   1.1172091062675E-02
(PID.TID 0000.0001) %MON dynstat_eta_min              =  -3.5028652202455E-03
(PID.TID 0000.0001) %MON dynstat_eta_mean             =  -2.8030219916386E-16
(PID.TID 0000.0001) %MON dynstat_eta_sd               =   9.8399662675865E-04
(PID.TID 0000.0001) %MON dynstat_eta_del2             =   8.2913657700654E-06
(PID.TID 0000.0001) %MON dynstat_uvel_max             =   6.9653680177487E-03
(PID.TID 0000.0001) %MON dynstat_uvel_min             =  -1.3006422036672E-02
(PID.TID 0000.0001) %MON dynstat_uvel_mean            =   3.0007683933922E-05
(PID.TID 0000.0001) %MON dynstat_uvel_sd              =   1.2338731579246E-03
(PID.TID 0000.0001) %MON dynstat_uvel_del2            =   1.8778137834388E-06
(PID.TID 0000.0001) %MON dynstat_vvel_max             =   4.1413941159932E-02
(PID.TID 0000.0001) %MON dynstat_vvel_min             =  -1.3310878640806E-02
(PID.TID 0000.0001) %MON dynstat_vvel_mean            =   1.0686474654417E-05
(PID.TID 0000.0001) %MON dynstat_vvel_sd              =   2.8078249743713E-03
(PID.TID 0000.0001) %MON dynstat_vvel_del2            =   4.9189092921162E-06
(PID.TID 0000.0001) %MON dynstat_wvel_max             =   4.8769514317317E-05
(PID.TID 0000.0001) %MON dynstat_wvel_min             =  -1.2090139127892E-04
(PID.TID 0000.0001) %MON dynstat_wvel_mean            =   3.1324037603117E-09
(PID.TID 0000.0001) %MON dynstat_wvel_sd              =   4.1388849714163E-06
(PID.TID 0000.0001) %MON dynstat_wvel_del2            =   1.8170014794467E-08
(PID.TID 0000.0001) %MON dynstat_theta_max            =  -1.8897089255343E+00
(PID.TID 0000.0001) %MON dynstat_theta_min            =  -2.0039127391649E+00
(PID.TID 0000.0001) %MON dynstat_theta_mean           =  -1.9143321557899E+00
(PID.TID 0000.0001) %MON dynstat_theta_sd             =   3.1189700734951E-02
(PID.TID 0000.0001) %MON dynstat_theta_del2           =   6.1340816194681E-06
(PID.TID 0000.0001) %MON dynstat_salt_max             =   3.4404193619636E+01
(PID.TID 0000.0001) %MON dynstat_salt_min             =   3.4119640278917E+01
(PID.TID 0000.0001) %MON dynstat_salt_mean            =   3.4391228345459E+01
(PID.TID 0000.0001) %MON dynstat_salt_sd              =   2.3948012316826E-02
(PID.TID 0000.0001) %MON dynstat_salt_del2            =   3.3376612813238E-06
(PID.TID 0000.0001) %MON advcfl_uvel_max              =   3.8699834678810E-03
(PID.TID 0000.0001) %MON advcfl_vvel_max              =   6.7050538063439E-03
(PID.TID 0000.0001) %MON advcfl_wvel_max              =   7.2540834767355E-03
(PID.TID 0000.0001) %MON advcfl_W_hf_max              =   7.2540834767355E-03
(PID.TID 0000.0001) %MON pe_b_mean                    =  -1.0511751091388E-07
(PID.TID 0000.0001) %MON ke_max                       =   8.4836501300480E-04
(PID.TID 0000.0001) %MON ke_mean                      =   4.6417732121176E-06
(PID.TID 0000.0001) %MON ke_vol                       =   2.9239970672193E+14
(PID.TID 0000.0001) %MON vort_r_min                   =  -2.3619081501231E-06
(PID.TID 0000.0001) %MON vort_r_max                   =   4.4547015218137E-06
(PID.TID 0000.0001) %MON vort_a_mean                  =  -1.4007161568930E-04
(PID.TID 0000.0001) %MON vort_a_sd                    =   1.7879141352356E-06
(PID.TID 0000.0001) %MON vort_p_mean                  =  -1.5023175371781E-04
(PID.TID 0000.0001) %MON vort_p_sd                    =   7.5270431245636E-05
(PID.TID 0000.0001) %MON surfExpan_theta_mean         =   1.3606378317290E-11
(PID.TID 0000.0001) %MON surfExpan_salt_mean          =   5.7996395942602E-10
(PID.TID 0000.0001) // =======================================================
(PID.TID 0000.0001) // End MONITOR dynamic field statistics
(PID.TID 0000.0001) // =======================================================
 cg2d: Sum(rhs),rhsMax =   7.18931858489924E-13  5.85308740184290E-02
(PID.TID 0000.0001)      cg2d_init_res =   3.71274871466527E-02
(PID.TID 0000.0001)      cg2d_iters(min,last) =      -1     195
(PID.TID 0000.0001)      cg2d_last_res =   8.83167240216130E-14
(PID.TID 0000.0001) // =======================================================
(PID.TID 0000.0001) // Begin MONITOR dynamic field statistics
(PID.TID 0000.0001) // =======================================================
(PID.TID 0000.0001) %MON time_tsnumber                =                  8648
(PID.TID 0000.0001) %MON time_secondsf                =   1.5566400000000E+07
(PID.TID 0000.0001) %MON dynstat_eta_max              =   1.1101277407784E-02
(PID.TID 0000.0001) %MON dynstat_eta_min              =  -3.4231840653837E-03
(PID.TID 0000.0001) %MON dynstat_eta_mean             =  -2.8014781138124E-16
(PID.TID 0000.0001) %MON dynstat_eta_sd               =   9.7645610651770E-04
(PID.TID 0000.0001) %MON dynstat_eta_del2             =   8.2930676527994E-06
(PID.TID 0000.0001) %MON dynstat_uvel_max             =   6.9882690873756E-03
(PID.TID 0000.0001) %MON dynstat_uvel_min             =  -1.2987583522929E-02
(PID.TID 0000.0001) %MON dynstat_uvel_mean            =   3.0158920732698E-05
(PID.TID 0000.0001) %MON dynstat_uvel_sd              =   1.2459311803490E-03
(PID.TID 0000.0001) %MON dynstat_uvel_del2            =   1.7585409135205E-06
(PID.TID 0000.0001) %MON dynstat_vvel_max             =   4.1599971638786E-02
(PID.TID 0000.0001) %MON dynstat_vvel_min             =  -1.3321168984763E-02
(PID.TID 0000.0001) %MON dynstat_vvel_mean            =   7.0496402735024E-06
(PID.TID 0000.0001) %MON dynstat_vvel_sd              =   2.8101639788248E-03
(PID.TID 0000.0001) %MON dynstat_vvel_del2            =   4.9223922586968E-06
(PID.TID 0000.0001) %MON dynstat_wvel_max             =   4.9150900008614E-05
(PID.TID 0000.0001) %MON dynstat_wvel_min             =  -1.2112946298003E-04
(PID.TID 0000.0001) %MON dynstat_wvel_mean            =   1.5521875792715E-09
(PID.TID 0000.0001) %MON dynstat_wvel_sd              =   4.2164110947224E-06
(PID.TID 0000.0001) %MON dynstat_wvel_del2            =   1.8646683983784E-08
(PID.TID 0000.0001) %MON dynstat_theta_max            =  -1.8902435266496E+00
(PID.TID 0000.0001) %MON dynstat_theta_min            =  -2.0044285142231E+00
(PID.TID 0000.0001) %MON dynstat_theta_mean           =  -1.9143376532902E+00
(PID.TID 0000.0001) %MON dynstat_theta_sd             =   3.1203896561948E-02
(PID.TID 0000.0001) %MON dynstat_theta_del2           =   6.1096404067870E-06
(PID.TID 0000.0001) %MON dynstat_salt_max             =   3.4403992064222E+01
(PID.TID 0000.0001) %MON dynstat_salt_min             =   3.4119639554384E+01
(PID.TID 0000.0001) %MON dynstat_salt_mean            =   3.4391226356834E+01
(PID.TID 0000.0001) %MON dynstat_salt_sd              =   2.3955687937221E-02
(PID.TID 0000.0001) %MON dynstat_salt_del2            =   3.3390500658336E-06
(PID.TID 0000.0001) %MON advcfl_uvel_max              =   3.8643781802364E-03
(PID.TID 0000.0001) %MON advcfl_vvel_max              =   6.7351727550698E-03
(PID.TID 0000.0001) %MON advcfl_wvel_max              =   7.2677677788016E-03
(PID.TID 0000.0001) %MON advcfl_W_hf_max              =   7.2677677788016E-03
(PID.TID 0000.0001) %MON pe_b_mean                    =  -8.6909464850587E-08
(PID.TID 0000.0001) %MON ke_max                       =   8.5808681120716E-04
(PID.TID 0000.0001) %MON ke_mean                      =   4.6628844419610E-06
(PID.TID 0000.0001) %MON ke_vol                       =   2.9239970672193E+14
(PID.TID 0000.0001) %MON vort_r_min                   =  -2.3604091234359E-06
(PID.TID 0000.0001) %MON vort_r_max                   =   4.4532809008370E-06
(PID.TID 0000.0001) %MON vort_a_mean                  =  -1.4007161656963E-04
(PID.TID 0000.0001) %MON vort_a_sd                    =   1.7878830053799E-06
(PID.TID 0000.0001) %MON vort_p_mean                  =  -1.5023175466628E-04
(PID.TID 0000.0001) %MON vort_p_sd                    =   7.5270849545043E-05
(PID.TID 0000.0001) %MON surfExpan_theta_mean         =   7.4335839075264E-12
(PID.TID 0000.0001) %MON surfExpan_salt_mean          =   2.7179705872558E-10
(PID.TID 0000.0001) // =======================================================
(PID.TID 0000.0001) // End MONITOR dynamic field statistics
(PID.TID 0000.0001) // =======================================================
 cg2d: Sum(rhs),rhsMax =   7.19332579612875E-13  5.86156097767971E-02
(PID.TID 0000.0001)      cg2d_init_res =   3.67878482259530E-02
(PID.TID 0000.0001)      cg2d_iters(min,last) =      -1     195
(PID.TID 0000.0001)      cg2d_last_res =   8.11164243982808E-14
(PID.TID 0000.0001) // =======================================================
(PID.TID 0000.0001) // Begin MONITOR dynamic field statistics
(PID.TID 0000.0001) // =======================================================
(PID.TID 0000.0001) %MON time_tsnumber                =                  8649
(PID.TID 0000.0001) %MON time_secondsf                =   1.5568200000000E+07
(PID.TID 0000.0001) %MON dynstat_eta_max              =   1.1052608070005E-02
(PID.TID 0000.0001) %MON dynstat_eta_min              =  -3.3336862348133E-03
(PID.TID 0000.0001) %MON dynstat_eta_mean             =  -2.8019040111438E-16
(PID.TID 0000.0001) %MON dynstat_eta_sd               =   9.7017897984789E-04
(PID.TID 0000.0001) %MON dynstat_eta_del2             =   8.2943801145656E-06
(PID.TID 0000.0001) %MON dynstat_uvel_max             =   7.0141621316136E-03
(PID.TID 0000.0001) %MON dynstat_uvel_min             =  -1.2918963779321E-02
(PID.TID 0000.0001) %MON dynstat_uvel_mean            =   3.0372542866610E-05
(PID.TID 0000.0001) %MON dynstat_uvel_sd              =   1.2570726133043E-03
(PID.TID 0000.0001) %MON dynstat_uvel_del2            =   1.6603638284782E-06
(PID.TID 0000.0001) %MON dynstat_vvel_max             =   4.1722038980853E-02
(PID.TID 0000.0001) %MON dynstat_vvel_min             =  -1.3326760214323E-02
(PID.TID 0000.0001) %MON dynstat_vvel_mean            =   2.9320658152689E-06
(PID.TID 0000.0001) %MON dynstat_vvel_sd              =   2.8116690607512E-03
(PID.TID 0000.0001) %MON dynstat_vvel_del2            =   4.9266950451943E-06
(PID.TID 0000.0001) %MON dynstat_wvel_max             =   4.9448150388643E-05
(PID.TID 0000.0001) %MON dynstat_wvel_min             =  -1.2134012543002E-04
(PID.TID 0000.0001) %MON dynstat_wvel_mean            =   1.7276987171646E-10
(PID.TID 0000.0001) %MON dynstat_wvel_sd              =   4.3044329925996E-06
(PID.TID 0000.0001) %MON dynstat_wvel_del2            =   1.9163717870572E-08
(PID.TID 0000.0001) %MON dynstat_theta_max            =  -1.8906445997252E+00
(PID.TID 0000.0001) %MON dynstat_theta_min            =  -2.0049436602724E+00
(PID.TID 0000.0001) %MON dynstat_theta_mean           =  -1.9143431452400E+00
(PID.TID 0000.0001) %MON dynstat_theta_sd             =   3.1218106800636E-02
(PID.TID 0000.0001) %MON dynstat_theta_del2           =   6.0856159948709E-06
(PID.TID 0000.0001) %MON dynstat_salt_max             =   3.4403842722966E+01
(PID.TID 0000.0001) %MON dynstat_salt_min             =   3.4119636956411E+01
(PID.TID 0000.0001) %MON dynstat_salt_mean            =   3.4391224369887E+01
(PID.TID 0000.0001) %MON dynstat_salt_sd              =   2.3963356494923E-02
(PID.TID 0000.0001) %MON dynstat_salt_del2            =   3.3406535147719E-06
(PID.TID 0000.0001) %MON advcfl_uvel_max              =   3.8439607839236E-03
(PID.TID 0000.0001) %MON advcfl_vvel_max              =   6.7549358607688E-03
(PID.TID 0000.0001) %MON advcfl_wvel_max              =   7.2804075258010E-03
(PID.TID 0000.0001) %MON advcfl_W_hf_max              =   7.2804075258010E-03
(PID.TID 0000.0001) %MON pe_b_mean                    =  -8.0998231527698E-08
(PID.TID 0000.0001) %MON ke_max                       =   8.6566482318131E-04
(PID.TID 0000.0001) %MON ke_mean                      =   4.6807103423786E-06
(PID.TID 0000.0001) %MON ke_vol                       =   2.9239970672193E+14
(PID.TID 0000.0001) %MON vort_r_min                   =  -2.3588337810829E-06
(PID.TID 0000.0001) %MON vort_r_max                   =   4.4449485133673E-06
(PID.TID 0000.0001) %MON vort_a_mean                  =  -1.4007161712245E-04
(PID.TID 0000.0001) %MON vort_a_sd                    =   1.7878635619331E-06
(PID.TID 0000.0001) %MON vort_p_mean                  =  -1.5023175528115E-04
(PID.TID 0000.0001) %MON vort_p_sd                    =   7.5271346437548E-05
(PID.TID 0000.0001) %MON surfExpan_theta_mean         =   6.1453464466809E-13
(PID.TID 0000.0001) %MON surfExpan_salt_mean          =   5.5775218199177E-12
(PID.TID 0000.0001) // =======================================================
(PID.TID 0000.0001) // End MONITOR dynamic field statistics
(PID.TID 0000.0001) // =======================================================
 cg2d: Sum(rhs),rhsMax =   7.13017318798581E-13  5.87104338533724E-02
(PID.TID 0000.0001)      cg2d_init_res =   3.66496401125472E-02
(PID.TID 0000.0001)      cg2d_iters(min,last) =      -1     192
(PID.TID 0000.0001)      cg2d_last_res =   9.92324611452676E-14
(PID.TID 0000.0001) // =======================================================
(PID.TID 0000.0001) // Begin MONITOR dynamic field statistics
(PID.TID 0000.0001) // =======================================================
(PID.TID 0000.0001) %MON time_tsnumber                =                  8650
(PID.TID 0000.0001) %MON time_secondsf                =   1.5570000000000E+07
(PID.TID 0000.0001) %MON dynstat_eta_max              =   1.1021454712547E-02
(PID.TID 0000.0001) %MON dynstat_eta_min              =  -3.3332456547891E-03
(PID.TID 0000.0001) %MON dynstat_eta_mean             =  -2.8017176810613E-16
(PID.TID 0000.0001) %MON dynstat_eta_sd               =   9.6456333896111E-04
(PID.TID 0000.0001) %MON dynstat_eta_del2             =   8.2953241692427E-06
(PID.TID 0000.0001) %MON dynstat_uvel_max             =   7.0413736605805E-03
(PID.TID 0000.0001) %MON dynstat_uvel_min             =  -1.2809230687888E-02
(PID.TID 0000.0001) %MON dynstat_uvel_mean            =   3.0524641281932E-05
(PID.TID 0000.0001) %MON dynstat_uvel_sd              =   1.2668983639486E-03
(PID.TID 0000.0001) %MON dynstat_uvel_del2            =   1.6084054681624E-06
(PID.TID 0000.0001) %MON dynstat_vvel_max             =   4.1777844040807E-02
(PID.TID 0000.0001) %MON dynstat_vvel_min             =  -1.3328115016572E-02
(PID.TID 0000.0001) %MON dynstat_vvel_mean            =  -1.0402473635896E-06
(PID.TID 0000.0001) %MON dynstat_vvel_sd              =   2.8124083663640E-03
(PID.TID 0000.0001) %MON dynstat_vvel_del2            =   4.9316692628831E-06
(PID.TID 0000.0001) %MON dynstat_wvel_max             =   4.9649902497498E-05
(PID.TID 0000.0001) %MON dynstat_wvel_min             =  -1.2152300653548E-04
(PID.TID 0000.0001) %MON dynstat_wvel_mean            =  -9.9777921615002E-10
(PID.TID 0000.0001) %MON dynstat_wvel_sd              =   4.3978391432557E-06
(PID.TID 0000.0001) %MON dynstat_wvel_del2            =   1.9683330461426E-08
(PID.TID 0000.0001) %MON dynstat_theta_max            =  -1.8909463604005E+00
(PID.TID 0000.0001) %MON dynstat_theta_min            =  -2.0054581815882E+00
(PID.TID 0000.0001) %MON dynstat_theta_mean           =  -1.9143486316494E+00
(PID.TID 0000.0001) %MON dynstat_theta_sd             =   3.1232331084679E-02
(PID.TID 0000.0001) %MON dynstat_theta_del2           =   6.0620025152598E-06
(PID.TID 0000.0001) %MON dynstat_salt_max             =   3.4403731895778E+01
(PID.TID 0000.0001) %MON dynstat_salt_min             =   3.4119632182994E+01
(PID.TID 0000.0001) %MON dynstat_salt_mean            =   3.4391222384619E+01
(PID.TID 0000.0001) %MON dynstat_salt_sd              =   2.3971017805222E-02
(PID.TID 0000.0001) %MON dynstat_salt_del2            =   3.3424632722874E-06
(PID.TID 0000.0001) %MON advcfl_uvel_max              =   3.8113103556560E-03
(PID.TID 0000.0001) %MON advcfl_vvel_max              =   6.7639708842217E-03
(PID.TID 0000.0001) %MON advcfl_wvel_max              =   7.2913803921288E-03
(PID.TID 0000.0001) %MON advcfl_W_hf_max              =   7.2913803921288E-03
(PID.TID 0000.0001) %MON pe_b_mean                    =  -8.5822351316694E-08
(PID.TID 0000.0001) %MON ke_max                       =   8.7076532894369E-04
(PID.TID 0000.0001) %MON ke_mean                      =   4.6949125697128E-06
(PID.TID 0000.0001) %MON ke_vol                       =   2.9239970672193E+14
(PID.TID 0000.0001) %MON vort_r_min                   =  -2.3574925047682E-06
(PID.TID 0000.0001) %MON vort_r_max                   =   4.4308028445080E-06
(PID.TID 0000.0001) %MON vort_a_mean                  =  -1.4007161715840E-04
(PID.TID 0000.0001) %MON vort_a_sd                    =   1.7878606681748E-06
(PID.TID 0000.0001) %MON vort_p_mean                  =  -1.5023175533648E-04
(PID.TID 0000.0001) %MON vort_p_sd                    =   7.5271879939997E-05
(PID.TID 0000.0001) %MON surfExpan_theta_mean         =  -6.4900816768024E-12
(PID.TID 0000.0001) %MON surfExpan_salt_mean          =  -2.1981047692461E-10
(PID.TID 0000.0001) // =======================================================
(PID.TID 0000.0001) // End MONITOR dynamic field statistics
(PID.TID 0000.0001) // =======================================================
(PID.TID 0000.0001) %CHECKPOINT      8650 ckptA
 --> objf_shelfice(bi,bj) =  0.000000000000000D+00
 --> objf_shifwflx(bi,bj) =  0.000000000000000D+00
 --> objf_shelfice(bi,bj) =  0.000000000000000D+00
 --> objf_shifwflx(bi,bj) =  0.000000000000000D+00
 --> objf_shelfice(bi,bj) =  0.000000000000000D+00
 --> objf_shifwflx(bi,bj) =  0.000000000000000D+00
 --> objf_shelfice(bi,bj) =  0.000000000000000D+00
 --> objf_shifwflx(bi,bj) =  0.000000000000000D+00
 --> objf_shelfice(bi,bj) =  0.000000000000000D+00
 --> objf_shifwflx(bi,bj) =  0.000000000000000D+00
 --> objf_shelfice(bi,bj) =  0.000000000000000D+00
 --> objf_shifwflx(bi,bj) =  0.000000000000000D+00
 --> objf_shelfice(bi,bj) =  0.000000000000000D+00
 --> objf_shifwflx(bi,bj) =  0.000000000000000D+00
 --> objf_shelfice(bi,bj) =  0.000000000000000D+00
 --> objf_shifwflx(bi,bj) =  0.000000000000000D+00
 ph-1 in thsice_cost_final
 ph-3 in thsice_cost_final
 --> objf_test(bi,bj)   =  0.272349416599087D+05
 --> objf_tracer(bi,bj) =  0.000000000000000D+00
 --> objf_atl(bi,bj)    =  0.000000000000000D+00
 --> objf_test(bi,bj)   =  0.280685772364742D+05
 --> objf_tracer(bi,bj) =  0.000000000000000D+00
 --> objf_atl(bi,bj)    =  0.000000000000000D+00
 --> objf_test(bi,bj)   =  0.489344114047526D+05
 --> objf_tracer(bi,bj) =  0.000000000000000D+00
 --> objf_atl(bi,bj)    =  0.000000000000000D+00
 --> objf_test(bi,bj)   =  0.505652022126410D+05
 --> objf_tracer(bi,bj) =  0.000000000000000D+00
 --> objf_atl(bi,bj)    =  0.000000000000000D+00
 --> objf_test(bi,bj)   =  0.526343617737084D+05
 --> objf_tracer(bi,bj) =  0.000000000000000D+00
 --> objf_atl(bi,bj)    =  0.000000000000000D+00
 --> objf_test(bi,bj)   =  0.548257487504661D+05
 --> objf_tracer(bi,bj) =  0.000000000000000D+00
 --> objf_atl(bi,bj)    =  0.000000000000000D+00
 --> objf_test(bi,bj)   =  0.526324781251397D+05
 --> objf_tracer(bi,bj) =  0.000000000000000D+00
 --> objf_atl(bi,bj)    =  0.000000000000000D+00
 --> objf_test(bi,bj)   =  0.548254981144294D+05
 --> objf_tracer(bi,bj) =  0.000000000000000D+00
 --> objf_atl(bi,bj)    =  0.000000000000000D+00
  local fc =  0.369721219277520D+06
 global fc =  0.369721219277520D+06
(PID.TID 0000.0001) SOLVE_FOR_PRESSURE: putPmEinXvector =    F
 cg2d: Sum(rhs),rhsMax =   7.01383395806943E-13  5.97849185311197E-02
 cg2d: Sum(rhs),rhsMax =   7.18772263930134E-13  5.85466144272657E-02
 cg2d: Sum(rhs),rhsMax =   7.17037540454157E-13  5.84695845118351E-02
 cg2d: Sum(rhs),rhsMax =   7.21547821491697E-13  5.84526906484990E-02
 cg2d: Sum(rhs),rhsMax =   7.17037540454157E-13  5.84006602843750E-02
 cg2d: Sum(rhs),rhsMax =   7.19632686774219E-13  5.83965554933797E-02
 cg2d: Sum(rhs),rhsMax =   7.18175519054398E-13  5.84579952492577E-02
 cg2d: Sum(rhs),rhsMax =   7.18931858489924E-13  5.85308740184290E-02
 cg2d: Sum(rhs),rhsMax =   7.19332579612875E-13  5.86156097767971E-02
 cg2d: Sum(rhs),rhsMax =   7.13017318798581E-13  5.87104338533724E-02
(PID.TID 0000.0001) Did not write pickup because writePickupAtEnd = FALSE
 cg2d: Sum(rhs),rhsMax =   7.19332579612875E-13  5.86156097767971E-02
 cg2d: Sum(rhs),rhsMax =   7.13017318798581E-13  5.87104338533724E-02
(PID.TID 0000.0001) Did not write pickup because writePickupAtEnd = FALSE
(PID.TID 0000.0001) Did not write pickup because writePickupAtEnd = FALSE
(PID.TID 0000.0001) // =======================================================
(PID.TID 0000.0001) // Begin MONITOR dynamic field statistics
(PID.TID 0000.0001) // =======================================================
(PID.TID 0000.0001) %MON ad_time_tsnumber             =                  8650
(PID.TID 0000.0001) %MON ad_time_secondsf             =   1.5570000000000E+07
(PID.TID 0000.0001) %MON ad_dynstat_adeta_max         =   0.0000000000000E+00
(PID.TID 0000.0001) %MON ad_dynstat_adeta_min         =   0.0000000000000E+00
(PID.TID 0000.0001) %MON ad_dynstat_adeta_mean        =   0.0000000000000E+00
(PID.TID 0000.0001) %MON ad_dynstat_adeta_sd          =   0.0000000000000E+00
(PID.TID 0000.0001) %MON ad_dynstat_adeta_del2        =   0.0000000000000E+00
(PID.TID 0000.0001) %MON ad_dynstat_aduvel_max        =   0.0000000000000E+00
(PID.TID 0000.0001) %MON ad_dynstat_aduvel_min        =   0.0000000000000E+00
(PID.TID 0000.0001) %MON ad_dynstat_aduvel_mean       =   0.0000000000000E+00
(PID.TID 0000.0001) %MON ad_dynstat_aduvel_sd         =   0.0000000000000E+00
(PID.TID 0000.0001) %MON ad_dynstat_aduvel_del2       =   0.0000000000000E+00
(PID.TID 0000.0001) %MON ad_dynstat_advvel_max        =   0.0000000000000E+00
(PID.TID 0000.0001) %MON ad_dynstat_advvel_min        =   0.0000000000000E+00
(PID.TID 0000.0001) %MON ad_dynstat_advvel_mean       =   0.0000000000000E+00
(PID.TID 0000.0001) %MON ad_dynstat_advvel_sd         =   0.0000000000000E+00
(PID.TID 0000.0001) %MON ad_dynstat_advvel_del2       =   0.0000000000000E+00
(PID.TID 0000.0001) %MON ad_dynstat_adwvel_max        =   0.0000000000000E+00
(PID.TID 0000.0001) %MON ad_dynstat_adwvel_min        =   0.0000000000000E+00
(PID.TID 0000.0001) %MON ad_dynstat_adwvel_mean       =   0.0000000000000E+00
(PID.TID 0000.0001) %MON ad_dynstat_adwvel_sd         =   0.0000000000000E+00
(PID.TID 0000.0001) %MON ad_dynstat_adwvel_del2       =   0.0000000000000E+00
(PID.TID 0000.0001) %MON ad_dynstat_adtheta_max       =  -3.7818927208010E+00
(PID.TID 0000.0001) %MON ad_dynstat_adtheta_min       =  -4.0109163631764E+00
(PID.TID 0000.0001) %MON ad_dynstat_adtheta_mean      =  -3.8286972632988E+00
(PID.TID 0000.0001) %MON ad_dynstat_adtheta_sd        =   6.2464662169357E-02
(PID.TID 0000.0001) %MON ad_dynstat_adtheta_del2      =   3.9055724281381E-03
(PID.TID 0000.0001) %MON ad_dynstat_adsalt_max        =   0.0000000000000E+00
(PID.TID 0000.0001) %MON ad_dynstat_adsalt_min        =   0.0000000000000E+00
(PID.TID 0000.0001) %MON ad_dynstat_adsalt_mean       =   0.0000000000000E+00
(PID.TID 0000.0001) %MON ad_dynstat_adsalt_sd         =   0.0000000000000E+00
(PID.TID 0000.0001) %MON ad_dynstat_adsalt_del2       =   0.0000000000000E+00
(PID.TID 0000.0001) // =======================================================
(PID.TID 0000.0001) // End MONITOR dynamic field statistics
(PID.TID 0000.0001) // =======================================================
 cg2d: Sum(rhs),rhsMax =  -5.37347943918576E-14  2.27654483338240E-05
(PID.TID 0000.0001) // =======================================================
(PID.TID 0000.0001) // Begin MONITOR dynamic field statistics
(PID.TID 0000.0001) // =======================================================
(PID.TID 0000.0001) %MON ad_time_tsnumber             =                  8649
(PID.TID 0000.0001) %MON ad_time_secondsf             =   1.5568200000000E+07
(PID.TID 0000.0001) %MON ad_dynstat_adeta_max         =   9.7928040206048E-03
(PID.TID 0000.0001) %MON ad_dynstat_adeta_min         =  -1.3010243470033E-02
(PID.TID 0000.0001) %MON ad_dynstat_adeta_mean        =  -1.2854058807007E-07
(PID.TID 0000.0001) %MON ad_dynstat_adeta_sd          =   1.6263675099766E-03
(PID.TID 0000.0001) %MON ad_dynstat_adeta_del2        =   2.4574672634539E-05
(PID.TID 0000.0001) %MON ad_dynstat_aduvel_max        =   3.9587093766126E-04
(PID.TID 0000.0001) %MON ad_dynstat_aduvel_min        =  -6.1206361332713E-04
(PID.TID 0000.0001) %MON ad_dynstat_aduvel_mean       =  -1.0092589702389E-06
(PID.TID 0000.0001) %MON ad_dynstat_aduvel_sd         =   9.0571976782505E-06
(PID.TID 0000.0001) %MON ad_dynstat_aduvel_del2       =   3.1679244561417E-08
(PID.TID 0000.0001) %MON ad_dynstat_advvel_max        =   8.7395896860633E-04
(PID.TID 0000.0001) %MON ad_dynstat_advvel_min        =  -8.3559306309308E-04
(PID.TID 0000.0001) %MON ad_dynstat_advvel_mean       =   4.1096442738892E-04
(PID.TID 0000.0001) %MON ad_dynstat_advvel_sd         =   2.2927945832019E-04
(PID.TID 0000.0001) %MON ad_dynstat_advvel_del2       =   5.3736951958125E-07
(PID.TID 0000.0001) %MON ad_dynstat_adwvel_max        =   8.4277746167081E-04
(PID.TID 0000.0001) %MON ad_dynstat_adwvel_min        =  -2.5059115846438E-04
(PID.TID 0000.0001) %MON ad_dynstat_adwvel_mean       =  -5.3097218156864E-07
(PID.TID 0000.0001) %MON ad_dynstat_adwvel_sd         =   6.5667704763840E-06
(PID.TID 0000.0001) %MON ad_dynstat_adwvel_del2       =   3.8494665342447E-08
(PID.TID 0000.0001) %MON ad_dynstat_adtheta_max       =  -8.8769190997742E-01
(PID.TID 0000.0001) %MON ad_dynstat_adtheta_min       =  -7.0995306176584E+00
(PID.TID 0000.0001) %MON ad_dynstat_adtheta_mean      =  -3.8286259788697E+00
(PID.TID 0000.0001) %MON ad_dynstat_adtheta_sd        =   7.1787522082113E-02
(PID.TID 0000.0001) %MON ad_dynstat_adtheta_del2      =   3.9155684482736E-03
(PID.TID 0000.0001) %MON ad_dynstat_adsalt_max        =   8.0700858482265E-04
(PID.TID 0000.0001) %MON ad_dynstat_adsalt_min        =  -2.0068738438291E-04
(PID.TID 0000.0001) %MON ad_dynstat_adsalt_mean       =   2.0999804075911E-05
(PID.TID 0000.0001) %MON ad_dynstat_adsalt_sd         =   1.0004736329750E-04
(PID.TID 0000.0001) %MON ad_dynstat_adsalt_del2       =   2.1012170122677E-07
(PID.TID 0000.0001) // =======================================================
(PID.TID 0000.0001) // End MONITOR dynamic field statistics
(PID.TID 0000.0001) // =======================================================
 cg2d: Sum(rhs),rhsMax =  -3.16413562018170E-15  4.65225203356445E-04
 cg2d: Sum(rhs),rhsMax =   7.18175519054398E-13  5.84579952492577E-02
 cg2d: Sum(rhs),rhsMax =   7.18931858489924E-13  5.85308740184290E-02
(PID.TID 0000.0001) // =======================================================
(PID.TID 0000.0001) // Begin MONITOR dynamic field statistics
(PID.TID 0000.0001) // =======================================================
(PID.TID 0000.0001) %MON ad_time_tsnumber             =                  8648
(PID.TID 0000.0001) %MON ad_time_secondsf             =   1.5566400000000E+07
(PID.TID 0000.0001) %MON ad_dynstat_adeta_max         =   1.8546559733294E-02
(PID.TID 0000.0001) %MON ad_dynstat_adeta_min         =  -2.4764973381687E-02
(PID.TID 0000.0001) %MON ad_dynstat_adeta_mean        =  -9.4192949390983E-06
(PID.TID 0000.0001) %MON ad_dynstat_adeta_sd          =   3.0411895911518E-03
(PID.TID 0000.0001) %MON ad_dynstat_adeta_del2        =   4.5860063017182E-05
(PID.TID 0000.0001) %MON ad_dynstat_aduvel_max        =   4.8768262650229E-04
(PID.TID 0000.0001) %MON ad_dynstat_aduvel_min        =  -9.1245257267848E-04
(PID.TID 0000.0001) %MON ad_dynstat_aduvel_mean       =  -9.6805673334518E-05
(PID.TID 0000.0001) %MON ad_dynstat_aduvel_sd         =   4.7321405634329E-05
(PID.TID 0000.0001) %MON ad_dynstat_aduvel_del2       =   1.1845382860788E-07
(PID.TID 0000.0001) %MON ad_dynstat_advvel_max        =   1.0881693438892E-03
(PID.TID 0000.0001) %MON ad_dynstat_advvel_min        =  -1.3296270387645E-03
(PID.TID 0000.0001) %MON ad_dynstat_advvel_mean       =   4.7454707329062E-04
(PID.TID 0000.0001) %MON ad_dynstat_advvel_sd         =   3.2215989642464E-04
(PID.TID 0000.0001) %MON ad_dynstat_advvel_del2       =   6.6307458301075E-07
(PID.TID 0000.0001) %MON ad_dynstat_adwvel_max        =   8.2010482071272E-04
(PID.TID 0000.0001) %MON ad_dynstat_adwvel_min        =  -2.8680449548546E-04
(PID.TID 0000.0001) %MON ad_dynstat_adwvel_mean       =  -1.1865224550908E-06
(PID.TID 0000.0001) %MON ad_dynstat_adwvel_sd         =   8.9781450455377E-06
(PID.TID 0000.0001) %MON ad_dynstat_adwvel_del2       =   5.9858838012804E-08
(PID.TID 0000.0001) %MON ad_dynstat_adtheta_max       =  -8.8658474046349E-01
(PID.TID 0000.0001) %MON ad_dynstat_adtheta_min       =  -7.0912359316992E+00
(PID.TID 0000.0001) %MON ad_dynstat_adtheta_mean      =  -3.8283897270302E+00
(PID.TID 0000.0001) %MON ad_dynstat_adtheta_sd        =   7.1194955944077E-02
(PID.TID 0000.0001) %MON ad_dynstat_adtheta_del2      =   3.9151953404804E-03
(PID.TID 0000.0001) %MON ad_dynstat_adsalt_max        =   1.3170990181974E-03
(PID.TID 0000.0001) %MON ad_dynstat_adsalt_min        =  -3.8405836326161E-04
(PID.TID 0000.0001) %MON ad_dynstat_adsalt_mean       =   3.1830624431263E-05
(PID.TID 0000.0001) %MON ad_dynstat_adsalt_sd         =   1.6418793186243E-04
(PID.TID 0000.0001) %MON ad_dynstat_adsalt_del2       =   3.4429259456506E-07
(PID.TID 0000.0001) // =======================================================
(PID.TID 0000.0001) // End MONITOR dynamic field statistics
(PID.TID 0000.0001) // =======================================================
 cg2d: Sum(rhs),rhsMax =   1.23512311489549E-15  8.95997220224618E-04
(PID.TID 0000.0001) // =======================================================
(PID.TID 0000.0001) // Begin MONITOR dynamic field statistics
(PID.TID 0000.0001) // =======================================================
(PID.TID 0000.0001) %MON ad_time_tsnumber             =                  8647
(PID.TID 0000.0001) %MON ad_time_secondsf             =   1.5564600000000E+07
(PID.TID 0000.0001) %MON ad_dynstat_adeta_max         =   2.5452583205609E-02
(PID.TID 0000.0001) %MON ad_dynstat_adeta_min         =  -3.5050603272788E-02
(PID.TID 0000.0001) %MON ad_dynstat_adeta_mean        =  -2.9332684420068E-05
(PID.TID 0000.0001) %MON ad_dynstat_adeta_sd          =   4.2173473193141E-03
(PID.TID 0000.0001) %MON ad_dynstat_adeta_del2        =   6.3428409023081E-05
(PID.TID 0000.0001) %MON ad_dynstat_aduvel_max        =   5.5965107181081E-04
(PID.TID 0000.0001) %MON ad_dynstat_aduvel_min        =  -1.0572583653275E-03
(PID.TID 0000.0001) %MON ad_dynstat_aduvel_mean       =  -2.3822846551917E-04
(PID.TID 0000.0001) %MON ad_dynstat_aduvel_sd         =   8.9541955202143E-05
(PID.TID 0000.0001) %MON ad_dynstat_aduvel_del2       =   2.7987678842517E-07
(PID.TID 0000.0001) %MON ad_dynstat_advvel_max        =   1.1030030547957E-03
(PID.TID 0000.0001) %MON ad_dynstat_advvel_min        =  -1.5990944924474E-03
(PID.TID 0000.0001) %MON ad_dynstat_advvel_mean       =   4.1520444661446E-04
(PID.TID 0000.0001) %MON ad_dynstat_advvel_sd         =   3.5917828525488E-04
(PID.TID 0000.0001) %MON ad_dynstat_advvel_del2       =   6.3712796061405E-07
(PID.TID 0000.0001) %MON ad_dynstat_adwvel_max        =   8.0793152814173E-04
(PID.TID 0000.0001) %MON ad_dynstat_adwvel_min        =  -3.8709992604912E-04
(PID.TID 0000.0001) %MON ad_dynstat_adwvel_mean       =  -2.4811161538268E-06
(PID.TID 0000.0001) %MON ad_dynstat_adwvel_sd         =   1.7168608096859E-05
(PID.TID 0000.0001) %MON ad_dynstat_adwvel_del2       =   1.0811714406830E-07
(PID.TID 0000.0001) %MON ad_dynstat_adtheta_max       =  -8.8509416357569E-01
(PID.TID 0000.0001) %MON ad_dynstat_adtheta_min       =  -7.0832267220396E+00
(PID.TID 0000.0001) %MON ad_dynstat_adtheta_mean      =  -3.8281533276879E+00
(PID.TID 0000.0001) %MON ad_dynstat_adtheta_sd        =   7.0595570112536E-02
(PID.TID 0000.0001) %MON ad_dynstat_adtheta_del2      =   3.9147996245848E-03
(PID.TID 0000.0001) %MON ad_dynstat_adsalt_max        =   1.8425349858574E-03
(PID.TID 0000.0001) %MON ad_dynstat_adsalt_min        =  -5.6362769153359E-04
(PID.TID 0000.0001) %MON ad_dynstat_adsalt_mean       =   4.2375406207306E-05
(PID.TID 0000.0001) %MON ad_dynstat_adsalt_sd         =   2.2904664141874E-04
(PID.TID 0000.0001) %MON ad_dynstat_adsalt_del2       =   4.8225946898042E-07
(PID.TID 0000.0001) // =======================================================
(PID.TID 0000.0001) // End MONITOR dynamic field statistics
(PID.TID 0000.0001) // =======================================================
 cg2d: Sum(rhs),rhsMax =   1.54043444666740E-15  1.27930818821579E-03
 cg2d: Sum(rhs),rhsMax =   7.17037540454157E-13  5.84006602843750E-02
 cg2d: Sum(rhs),rhsMax =   7.19632686774219E-13  5.83965554933797E-02
(PID.TID 0000.0001) // =======================================================
(PID.TID 0000.0001) // Begin MONITOR dynamic field statistics
(PID.TID 0000.0001) // =======================================================
(PID.TID 0000.0001) %MON ad_time_tsnumber             =                  8646
(PID.TID 0000.0001) %MON ad_time_secondsf             =   1.5562800000000E+07
(PID.TID 0000.0001) %MON ad_dynstat_adeta_max         =   2.8635944826130E-02
(PID.TID 0000.0001) %MON ad_dynstat_adeta_min         =  -4.1542807181537E-02
(PID.TID 0000.0001) %MON ad_dynstat_adeta_mean        =  -5.7891440702019E-05
(PID.TID 0000.0001) %MON ad_dynstat_adeta_sd          =   4.9278839625217E-03
(PID.TID 0000.0001) %MON ad_dynstat_adeta_del2        =   7.3929318904915E-05
(PID.TID 0000.0001) %MON ad_dynstat_aduvel_max        =   5.7880516548921E-04
(PID.TID 0000.0001) %MON ad_dynstat_aduvel_min        =  -1.0142225511654E-03
(PID.TID 0000.0001) %MON ad_dynstat_aduvel_mean       =  -3.7000884498100E-04
(PID.TID 0000.0001) %MON ad_dynstat_aduvel_sd         =   1.2608961152322E-04
(PID.TID 0000.0001) %MON ad_dynstat_aduvel_del2       =   4.3647144351443E-07
(PID.TID 0000.0001) %MON ad_dynstat_advvel_max        =   1.0064563642666E-03
(PID.TID 0000.0001) %MON ad_dynstat_advvel_min        =  -1.6636499149250E-03
(PID.TID 0000.0001) %MON ad_dynstat_advvel_mean       =   2.5244678904994E-04
(PID.TID 0000.0001) %MON ad_dynstat_advvel_sd         =   3.5487900751422E-04
(PID.TID 0000.0001) %MON ad_dynstat_advvel_del2       =   5.0864056586315E-07
(PID.TID 0000.0001) %MON ad_dynstat_adwvel_max        =   6.7511031097757E-04
(PID.TID 0000.0001) %MON ad_dynstat_adwvel_min        =  -4.6984678592373E-04
(PID.TID 0000.0001) %MON ad_dynstat_adwvel_mean       =  -3.8477934749482E-06
(PID.TID 0000.0001) %MON ad_dynstat_adwvel_sd         =   2.6709547313418E-05
(PID.TID 0000.0001) %MON ad_dynstat_adwvel_del2       =   1.5546157700214E-07
(PID.TID 0000.0001) %MON ad_dynstat_adtheta_max       =  -8.8360588013711E-01
(PID.TID 0000.0001) %MON ad_dynstat_adtheta_min       =  -7.0752001142408E+00
(PID.TID 0000.0001) %MON ad_dynstat_adtheta_mean      =  -3.8279204985640E+00
(PID.TID 0000.0001) %MON ad_dynstat_adtheta_sd        =   6.9993523663056E-02
(PID.TID 0000.0001) %MON ad_dynstat_adtheta_del2      =   3.9146531577834E-03
(PID.TID 0000.0001) %MON ad_dynstat_adsalt_max        =   2.3723132744615E-03
(PID.TID 0000.0001) %MON ad_dynstat_adsalt_min        =  -7.2818463483400E-04
(PID.TID 0000.0001) %MON ad_dynstat_adsalt_mean       =   5.3193506839686E-05
(PID.TID 0000.0001) %MON ad_dynstat_adsalt_sd         =   2.9422247833516E-04
(PID.TID 0000.0001) %MON ad_dynstat_adsalt_del2       =   6.2094038891625E-07
(PID.TID 0000.0001) // =======================================================
(PID.TID 0000.0001) // End MONITOR dynamic field statistics
(PID.TID 0000.0001) // =======================================================
 cg2d: Sum(rhs),rhsMax =  -6.93889390390723E-16  1.52945827786714E-03
(PID.TID 0000.0001) // =======================================================
(PID.TID 0000.0001) // Begin MONITOR dynamic field statistics
(PID.TID 0000.0001) // =======================================================
(PID.TID 0000.0001) %MON ad_time_tsnumber             =                  8645
(PID.TID 0000.0001) %MON ad_time_secondsf             =   1.5561000000000E+07
(PID.TID 0000.0001) %MON ad_dynstat_adeta_max         =   2.7107840898197E-02
(PID.TID 0000.0001) %MON ad_dynstat_adeta_min         =  -4.2879172082607E-02
(PID.TID 0000.0001) %MON ad_dynstat_adeta_mean        =  -9.0389235861832E-05
(PID.TID 0000.0001) %MON ad_dynstat_adeta_sd          =   5.0727859131330E-03
(PID.TID 0000.0001) %MON ad_dynstat_adeta_del2        =   7.5995733787305E-05
(PID.TID 0000.0001) %MON ad_dynstat_aduvel_max        =   5.4975875677349E-04
(PID.TID 0000.0001) %MON ad_dynstat_aduvel_min        =  -7.9762560061716E-04
(PID.TID 0000.0001) %MON ad_dynstat_aduvel_mean       =  -4.4337951991113E-04
(PID.TID 0000.0001) %MON ad_dynstat_aduvel_sd         =   1.4580941238598E-04
(PID.TID 0000.0001) %MON ad_dynstat_aduvel_del2       =   5.2392410861705E-07
(PID.TID 0000.0001) %MON ad_dynstat_advvel_max        =   8.2220668105555E-04
(PID.TID 0000.0001) %MON ad_dynstat_advvel_min        =  -1.5460296923512E-03
(PID.TID 0000.0001) %MON ad_dynstat_advvel_mean       =   1.8084467132890E-05
(PID.TID 0000.0001) %MON ad_dynstat_advvel_sd         =   3.2926318530267E-04
(PID.TID 0000.0001) %MON ad_dynstat_advvel_del2       =   3.8490011754032E-07
(PID.TID 0000.0001) %MON ad_dynstat_adwvel_max        =   4.4918070791327E-04
(PID.TID 0000.0001) %MON ad_dynstat_adwvel_min        =  -5.3411414565217E-04
(PID.TID 0000.0001) %MON ad_dynstat_adwvel_mean       =  -5.0533546288292E-06
(PID.TID 0000.0001) %MON ad_dynstat_adwvel_sd         =   3.5516806665971E-05
(PID.TID 0000.0001) %MON ad_dynstat_adwvel_del2       =   1.9313686189269E-07
(PID.TID 0000.0001) %MON ad_dynstat_adtheta_max       =  -7.1461298722131E-01
(PID.TID 0000.0001) %MON ad_dynstat_adtheta_min       =  -7.0607376463653E+00
(PID.TID 0000.0001) %MON ad_dynstat_adtheta_mean      =  -3.8277078528660E+00
(PID.TID 0000.0001) %MON ad_dynstat_adtheta_sd        =   6.9630655819780E-02
(PID.TID 0000.0001) %MON ad_dynstat_adtheta_del2      =   3.9144700688685E-03
(PID.TID 0000.0001) %MON ad_dynstat_adsalt_max        =   2.9009645218580E-03
(PID.TID 0000.0001) %MON ad_dynstat_adsalt_min        =  -8.8900560759706E-04
(PID.TID 0000.0001) %MON ad_dynstat_adsalt_mean       =   6.4720755946874E-05
(PID.TID 0000.0001) %MON ad_dynstat_adsalt_sd         =   3.5948971866197E-04
(PID.TID 0000.0001) %MON ad_dynstat_adsalt_del2       =   7.5722013699448E-07
(PID.TID 0000.0001) // =======================================================
(PID.TID 0000.0001) // End MONITOR dynamic field statistics
(PID.TID 0000.0001) // =======================================================
 cg2d: Sum(rhs),rhsMax =   8.46545056276682E-16  1.59673242374462E-03
 cg2d: Sum(rhs),rhsMax =   7.17037540454157E-13  5.84695845118351E-02
 cg2d: Sum(rhs),rhsMax =   7.21547821491697E-13  5.84526906484990E-02
(PID.TID 0000.0001) // =======================================================
(PID.TID 0000.0001) // Begin MONITOR dynamic field statistics
(PID.TID 0000.0001) // =======================================================
(PID.TID 0000.0001) %MON ad_time_tsnumber             =                  8644
(PID.TID 0000.0001) %MON ad_time_secondsf             =   1.5559200000000E+07
(PID.TID 0000.0001) %MON ad_dynstat_adeta_max         =   2.0802399128846E-02
(PID.TID 0000.0001) %MON ad_dynstat_adeta_min         =  -3.8831954727890E-02
(PID.TID 0000.0001) %MON ad_dynstat_adeta_mean        =  -1.2114928575046E-04
(PID.TID 0000.0001) %MON ad_dynstat_adeta_sd          =   4.7252524111485E-03
(PID.TID 0000.0001) %MON ad_dynstat_adeta_del2        =   7.0959948707086E-05
(PID.TID 0000.0001) %MON ad_dynstat_aduvel_max        =   4.8354750311090E-04
(PID.TID 0000.0001) %MON ad_dynstat_aduvel_min        =  -7.2076537060851E-04
(PID.TID 0000.0001) %MON ad_dynstat_aduvel_mean       =  -4.3200963234866E-04
(PID.TID 0000.0001) %MON ad_dynstat_aduvel_sd         =   1.4564719615292E-04
(PID.TID 0000.0001) %MON ad_dynstat_aduvel_del2       =   5.1124929142871E-07
(PID.TID 0000.0001) %MON ad_dynstat_advvel_max        =   5.6949782632517E-04
(PID.TID 0000.0001) %MON ad_dynstat_advvel_min        =  -1.5251221433932E-03
(PID.TID 0000.0001) %MON ad_dynstat_advvel_mean       =  -2.4738670781157E-04
(PID.TID 0000.0001) %MON ad_dynstat_advvel_sd         =   3.0009516381336E-04
(PID.TID 0000.0001) %MON ad_dynstat_advvel_del2       =   4.3883581899537E-07
(PID.TID 0000.0001) %MON ad_dynstat_adwvel_max        =   3.8201902958126E-04
(PID.TID 0000.0001) %MON ad_dynstat_adwvel_min        =  -6.7660010235267E-04
(PID.TID 0000.0001) %MON ad_dynstat_adwvel_mean       =  -6.0318411529225E-06
(PID.TID 0000.0001) %MON ad_dynstat_adwvel_sd         =   4.3005203111311E-05
(PID.TID 0000.0001) %MON ad_dynstat_adwvel_del2       =   2.2083631485452E-07
(PID.TID 0000.0001) %MON ad_dynstat_adtheta_max       =  -6.6138925749185E-01
(PID.TID 0000.0001) %MON ad_dynstat_adtheta_min       =  -7.0323391543642E+00
(PID.TID 0000.0001) %MON ad_dynstat_adtheta_mean      =  -3.8274812994767E+00
(PID.TID 0000.0001) %MON ad_dynstat_adtheta_sd        =   6.8595064274860E-02
(PID.TID 0000.0001) %MON ad_dynstat_adtheta_del2      =   3.9136845790816E-03
(PID.TID 0000.0001) %MON ad_dynstat_adsalt_max        =   3.4261751328891E-03
(PID.TID 0000.0001) %MON ad_dynstat_adsalt_min        =  -1.0728072708512E-03
(PID.TID 0000.0001) %MON ad_dynstat_adsalt_mean       =   7.7260698821574E-05
(PID.TID 0000.0001) %MON ad_dynstat_adsalt_sd         =   4.2474968526297E-04
(PID.TID 0000.0001) %MON ad_dynstat_adsalt_del2       =   8.9101632016429E-07
(PID.TID 0000.0001) // =======================================================
(PID.TID 0000.0001) // End MONITOR dynamic field statistics
(PID.TID 0000.0001) // =======================================================
 cg2d: Sum(rhs),rhsMax =  -2.87270207621759E-15  1.47674994965596E-03
(PID.TID 0000.0001) // =======================================================
(PID.TID 0000.0001) // Begin MONITOR dynamic field statistics
(PID.TID 0000.0001) // =======================================================
(PID.TID 0000.0001) %MON ad_time_tsnumber             =                  8643
(PID.TID 0000.0001) %MON ad_time_secondsf             =   1.5557400000000E+07
(PID.TID 0000.0001) %MON ad_dynstat_adeta_max         =   1.0374484594410E-02
(PID.TID 0000.0001) %MON ad_dynstat_adeta_min         =  -2.9982020930525E-02
(PID.TID 0000.0001) %MON ad_dynstat_adeta_mean        =  -1.4492862022338E-04
(PID.TID 0000.0001) %MON ad_dynstat_adeta_sd          =   4.2137968031127E-03
(PID.TID 0000.0001) %MON ad_dynstat_adeta_del2        =   6.4082652759155E-05
(PID.TID 0000.0001) %MON ad_dynstat_aduvel_max        =   4.6687385305547E-04
(PID.TID 0000.0001) %MON ad_dynstat_aduvel_min        =  -5.9342695824211E-04
(PID.TID 0000.0001) %MON ad_dynstat_aduvel_mean       =  -3.3378774310277E-04
(PID.TID 0000.0001) %MON ad_dynstat_aduvel_sd         =   1.3246896275736E-04
(PID.TID 0000.0001) %MON ad_dynstat_aduvel_del2       =   4.0039105951582E-07
(PID.TID 0000.0001) %MON ad_dynstat_advvel_max        =   3.1375375942739E-04
(PID.TID 0000.0001) %MON ad_dynstat_advvel_min        =  -1.5258008651620E-03
(PID.TID 0000.0001) %MON ad_dynstat_advvel_mean       =  -5.0052613372287E-04
(PID.TID 0000.0001) %MON ad_dynstat_advvel_sd         =   2.7861078514870E-04
(PID.TID 0000.0001) %MON ad_dynstat_advvel_del2       =   6.3786225604685E-07
(PID.TID 0000.0001) %MON ad_dynstat_adwvel_max        =   4.1589141370575E-04
(PID.TID 0000.0001) %MON ad_dynstat_adwvel_min        =  -8.0659751925834E-04
(PID.TID 0000.0001) %MON ad_dynstat_adwvel_mean       =  -6.8075942754655E-06
(PID.TID 0000.0001) %MON ad_dynstat_adwvel_sd         =   4.9181478344953E-05
(PID.TID 0000.0001) %MON ad_dynstat_adwvel_del2       =   2.4141758463004E-07
(PID.TID 0000.0001) %MON ad_dynstat_adtheta_max       =  -6.4489368213309E-01
(PID.TID 0000.0001) %MON ad_dynstat_adtheta_min       =  -7.0204999651012E+00
(PID.TID 0000.0001) %MON ad_dynstat_adtheta_mean      =  -3.8272999276545E+00
(PID.TID 0000.0001) %MON ad_dynstat_adtheta_sd        =   6.9282483383580E-02
(PID.TID 0000.0001) %MON ad_dynstat_adtheta_del2      =   3.9131464584677E-03
(PID.TID 0000.0001) %MON ad_dynstat_adsalt_max        =   3.9466894855138E-03
(PID.TID 0000.0001) %MON ad_dynstat_adsalt_min        =  -1.2921588223752E-03
(PID.TID 0000.0001) %MON ad_dynstat_adsalt_mean       =   9.0974930589318E-05
(PID.TID 0000.0001) %MON ad_dynstat_adsalt_sd         =   4.9010393409546E-04
(PID.TID 0000.0001) %MON ad_dynstat_adsalt_del2       =   1.0223057840847E-06
(PID.TID 0000.0001) // =======================================================
(PID.TID 0000.0001) // End MONITOR dynamic field statistics
(PID.TID 0000.0001) // =======================================================
 cg2d: Sum(rhs),rhsMax =  -1.44328993201270E-15  1.18593146360372E-03
(PID.TID 0000.0001) SOLVE_FOR_PRESSURE: putPmEinXvector =    F
 cg2d: Sum(rhs),rhsMax =   7.01383395806943E-13  5.97849185311197E-02
 cg2d: Sum(rhs),rhsMax =   7.18772263930134E-13  5.85466144272657E-02
(PID.TID 0000.0001) // =======================================================
(PID.TID 0000.0001) // Begin MONITOR dynamic field statistics
(PID.TID 0000.0001) // =======================================================
(PID.TID 0000.0001) %MON ad_time_tsnumber             =                  8642
(PID.TID 0000.0001) %MON ad_time_secondsf             =   1.5555600000000E+07
(PID.TID 0000.0001) %MON ad_dynstat_adeta_max         =   1.0351376391320E-02
(PID.TID 0000.0001) %MON ad_dynstat_adeta_min         =  -4.3379649573816E-02
(PID.TID 0000.0001) %MON ad_dynstat_adeta_mean        =  -1.5769500051533E-04
(PID.TID 0000.0001) %MON ad_dynstat_adeta_sd          =   4.1735419893044E-03
(PID.TID 0000.0001) %MON ad_dynstat_adeta_del2        =   6.4867752123148E-05
(PID.TID 0000.0001) %MON ad_dynstat_aduvel_max        =   7.4951988206416E-04
(PID.TID 0000.0001) %MON ad_dynstat_aduvel_min        =  -3.7751841731812E-04
(PID.TID 0000.0001) %MON ad_dynstat_aduvel_mean       =  -1.6415452211636E-04
(PID.TID 0000.0001) %MON ad_dynstat_aduvel_sd         =   1.2021472400412E-04
(PID.TID 0000.0001) %MON ad_dynstat_aduvel_del2       =   2.2128033600380E-07
(PID.TID 0000.0001) %MON ad_dynstat_advvel_max        =   9.0726562381345E-05
(PID.TID 0000.0001) %MON ad_dynstat_advvel_min        =  -1.5415760633249E-03
(PID.TID 0000.0001) %MON ad_dynstat_advvel_mean       =  -7.0163830991761E-04
(PID.TID 0000.0001) %MON ad_dynstat_advvel_sd         =   2.6906750381919E-04
(PID.TID 0000.0001) %MON ad_dynstat_advvel_del2       =   8.3670721235598E-07
(PID.TID 0000.0001) %MON ad_dynstat_adwvel_max        =   4.4510639140615E-04
(PID.TID 0000.0001) %MON ad_dynstat_adwvel_min        =  -9.1498101993501E-04
(PID.TID 0000.0001) %MON ad_dynstat_adwvel_mean       =  -7.4028613847724E-06
(PID.TID 0000.0001) %MON ad_dynstat_adwvel_sd         =   5.4050824403102E-05
(PID.TID 0000.0001) %MON ad_dynstat_adwvel_del2       =   2.5700734555405E-07
(PID.TID 0000.0001) %MON ad_dynstat_adtheta_max       =  -6.3958028210797E-01
(PID.TID 0000.0001) %MON ad_dynstat_adtheta_min       =  -7.0105785525702E+00
(PID.TID 0000.0001) %MON ad_dynstat_adtheta_mean      =  -3.8271432619931E+00
(PID.TID 0000.0001) %MON ad_dynstat_adtheta_sd        =   7.0114664403791E-02
(PID.TID 0000.0001) %MON ad_dynstat_adtheta_del2      =   3.9130412310227E-03
(PID.TID 0000.0001) %MON ad_dynstat_adsalt_max        =   4.4615867265059E-03
(PID.TID 0000.0001) %MON ad_dynstat_adsalt_min        =  -1.5733159290345E-03
(PID.TID 0000.0001) %MON ad_dynstat_adsalt_mean       =   1.0587372160554E-04
(PID.TID 0000.0001) %MON ad_dynstat_adsalt_sd         =   5.5545869311794E-04
(PID.TID 0000.0001) %MON ad_dynstat_adsalt_del2       =   1.1525197028480E-06
(PID.TID 0000.0001) // =======================================================
(PID.TID 0000.0001) // End MONITOR dynamic field statistics
(PID.TID 0000.0001) // =======================================================
 cg2d: Sum(rhs),rhsMax =   3.81639164714898E-16  1.84749839779185E-03
(PID.TID 0000.0001) // =======================================================
(PID.TID 0000.0001) // Begin MONITOR dynamic field statistics
(PID.TID 0000.0001) // =======================================================
(PID.TID 0000.0001) %MON ad_time_tsnumber             =                  8641
(PID.TID 0000.0001) %MON ad_time_secondsf             =   1.5553800000000E+07
(PID.TID 0000.0001) %MON ad_dynstat_adeta_max         =   1.0849539354396E-02
(PID.TID 0000.0001) %MON ad_dynstat_adeta_min         =  -6.1836612632273E-02
(PID.TID 0000.0001) %MON ad_dynstat_adeta_mean        =  -1.5696313077257E-04
(PID.TID 0000.0001) %MON ad_dynstat_adeta_sd          =   5.0585540935877E-03
(PID.TID 0000.0001) %MON ad_dynstat_adeta_del2        =   7.9200267918364E-05
(PID.TID 0000.0001) %MON ad_dynstat_aduvel_max        =   1.4051342270154E-03
(PID.TID 0000.0001) %MON ad_dynstat_aduvel_min        =  -2.8886435205951E-04
(PID.TID 0000.0001) %MON ad_dynstat_aduvel_mean       =   5.1747262276129E-05
(PID.TID 0000.0001) %MON ad_dynstat_aduvel_sd         =   1.2465069832885E-04
(PID.TID 0000.0001) %MON ad_dynstat_aduvel_del2       =   1.3689708560023E-07
(PID.TID 0000.0001) %MON ad_dynstat_advvel_max        =   4.0470041269720E-04
(PID.TID 0000.0001) %MON ad_dynstat_advvel_min        =  -1.4024192233988E-03
(PID.TID 0000.0001) %MON ad_dynstat_advvel_mean       =  -8.2073819222188E-04
(PID.TID 0000.0001) %MON ad_dynstat_advvel_sd         =   2.7103666780934E-04
(PID.TID 0000.0001) %MON ad_dynstat_advvel_del2       =   9.6612249993195E-07
(PID.TID 0000.0001) %MON ad_dynstat_adwvel_max        =   4.6311290323556E-04
(PID.TID 0000.0001) %MON ad_dynstat_adwvel_min        =  -1.0464933877486E-03
(PID.TID 0000.0001) %MON ad_dynstat_adwvel_mean       =  -7.8007361579776E-06
(PID.TID 0000.0001) %MON ad_dynstat_adwvel_sd         =   5.7437257122530E-05
(PID.TID 0000.0001) %MON ad_dynstat_adwvel_del2       =   2.6752524647845E-07
(PID.TID 0000.0001) %MON ad_dynstat_adtheta_max       =  -6.3766921588350E-01
(PID.TID 0000.0001) %MON ad_dynstat_adtheta_min       =  -7.0333591232488E+00
(PID.TID 0000.0001) %MON ad_dynstat_adtheta_mean      =  -3.8270515280990E+00
(PID.TID 0000.0001) %MON ad_dynstat_adtheta_sd        =   7.2398603169839E-02
(PID.TID 0000.0001) %MON ad_dynstat_adtheta_del2      =   3.9171028356836E-03
(PID.TID 0000.0001) %MON ad_dynstat_adsalt_max        =   4.9703463073098E-03
(PID.TID 0000.0001) %MON ad_dynstat_adsalt_min        =  -1.8690392646764E-03
(PID.TID 0000.0001) %MON ad_dynstat_adsalt_mean       =   1.2181689426746E-04
(PID.TID 0000.0001) %MON ad_dynstat_adsalt_sd         =   6.2096448015803E-04
(PID.TID 0000.0001) %MON ad_dynstat_adsalt_del2       =   1.2828344608113E-06
(PID.TID 0000.0001) // =======================================================
(PID.TID 0000.0001) // End MONITOR dynamic field statistics
(PID.TID 0000.0001) // =======================================================
 cg2d: Sum(rhs),rhsMax =  -8.32667268468867E-16  2.52489975485655E-03
(PID.TID 0000.0001)  nRecords = 243 ; filePrec =  64 ; fileIter =      8640
(PID.TID 0000.0001)     nDims =   2 , dims:
(PID.TID 0000.0001)    1:  50   1  50
(PID.TID 0000.0001)    2: 100   1 100
(PID.TID 0000.0001)     nFlds =  11 , nFl3D =   8 , fields:
(PID.TID 0000.0001)  >Uvel    < >Vvel    < >Theta   < >Salt    < >GuNm1   < >GvNm1   < >GtNm1   < >GsNm1   < >EtaN    < >dEtaHdt < >EtaH    <
(PID.TID 0000.0001) missingVal=  1.00000000000000E+00 ; nTimRec =   1 , timeList:
(PID.TID 0000.0001)   1.555200000000E+07
(PID.TID 0000.0001) READ_MFLDS_3D_RL: read field: "Uvel    ", #   1 in fldList, rec=   1
(PID.TID 0000.0001) READ_MFLDS_3D_RL: read field: "Vvel    ", #   2 in fldList, rec=   2
(PID.TID 0000.0001) READ_MFLDS_3D_RL: read field: "Theta   ", #   3 in fldList, rec=   3
(PID.TID 0000.0001) READ_MFLDS_3D_RL: read field: "Salt    ", #   4 in fldList, rec=   4
(PID.TID 0000.0001) READ_MFLDS_3D_RL: read field: "GuNm1   ", #   5 in fldList, rec=   5
(PID.TID 0000.0001) READ_MFLDS_3D_RL: read field: "GvNm1   ", #   6 in fldList, rec=   6
(PID.TID 0000.0001) READ_MFLDS_3D_RL: read field: "GtNm1   ", #   7 in fldList, rec=   7
(PID.TID 0000.0001) READ_MFLDS_3D_RL: read field: "GsNm1   ", #   8 in fldList, rec=   8
(PID.TID 0000.0001) READ_MFLDS_3D_RL: read field: "EtaN    ", #   9 in fldList, rec= 241
(PID.TID 0000.0001) READ_MFLDS_3D_RL: read field: "dEtaHdt ", #  10 in fldList, rec= 242
(PID.TID 0000.0001) READ_MFLDS_3D_RL: read field: "EtaH    ", #  11 in fldList, rec= 243
(PID.TID 0000.0001) READ_MFLDS_CHECK: - normal end ; reset MFLDS file-name: pickup.0000008640
(PID.TID 0000.0001) // =======================================================
(PID.TID 0000.0001) // Begin MONITOR dynamic field statistics
(PID.TID 0000.0001) // =======================================================
(PID.TID 0000.0001) %MON ad_time_tsnumber             =                  8640
(PID.TID 0000.0001) %MON ad_time_secondsf             =   1.5552000000000E+07
(PID.TID 0000.0001) %MON ad_dynstat_adeta_max         =   2.1088322585934E-02
(PID.TID 0000.0001) %MON ad_dynstat_adeta_min         =  -7.8858870528296E-02
(PID.TID 0000.0001) %MON ad_dynstat_adeta_mean        =  -1.4189390245205E-04
(PID.TID 0000.0001) %MON ad_dynstat_adeta_sd          =   6.5524242969061E-03
(PID.TID 0000.0001) %MON ad_dynstat_adeta_del2        =   1.0200022217191E-04
(PID.TID 0000.0001) %MON ad_dynstat_aduvel_max        =   1.9522139793059E-03
(PID.TID 0000.0001) %MON ad_dynstat_aduvel_min        =  -4.6602654194551E-04
(PID.TID 0000.0001) %MON ad_dynstat_aduvel_mean       =   2.8501106434188E-04
(PID.TID 0000.0001) %MON ad_dynstat_aduvel_sd         =   1.4956188407298E-04
(PID.TID 0000.0001) %MON ad_dynstat_aduvel_del2       =   3.5031414528548E-07
(PID.TID 0000.0001) %MON ad_dynstat_advvel_max        =   9.5031194778668E-04
(PID.TID 0000.0001) %MON ad_dynstat_advvel_min        =  -1.2026152748431E-03
(PID.TID 0000.0001) %MON ad_dynstat_advvel_mean       =  -8.3987842108324E-04
(PID.TID 0000.0001) %MON ad_dynstat_advvel_sd         =   2.8229322940452E-04
(PID.TID 0000.0001) %MON ad_dynstat_advvel_del2       =   9.9857569994882E-07
(PID.TID 0000.0001) %MON ad_dynstat_adwvel_max        =   5.2252204268945E-04
(PID.TID 0000.0001) %MON ad_dynstat_adwvel_min        =  -1.3604737343550E-03
(PID.TID 0000.0001) %MON ad_dynstat_adwvel_mean       =  -7.8174818651226E-06
(PID.TID 0000.0001) %MON ad_dynstat_adwvel_sd         =   5.9471078128163E-05
(PID.TID 0000.0001) %MON ad_dynstat_adwvel_del2       =   2.8300243238759E-07
(PID.TID 0000.0001) %MON ad_dynstat_adtheta_max       =  -6.3685789176283E-01
(PID.TID 0000.0001) %MON ad_dynstat_adtheta_min       =  -7.0525617482171E+00
(PID.TID 0000.0001) %MON ad_dynstat_adtheta_mean      =  -3.8271214350266E+00
(PID.TID 0000.0001) %MON ad_dynstat_adtheta_sd        =   8.0260498899853E-02
(PID.TID 0000.0001) %MON ad_dynstat_adtheta_del2      =   3.9224426950952E-03
(PID.TID 0000.0001) %MON ad_dynstat_adsalt_max        =   5.5154594520942E-03
(PID.TID 0000.0001) %MON ad_dynstat_adsalt_min        =  -2.1745235969792E-03
(PID.TID 0000.0001) %MON ad_dynstat_adsalt_mean       =   1.3859030172167E-04
(PID.TID 0000.0001) %MON ad_dynstat_adsalt_sd         =   6.8703096411254E-04
(PID.TID 0000.0001) %MON ad_dynstat_adsalt_del2       =   1.4110169845454E-06
(PID.TID 0000.0001) // =======================================================
(PID.TID 0000.0001) // End MONITOR dynamic field statistics
(PID.TID 0000.0001) // =======================================================
(PID.TID 0000.0001) // =======================================================
(PID.TID 0000.0001) // Gradient-check starts (grdchk_main)
(PID.TID 0000.0001) // =======================================================
(PID.TID 0000.0001) grdchk reference fc: fcref       =  3.69721219277520E+05
grad-res -------------------------------
 grad-res  proc    #    i    j    k   bi   bj iobc       fc ref            fc + eps           fc - eps
 grad-res  proc    #    i    j    k   bi   bj iobc      adj grad            fd grad          1 - fd/adj
 grad-res exact position met: 
 grad-res     0 1579   20   24   20    1    1
(PID.TID 0000.0001) ====== Starts gradient-check number   1 (=ichknum) =======
 ph-test icomp, ncvarcomp, ichknum         1579      100450           1
 ph-grd _loc: bi, bj, icomptest, ichknum            1           1           0           1
 ph-grd _loc: bi, bj, icomptest, ichknum            1           1           0           1
 ph-grd _loc: bi, bj, icomptest, ichknum            1           1           0           1
 ph-grd _loc: bi, bj, icomptest, ichknum            1           1           0           1
 ph-grd _loc: bi, bj, icomptest, ichknum            1           1           0           1
 ph-grd _loc: bi, bj, icomptest, ichknum            1           1           0           1
 ph-grd _loc: bi, bj, icomptest, ichknum            1           1           0           1
 ph-grd _loc: bi, bj, icomptest, ichknum            1           1           0           1
 ph-grd _loc: bi, bj, icomptest, ichknum            1           1           0           1
 ph-grd _loc: bi, bj, icomptest, ichknum            1           1           0           1
 ph-grd _loc: bi, bj, icomptest, ichknum            1           1           0           1
 ph-grd _loc: bi, bj, icomptest, ichknum            1           1           0           1
 ph-grd _loc: bi, bj, icomptest, ichknum            1           1           0           1
 ph-grd _loc: bi, bj, icomptest, ichknum            1           1           0           1
 ph-grd _loc: bi, bj, icomptest, ichknum            1           1          48           1
 ph-grd _loc: bi, bj, icomptest, ichknum            1           1         168           1
 ph-grd _loc: bi, bj, icomptest, ichknum            1           1         336           1
 ph-grd _loc: bi, bj, icomptest, ichknum            1           1         576           1
 ph-grd _loc: bi, bj, icomptest, ichknum            1           1         864           1
 ph-grd _loc: bi, bj, icomptest, ichknum            1           1        1200           1
 ph-grd -->hit<--           20          24          20           1
(PID.TID 0000.0001) grdchk pos: i,j,k=   20   24   20 ; bi,bj=   1   1 ; iobc=  1 ; rec=   1
(PID.TID 0000.0001)  nRecords = 243 ; filePrec =  64 ; fileIter =      8640
(PID.TID 0000.0001)     nDims =   2 , dims:
(PID.TID 0000.0001)    1:  50   1  50
(PID.TID 0000.0001)    2: 100   1 100
(PID.TID 0000.0001)     nFlds =  11 , nFl3D =   8 , fields:
(PID.TID 0000.0001)  >Uvel    < >Vvel    < >Theta   < >Salt    < >GuNm1   < >GvNm1   < >GtNm1   < >GsNm1   < >EtaN    < >dEtaHdt < >EtaH    <
(PID.TID 0000.0001) missingVal=  1.00000000000000E+00 ; nTimRec =   1 , timeList:
(PID.TID 0000.0001)   1.555200000000E+07
(PID.TID 0000.0001) READ_MFLDS_3D_RL: read field: "Uvel    ", #   1 in fldList, rec=   1
(PID.TID 0000.0001) READ_MFLDS_3D_RL: read field: "Vvel    ", #   2 in fldList, rec=   2
(PID.TID 0000.0001) READ_MFLDS_3D_RL: read field: "Theta   ", #   3 in fldList, rec=   3
(PID.TID 0000.0001) READ_MFLDS_3D_RL: read field: "Salt    ", #   4 in fldList, rec=   4
(PID.TID 0000.0001) READ_MFLDS_3D_RL: read field: "GuNm1   ", #   5 in fldList, rec=   5
(PID.TID 0000.0001) READ_MFLDS_3D_RL: read field: "GvNm1   ", #   6 in fldList, rec=   6
(PID.TID 0000.0001) READ_MFLDS_3D_RL: read field: "GtNm1   ", #   7 in fldList, rec=   7
(PID.TID 0000.0001) READ_MFLDS_3D_RL: read field: "GsNm1   ", #   8 in fldList, rec=   8
(PID.TID 0000.0001) READ_MFLDS_3D_RL: read field: "EtaN    ", #   9 in fldList, rec= 241
(PID.TID 0000.0001) READ_MFLDS_3D_RL: read field: "dEtaHdt ", #  10 in fldList, rec= 242
(PID.TID 0000.0001) READ_MFLDS_3D_RL: read field: "EtaH    ", #  11 in fldList, rec= 243
(PID.TID 0000.0001) READ_MFLDS_CHECK: - normal end ; reset MFLDS file-name: pickup.0000008640
(PID.TID 0000.0001) // =======================================================
(PID.TID 0000.0001) // Model current state
(PID.TID 0000.0001) // =======================================================
(PID.TID 0000.0001) 
(PID.TID 0000.0001) SOLVE_FOR_PRESSURE: putPmEinXvector =    F
 cg2d: Sum(rhs),rhsMax =   7.01383395806943E-13  5.97849185311197E-02
 cg2d: Sum(rhs),rhsMax =   7.19202475352176E-13  5.85466138249788E-02
 cg2d: Sum(rhs),rhsMax =   7.17217951695659E-13  5.84695841458609E-02
 cg2d: Sum(rhs),rhsMax =   7.19396764381486E-13  5.84526908197648E-02
 cg2d: Sum(rhs),rhsMax =   7.17689796481125E-13  5.84006606971772E-02
 cg2d: Sum(rhs),rhsMax =   7.19146964200945E-13  5.83965557565201E-02
 cg2d: Sum(rhs),rhsMax =   7.18217152417822E-13  5.84579955021240E-02
 cg2d: Sum(rhs),rhsMax =   7.17915310533002E-13  5.85308743058915E-02
 cg2d: Sum(rhs),rhsMax =   7.18905837637784E-13  5.86156101059905E-02
 cg2d: Sum(rhs),rhsMax =   7.15223019698286E-13  5.87104341936853E-02
(PID.TID 0000.0001) Did not write pickup because writePickupAtEnd = FALSE
 --> objf_shelfice(bi,bj) =  0.000000000000000D+00
 --> objf_shifwflx(bi,bj) =  0.000000000000000D+00
 --> objf_shelfice(bi,bj) =  0.000000000000000D+00
 --> objf_shifwflx(bi,bj) =  0.000000000000000D+00
 --> objf_shelfice(bi,bj) =  0.000000000000000D+00
 --> objf_shifwflx(bi,bj) =  0.000000000000000D+00
 --> objf_shelfice(bi,bj) =  0.000000000000000D+00
 --> objf_shifwflx(bi,bj) =  0.000000000000000D+00
 --> objf_shelfice(bi,bj) =  0.000000000000000D+00
 --> objf_shifwflx(bi,bj) =  0.000000000000000D+00
 --> objf_shelfice(bi,bj) =  0.000000000000000D+00
 --> objf_shifwflx(bi,bj) =  0.000000000000000D+00
 --> objf_shelfice(bi,bj) =  0.000000000000000D+00
 --> objf_shifwflx(bi,bj) =  0.000000000000000D+00
 --> objf_shelfice(bi,bj) =  0.000000000000000D+00
 --> objf_shifwflx(bi,bj) =  0.000000000000000D+00
 ph-1 in thsice_cost_final
 ph-3 in thsice_cost_final
 --> objf_test(bi,bj)   =  0.272349034780429D+05
 --> objf_tracer(bi,bj) =  0.000000000000000D+00
 --> objf_atl(bi,bj)    =  0.000000000000000D+00
 --> objf_test(bi,bj)   =  0.280685772364214D+05
 --> objf_tracer(bi,bj) =  0.000000000000000D+00
 --> objf_atl(bi,bj)    =  0.000000000000000D+00
 --> objf_test(bi,bj)   =  0.489344114045480D+05
 --> objf_tracer(bi,bj) =  0.000000000000000D+00
 --> objf_atl(bi,bj)    =  0.000000000000000D+00
 --> objf_test(bi,bj)   =  0.505652022126283D+05
 --> objf_tracer(bi,bj) =  0.000000000000000D+00
 --> objf_atl(bi,bj)    =  0.000000000000000D+00
 --> objf_test(bi,bj)   =  0.526343617737054D+05
 --> objf_tracer(bi,bj) =  0.000000000000000D+00
 --> objf_atl(bi,bj)    =  0.000000000000000D+00
 --> objf_test(bi,bj)   =  0.548257487504671D+05
 --> objf_tracer(bi,bj) =  0.000000000000000D+00
 --> objf_atl(bi,bj)    =  0.000000000000000D+00
 --> objf_test(bi,bj)   =  0.526324781251357D+05
 --> objf_tracer(bi,bj) =  0.000000000000000D+00
 --> objf_atl(bi,bj)    =  0.000000000000000D+00
 --> objf_test(bi,bj)   =  0.548254981144277D+05
 --> objf_tracer(bi,bj) =  0.000000000000000D+00
 --> objf_atl(bi,bj)    =  0.000000000000000D+00
  local fc =  0.369721181095376D+06
 global fc =  0.369721181095376D+06
(PID.TID 0000.0001) grdchk perturb(+)fc: fcpertplus  =  3.69721181095376E+05
(PID.TID 0000.0001)  nRecords = 243 ; filePrec =  64 ; fileIter =      8640
(PID.TID 0000.0001)     nDims =   2 , dims:
(PID.TID 0000.0001)    1:  50   1  50
(PID.TID 0000.0001)    2: 100   1 100
(PID.TID 0000.0001)     nFlds =  11 , nFl3D =   8 , fields:
(PID.TID 0000.0001)  >Uvel    < >Vvel    < >Theta   < >Salt    < >GuNm1   < >GvNm1   < >GtNm1   < >GsNm1   < >EtaN    < >dEtaHdt < >EtaH    <
(PID.TID 0000.0001) missingVal=  1.00000000000000E+00 ; nTimRec =   1 , timeList:
(PID.TID 0000.0001)   1.555200000000E+07
(PID.TID 0000.0001) READ_MFLDS_3D_RL: read field: "Uvel    ", #   1 in fldList, rec=   1
(PID.TID 0000.0001) READ_MFLDS_3D_RL: read field: "Vvel    ", #   2 in fldList, rec=   2
(PID.TID 0000.0001) READ_MFLDS_3D_RL: read field: "Theta   ", #   3 in fldList, rec=   3
(PID.TID 0000.0001) READ_MFLDS_3D_RL: read field: "Salt    ", #   4 in fldList, rec=   4
(PID.TID 0000.0001) READ_MFLDS_3D_RL: read field: "GuNm1   ", #   5 in fldList, rec=   5
(PID.TID 0000.0001) READ_MFLDS_3D_RL: read field: "GvNm1   ", #   6 in fldList, rec=   6
(PID.TID 0000.0001) READ_MFLDS_3D_RL: read field: "GtNm1   ", #   7 in fldList, rec=   7
(PID.TID 0000.0001) READ_MFLDS_3D_RL: read field: "GsNm1   ", #   8 in fldList, rec=   8
(PID.TID 0000.0001) READ_MFLDS_3D_RL: read field: "EtaN    ", #   9 in fldList, rec= 241
(PID.TID 0000.0001) READ_MFLDS_3D_RL: read field: "dEtaHdt ", #  10 in fldList, rec= 242
(PID.TID 0000.0001) READ_MFLDS_3D_RL: read field: "EtaH    ", #  11 in fldList, rec= 243
(PID.TID 0000.0001) READ_MFLDS_CHECK: - normal end ; reset MFLDS file-name: pickup.0000008640
(PID.TID 0000.0001) // =======================================================
(PID.TID 0000.0001) // Model current state
(PID.TID 0000.0001) // =======================================================
(PID.TID 0000.0001) 
(PID.TID 0000.0001) SOLVE_FOR_PRESSURE: putPmEinXvector =    F
 cg2d: Sum(rhs),rhsMax =   7.01105840050786E-13  5.97849185311197E-02
 cg2d: Sum(rhs),rhsMax =   7.14442394134096E-13  5.85466150275192E-02
 cg2d: Sum(rhs),rhsMax =   7.14900361131754E-13  5.84695848767496E-02
 cg2d: Sum(rhs),rhsMax =   7.17662040905509E-13  5.84526904776631E-02
 cg2d: Sum(rhs),rhsMax =   7.19369008805870E-13  5.84006598731013E-02
 cg2d: Sum(rhs),rhsMax =   7.18702874991095E-13  5.83965552307064E-02
 cg2d: Sum(rhs),rhsMax =   7.16968151515118E-13  5.84579949966528E-02
 cg2d: Sum(rhs),rhsMax =   7.17457343535344E-13  5.85308737314116E-02
 cg2d: Sum(rhs),rhsMax =   7.17304687869458E-13  5.86156094483165E-02
 cg2d: Sum(rhs),rhsMax =   7.15858795852231E-13  5.87104335140974E-02
(PID.TID 0000.0001) Did not write pickup because writePickupAtEnd = FALSE
 --> objf_shelfice(bi,bj) =  0.000000000000000D+00
 --> objf_shifwflx(bi,bj) =  0.000000000000000D+00
 --> objf_shelfice(bi,bj) =  0.000000000000000D+00
 --> objf_shifwflx(bi,bj) =  0.000000000000000D+00
 --> objf_shelfice(bi,bj) =  0.000000000000000D+00
 --> objf_shifwflx(bi,bj) =  0.000000000000000D+00
 --> objf_shelfice(bi,bj) =  0.000000000000000D+00
 --> objf_shifwflx(bi,bj) =  0.000000000000000D+00
 --> objf_shelfice(bi,bj) =  0.000000000000000D+00
 --> objf_shifwflx(bi,bj) =  0.000000000000000D+00
 --> objf_shelfice(bi,bj) =  0.000000000000000D+00
 --> objf_shifwflx(bi,bj) =  0.000000000000000D+00
 --> objf_shelfice(bi,bj) =  0.000000000000000D+00
 --> objf_shifwflx(bi,bj) =  0.000000000000000D+00
 --> objf_shelfice(bi,bj) =  0.000000000000000D+00
 --> objf_shifwflx(bi,bj) =  0.000000000000000D+00
 ph-1 in thsice_cost_final
 ph-3 in thsice_cost_final
 --> objf_test(bi,bj)   =  0.272349800039286D+05
 --> objf_tracer(bi,bj) =  0.000000000000000D+00
 --> objf_atl(bi,bj)    =  0.000000000000000D+00
 --> objf_test(bi,bj)   =  0.280685772365270D+05
 --> objf_tracer(bi,bj) =  0.000000000000000D+00
 --> objf_atl(bi,bj)    =  0.000000000000000D+00
 --> objf_test(bi,bj)   =  0.489344114049653D+05
 --> objf_tracer(bi,bj) =  0.000000000000000D+00
 --> objf_atl(bi,bj)    =  0.000000000000000D+00
 --> objf_test(bi,bj)   =  0.505652022126541D+05
 --> objf_tracer(bi,bj) =  0.000000000000000D+00
 --> objf_atl(bi,bj)    =  0.000000000000000D+00
 --> objf_test(bi,bj)   =  0.526343617737114D+05
 --> objf_tracer(bi,bj) =  0.000000000000000D+00
 --> objf_atl(bi,bj)    =  0.000000000000000D+00
 --> objf_test(bi,bj)   =  0.548257487504651D+05
 --> objf_tracer(bi,bj) =  0.000000000000000D+00
 --> objf_atl(bi,bj)    =  0.000000000000000D+00
 --> objf_test(bi,bj)   =  0.526324781251440D+05
 --> objf_tracer(bi,bj) =  0.000000000000000D+00
 --> objf_atl(bi,bj)    =  0.000000000000000D+00
 --> objf_test(bi,bj)   =  0.548254981144310D+05
 --> objf_tracer(bi,bj) =  0.000000000000000D+00
 --> objf_atl(bi,bj)    =  0.000000000000000D+00
  local fc =  0.369721257621826D+06
 global fc =  0.369721257621826D+06
(PID.TID 0000.0001) grdchk perturb(-)fc: fcpertminus =  3.69721257621826E+05
grad-res -------------------------------
 grad-res     0    1   20   24   20    1    1    1   3.69721219278E+05  3.69721181095E+05  3.69721257622E+05
 grad-res     0    1    1 1579    0    1    1    1  -3.82632251888E+00 -3.82632250257E+00  4.26166368861E-09
(PID.TID 0000.0001)  ADM  ref_cost_function      =  3.69721219277520E+05
(PID.TID 0000.0001)  ADM  adjoint_gradient       = -3.82632251887952E+00
(PID.TID 0000.0001)  ADM  finite-diff_grad       = -3.82632250257302E+00
(PID.TID 0000.0001) ====== End of gradient-check number   1 (ierr=  0) =======
(PID.TID 0000.0001) ====== Starts gradient-check number   2 (=ichknum) =======
 ph-test icomp, ncvarcomp, ichknum         1580      100450           2
 ph-grd _loc: bi, bj, icomptest, ichknum            1           1        1579           2
 ph-grd -->hit<--           21          24          20           1
(PID.TID 0000.0001) grdchk pos: i,j,k=   21   24   20 ; bi,bj=   1   1 ; iobc=  1 ; rec=   1
(PID.TID 0000.0001)  nRecords = 243 ; filePrec =  64 ; fileIter =      8640
(PID.TID 0000.0001)     nDims =   2 , dims:
(PID.TID 0000.0001)    1:  50   1  50
(PID.TID 0000.0001)    2: 100   1 100
(PID.TID 0000.0001)     nFlds =  11 , nFl3D =   8 , fields:
(PID.TID 0000.0001)  >Uvel    < >Vvel    < >Theta   < >Salt    < >GuNm1   < >GvNm1   < >GtNm1   < >GsNm1   < >EtaN    < >dEtaHdt < >EtaH    <
(PID.TID 0000.0001) missingVal=  1.00000000000000E+00 ; nTimRec =   1 , timeList:
(PID.TID 0000.0001)   1.555200000000E+07
(PID.TID 0000.0001) READ_MFLDS_3D_RL: read field: "Uvel    ", #   1 in fldList, rec=   1
(PID.TID 0000.0001) READ_MFLDS_3D_RL: read field: "Vvel    ", #   2 in fldList, rec=   2
(PID.TID 0000.0001) READ_MFLDS_3D_RL: read field: "Theta   ", #   3 in fldList, rec=   3
(PID.TID 0000.0001) READ_MFLDS_3D_RL: read field: "Salt    ", #   4 in fldList, rec=   4
(PID.TID 0000.0001) READ_MFLDS_3D_RL: read field: "GuNm1   ", #   5 in fldList, rec=   5
(PID.TID 0000.0001) READ_MFLDS_3D_RL: read field: "GvNm1   ", #   6 in fldList, rec=   6
(PID.TID 0000.0001) READ_MFLDS_3D_RL: read field: "GtNm1   ", #   7 in fldList, rec=   7
(PID.TID 0000.0001) READ_MFLDS_3D_RL: read field: "GsNm1   ", #   8 in fldList, rec=   8
(PID.TID 0000.0001) READ_MFLDS_3D_RL: read field: "EtaN    ", #   9 in fldList, rec= 241
(PID.TID 0000.0001) READ_MFLDS_3D_RL: read field: "dEtaHdt ", #  10 in fldList, rec= 242
(PID.TID 0000.0001) READ_MFLDS_3D_RL: read field: "EtaH    ", #  11 in fldList, rec= 243
(PID.TID 0000.0001) READ_MFLDS_CHECK: - normal end ; reset MFLDS file-name: pickup.0000008640
(PID.TID 0000.0001) // =======================================================
(PID.TID 0000.0001) // Model current state
(PID.TID 0000.0001) // =======================================================
(PID.TID 0000.0001) 
(PID.TID 0000.0001) SOLVE_FOR_PRESSURE: putPmEinXvector =    F
 cg2d: Sum(rhs),rhsMax =   7.01383395806943E-13  5.97849185311197E-02
 cg2d: Sum(rhs),rhsMax =   7.17190196120043E-13  5.85466138590950E-02
 cg2d: Sum(rhs),rhsMax =   7.16676717971154E-13  5.84695841263440E-02
 cg2d: Sum(rhs),rhsMax =   7.14053816075477E-13  5.84526907474599E-02
 cg2d: Sum(rhs),rhsMax =   7.16676717971154E-13  5.84006606009661E-02
 cg2d: Sum(rhs),rhsMax =   7.15941195217340E-13  5.83965556312016E-02
 cg2d: Sum(rhs),rhsMax =   7.18099191221455E-13  5.84579953467671E-02
 cg2d: Sum(rhs),rhsMax =   7.19355131018062E-13  5.85308741172102E-02
 cg2d: Sum(rhs),rhsMax =   7.13425846177174E-13  5.86156098842202E-02
 cg2d: Sum(rhs),rhsMax =   7.14307953064708E-13  5.87104339406437E-02
(PID.TID 0000.0001) Did not write pickup because writePickupAtEnd = FALSE
 --> objf_shelfice(bi,bj) =  0.000000000000000D+00
 --> objf_shifwflx(bi,bj) =  0.000000000000000D+00
 --> objf_shelfice(bi,bj) =  0.000000000000000D+00
 --> objf_shifwflx(bi,bj) =  0.000000000000000D+00
 --> objf_shelfice(bi,bj) =  0.000000000000000D+00
 --> objf_shifwflx(bi,bj) =  0.000000000000000D+00
 --> objf_shelfice(bi,bj) =  0.000000000000000D+00
 --> objf_shifwflx(bi,bj) =  0.000000000000000D+00
 --> objf_shelfice(bi,bj) =  0.000000000000000D+00
 --> objf_shifwflx(bi,bj) =  0.000000000000000D+00
 --> objf_shelfice(bi,bj) =  0.000000000000000D+00
 --> objf_shifwflx(bi,bj) =  0.000000000000000D+00
 --> objf_shelfice(bi,bj) =  0.000000000000000D+00
 --> objf_shifwflx(bi,bj) =  0.000000000000000D+00
 --> objf_shelfice(bi,bj) =  0.000000000000000D+00
 --> objf_shifwflx(bi,bj) =  0.000000000000000D+00
 ph-1 in thsice_cost_final
 ph-3 in thsice_cost_final
 --> objf_test(bi,bj)   =  0.272349034834927D+05
 --> objf_tracer(bi,bj) =  0.000000000000000D+00
 --> objf_atl(bi,bj)    =  0.000000000000000D+00
 --> objf_test(bi,bj)   =  0.280685772363962D+05
 --> objf_tracer(bi,bj) =  0.000000000000000D+00
 --> objf_atl(bi,bj)    =  0.000000000000000D+00
 --> objf_test(bi,bj)   =  0.489344114045530D+05
 --> objf_tracer(bi,bj) =  0.000000000000000D+00
 --> objf_atl(bi,bj)    =  0.000000000000000D+00
 --> objf_test(bi,bj)   =  0.505652022126291D+05
 --> objf_tracer(bi,bj) =  0.000000000000000D+00
 --> objf_atl(bi,bj)    =  0.000000000000000D+00
 --> objf_test(bi,bj)   =  0.526343617737056D+05
 --> objf_tracer(bi,bj) =  0.000000000000000D+00
 --> objf_atl(bi,bj)    =  0.000000000000000D+00
 --> objf_test(bi,bj)   =  0.548257487504672D+05
 --> objf_tracer(bi,bj) =  0.000000000000000D+00
 --> objf_atl(bi,bj)    =  0.000000000000000D+00
 --> objf_test(bi,bj)   =  0.526324781251360D+05
 --> objf_tracer(bi,bj) =  0.000000000000000D+00
 --> objf_atl(bi,bj)    =  0.000000000000000D+00
 --> objf_test(bi,bj)   =  0.548254981144280D+05
 --> objf_tracer(bi,bj) =  0.000000000000000D+00
 --> objf_atl(bi,bj)    =  0.000000000000000D+00
  local fc =  0.369721181100808D+06
 global fc =  0.369721181100808D+06
(PID.TID 0000.0001) grdchk perturb(+)fc: fcpertplus  =  3.69721181100808E+05
(PID.TID 0000.0001)  nRecords = 243 ; filePrec =  64 ; fileIter =      8640
(PID.TID 0000.0001)     nDims =   2 , dims:
(PID.TID 0000.0001)    1:  50   1  50
(PID.TID 0000.0001)    2: 100   1 100
(PID.TID 0000.0001)     nFlds =  11 , nFl3D =   8 , fields:
(PID.TID 0000.0001)  >Uvel    < >Vvel    < >Theta   < >Salt    < >GuNm1   < >GvNm1   < >GtNm1   < >GsNm1   < >EtaN    < >dEtaHdt < >EtaH    <
(PID.TID 0000.0001) missingVal=  1.00000000000000E+00 ; nTimRec =   1 , timeList:
(PID.TID 0000.0001)   1.555200000000E+07
(PID.TID 0000.0001) READ_MFLDS_3D_RL: read field: "Uvel    ", #   1 in fldList, rec=   1
(PID.TID 0000.0001) READ_MFLDS_3D_RL: read field: "Vvel    ", #   2 in fldList, rec=   2
(PID.TID 0000.0001) READ_MFLDS_3D_RL: read field: "Theta   ", #   3 in fldList, rec=   3
(PID.TID 0000.0001) READ_MFLDS_3D_RL: read field: "Salt    ", #   4 in fldList, rec=   4
(PID.TID 0000.0001) READ_MFLDS_3D_RL: read field: "GuNm1   ", #   5 in fldList, rec=   5
(PID.TID 0000.0001) READ_MFLDS_3D_RL: read field: "GvNm1   ", #   6 in fldList, rec=   6
(PID.TID 0000.0001) READ_MFLDS_3D_RL: read field: "GtNm1   ", #   7 in fldList, rec=   7
(PID.TID 0000.0001) READ_MFLDS_3D_RL: read field: "GsNm1   ", #   8 in fldList, rec=   8
(PID.TID 0000.0001) READ_MFLDS_3D_RL: read field: "EtaN    ", #   9 in fldList, rec= 241
(PID.TID 0000.0001) READ_MFLDS_3D_RL: read field: "dEtaHdt ", #  10 in fldList, rec= 242
(PID.TID 0000.0001) READ_MFLDS_3D_RL: read field: "EtaH    ", #  11 in fldList, rec= 243
(PID.TID 0000.0001) READ_MFLDS_CHECK: - normal end ; reset MFLDS file-name: pickup.0000008640
(PID.TID 0000.0001) // =======================================================
(PID.TID 0000.0001) // Model current state
(PID.TID 0000.0001) // =======================================================
(PID.TID 0000.0001) 
(PID.TID 0000.0001) SOLVE_FOR_PRESSURE: putPmEinXvector =    F
 cg2d: Sum(rhs),rhsMax =   7.01327884655711E-13  5.97849185311197E-02
 cg2d: Sum(rhs),rhsMax =   7.15205672463526E-13  5.85466149934305E-02
 cg2d: Sum(rhs),rhsMax =   7.15330572553796E-13  5.84695848959762E-02
 cg2d: Sum(rhs),rhsMax =   7.19369008805870E-13  5.84526905495475E-02
 cg2d: Sum(rhs),rhsMax =   7.18952675171636E-13  5.84006599692196E-02
 cg2d: Sum(rhs),rhsMax =   7.16635084607731E-13  5.83965553558754E-02
 cg2d: Sum(rhs),rhsMax =   7.17093051605389E-13  5.84579951518105E-02
 cg2d: Sum(rhs),rhsMax =   7.16031400838091E-13  5.85308739194054E-02
 cg2d: Sum(rhs),rhsMax =   7.16244771825636E-13  5.86156096695076E-02
 cg2d: Sum(rhs),rhsMax =   7.14876942364828E-13  5.87104337663443E-02
(PID.TID 0000.0001) Did not write pickup because writePickupAtEnd = FALSE
 --> objf_shelfice(bi,bj) =  0.000000000000000D+00
 --> objf_shifwflx(bi,bj) =  0.000000000000000D+00
 --> objf_shelfice(bi,bj) =  0.000000000000000D+00
 --> objf_shifwflx(bi,bj) =  0.000000000000000D+00
 --> objf_shelfice(bi,bj) =  0.000000000000000D+00
 --> objf_shifwflx(bi,bj) =  0.000000000000000D+00
 --> objf_shelfice(bi,bj) =  0.000000000000000D+00
 --> objf_shifwflx(bi,bj) =  0.000000000000000D+00
 --> objf_shelfice(bi,bj) =  0.000000000000000D+00
 --> objf_shifwflx(bi,bj) =  0.000000000000000D+00
 --> objf_shelfice(bi,bj) =  0.000000000000000D+00
 --> objf_shifwflx(bi,bj) =  0.000000000000000D+00
 --> objf_shelfice(bi,bj) =  0.000000000000000D+00
 --> objf_shifwflx(bi,bj) =  0.000000000000000D+00
 --> objf_shelfice(bi,bj) =  0.000000000000000D+00
 --> objf_shifwflx(bi,bj) =  0.000000000000000D+00
 ph-1 in thsice_cost_final
 ph-3 in thsice_cost_final
 --> objf_test(bi,bj)   =  0.272349799984791D+05
 --> objf_tracer(bi,bj) =  0.000000000000000D+00
 --> objf_atl(bi,bj)    =  0.000000000000000D+00
 --> objf_test(bi,bj)   =  0.280685772365520D+05
 --> objf_tracer(bi,bj) =  0.000000000000000D+00
 --> objf_atl(bi,bj)    =  0.000000000000000D+00
 --> objf_test(bi,bj)   =  0.489344114049601D+05
 --> objf_tracer(bi,bj) =  0.000000000000000D+00
 --> objf_atl(bi,bj)    =  0.000000000000000D+00
 --> objf_test(bi,bj)   =  0.505652022126532D+05
 --> objf_tracer(bi,bj) =  0.000000000000000D+00
 --> objf_atl(bi,bj)    =  0.000000000000000D+00
 --> objf_test(bi,bj)   =  0.526343617737112D+05
 --> objf_tracer(bi,bj) =  0.000000000000000D+00
 --> objf_atl(bi,bj)    =  0.000000000000000D+00
 --> objf_test(bi,bj)   =  0.548257487504650D+05
 --> objf_tracer(bi,bj) =  0.000000000000000D+00
 --> objf_atl(bi,bj)    =  0.000000000000000D+00
 --> objf_test(bi,bj)   =  0.526324781251436D+05
 --> objf_tracer(bi,bj) =  0.000000000000000D+00
 --> objf_atl(bi,bj)    =  0.000000000000000D+00
 --> objf_test(bi,bj)   =  0.548254981144308D+05
 --> objf_tracer(bi,bj) =  0.000000000000000D+00
 --> objf_atl(bi,bj)    =  0.000000000000000D+00
  local fc =  0.369721257616395D+06
 global fc =  0.369721257616395D+06
(PID.TID 0000.0001) grdchk perturb(-)fc: fcpertminus =  3.69721257616395E+05
grad-res -------------------------------
 grad-res     0    2   21   24   20    1    1    1   3.69721219278E+05  3.69721181101E+05  3.69721257616E+05
 grad-res     0    2    2 1580    0    1    1    1  -3.82577936989E+00 -3.82577935525E+00  3.82729947734E-09
(PID.TID 0000.0001)  ADM  ref_cost_function      =  3.69721219277520E+05
(PID.TID 0000.0001)  ADM  adjoint_gradient       = -3.82577936988991E+00
(PID.TID 0000.0001)  ADM  finite-diff_grad       = -3.82577935524751E+00
(PID.TID 0000.0001) ====== End of gradient-check number   2 (ierr=  0) =======
(PID.TID 0000.0001) ====== Starts gradient-check number   3 (=ichknum) =======
 ph-test icomp, ncvarcomp, ichknum         1581      100450           3
 ph-grd _loc: bi, bj, icomptest, ichknum            1           1        1580           3
 ph-grd -->hit<--           22          24          20           1
(PID.TID 0000.0001) grdchk pos: i,j,k=   22   24   20 ; bi,bj=   1   1 ; iobc=  1 ; rec=   1
(PID.TID 0000.0001)  nRecords = 243 ; filePrec =  64 ; fileIter =      8640
(PID.TID 0000.0001)     nDims =   2 , dims:
(PID.TID 0000.0001)    1:  50   1  50
(PID.TID 0000.0001)    2: 100   1 100
(PID.TID 0000.0001)     nFlds =  11 , nFl3D =   8 , fields:
(PID.TID 0000.0001)  >Uvel    < >Vvel    < >Theta   < >Salt    < >GuNm1   < >GvNm1   < >GtNm1   < >GsNm1   < >EtaN    < >dEtaHdt < >EtaH    <
(PID.TID 0000.0001) missingVal=  1.00000000000000E+00 ; nTimRec =   1 , timeList:
(PID.TID 0000.0001)   1.555200000000E+07
(PID.TID 0000.0001) READ_MFLDS_3D_RL: read field: "Uvel    ", #   1 in fldList, rec=   1
(PID.TID 0000.0001) READ_MFLDS_3D_RL: read field: "Vvel    ", #   2 in fldList, rec=   2
(PID.TID 0000.0001) READ_MFLDS_3D_RL: read field: "Theta   ", #   3 in fldList, rec=   3
(PID.TID 0000.0001) READ_MFLDS_3D_RL: read field: "Salt    ", #   4 in fldList, rec=   4
(PID.TID 0000.0001) READ_MFLDS_3D_RL: read field: "GuNm1   ", #   5 in fldList, rec=   5
(PID.TID 0000.0001) READ_MFLDS_3D_RL: read field: "GvNm1   ", #   6 in fldList, rec=   6
(PID.TID 0000.0001) READ_MFLDS_3D_RL: read field: "GtNm1   ", #   7 in fldList, rec=   7
(PID.TID 0000.0001) READ_MFLDS_3D_RL: read field: "GsNm1   ", #   8 in fldList, rec=   8
(PID.TID 0000.0001) READ_MFLDS_3D_RL: read field: "EtaN    ", #   9 in fldList, rec= 241
(PID.TID 0000.0001) READ_MFLDS_3D_RL: read field: "dEtaHdt ", #  10 in fldList, rec= 242
(PID.TID 0000.0001) READ_MFLDS_3D_RL: read field: "EtaH    ", #  11 in fldList, rec= 243
(PID.TID 0000.0001) READ_MFLDS_CHECK: - normal end ; reset MFLDS file-name: pickup.0000008640
(PID.TID 0000.0001) // =======================================================
(PID.TID 0000.0001) // Model current state
(PID.TID 0000.0001) // =======================================================
(PID.TID 0000.0001) 
(PID.TID 0000.0001) SOLVE_FOR_PRESSURE: putPmEinXvector =    F
 cg2d: Sum(rhs),rhsMax =   7.01327884655711E-13  5.97849185311197E-02
 cg2d: Sum(rhs),rhsMax =   7.22116810791817E-13  5.85466138921142E-02
 cg2d: Sum(rhs),rhsMax =   7.15594250522145E-13  5.84695841113165E-02
 cg2d: Sum(rhs),rhsMax =   7.17897963298242E-13  5.84526906825183E-02
 cg2d: Sum(rhs),rhsMax =   7.20243309437762E-13  5.84006605137576E-02
 cg2d: Sum(rhs),rhsMax =   7.21839255035661E-13  5.83965555220950E-02
 cg2d: Sum(rhs),rhsMax =   7.18987369641155E-13  5.84579952118590E-02
 cg2d: Sum(rhs),rhsMax =   7.16621206819923E-13  5.85308739533381E-02
 cg2d: Sum(rhs),rhsMax =   7.14112796673660E-13  5.86156096923007E-02
 cg2d: Sum(rhs),rhsMax =   7.17038407815895E-13  5.87104337216979E-02
(PID.TID 0000.0001) Did not write pickup because writePickupAtEnd = FALSE
 --> objf_shelfice(bi,bj) =  0.000000000000000D+00
 --> objf_shifwflx(bi,bj) =  0.000000000000000D+00
 --> objf_shelfice(bi,bj) =  0.000000000000000D+00
 --> objf_shifwflx(bi,bj) =  0.000000000000000D+00
 --> objf_shelfice(bi,bj) =  0.000000000000000D+00
 --> objf_shifwflx(bi,bj) =  0.000000000000000D+00
 --> objf_shelfice(bi,bj) =  0.000000000000000D+00
 --> objf_shifwflx(bi,bj) =  0.000000000000000D+00
 --> objf_shelfice(bi,bj) =  0.000000000000000D+00
 --> objf_shifwflx(bi,bj) =  0.000000000000000D+00
 --> objf_shelfice(bi,bj) =  0.000000000000000D+00
 --> objf_shifwflx(bi,bj) =  0.000000000000000D+00
 --> objf_shelfice(bi,bj) =  0.000000000000000D+00
 --> objf_shifwflx(bi,bj) =  0.000000000000000D+00
 --> objf_shelfice(bi,bj) =  0.000000000000000D+00
 --> objf_shifwflx(bi,bj) =  0.000000000000000D+00
 ph-1 in thsice_cost_final
 ph-3 in thsice_cost_final
 --> objf_test(bi,bj)   =  0.272349034873363D+05
 --> objf_tracer(bi,bj) =  0.000000000000000D+00
 --> objf_atl(bi,bj)    =  0.000000000000000D+00
 --> objf_test(bi,bj)   =  0.280685772361655D+05
 --> objf_tracer(bi,bj) =  0.000000000000000D+00
 --> objf_atl(bi,bj)    =  0.000000000000000D+00
 --> objf_test(bi,bj)   =  0.489344114045443D+05
 --> objf_tracer(bi,bj) =  0.000000000000000D+00
 --> objf_atl(bi,bj)    =  0.000000000000000D+00
 --> objf_test(bi,bj)   =  0.505652022126229D+05
 --> objf_tracer(bi,bj) =  0.000000000000000D+00
 --> objf_atl(bi,bj)    =  0.000000000000000D+00
 --> objf_test(bi,bj)   =  0.526343617737059D+05
 --> objf_tracer(bi,bj) =  0.000000000000000D+00
 --> objf_atl(bi,bj)    =  0.000000000000000D+00
 --> objf_test(bi,bj)   =  0.548257487504673D+05
 --> objf_tracer(bi,bj) =  0.000000000000000D+00
 --> objf_atl(bi,bj)    =  0.000000000000000D+00
 --> objf_test(bi,bj)   =  0.526324781251365D+05
 --> objf_tracer(bi,bj) =  0.000000000000000D+00
 --> objf_atl(bi,bj)    =  0.000000000000000D+00
 --> objf_test(bi,bj)   =  0.548254981144283D+05
 --> objf_tracer(bi,bj) =  0.000000000000000D+00
 --> objf_atl(bi,bj)    =  0.000000000000000D+00
  local fc =  0.369721181104407D+06
 global fc =  0.369721181104407D+06
(PID.TID 0000.0001) grdchk perturb(+)fc: fcpertplus  =  3.69721181104407E+05
(PID.TID 0000.0001)  nRecords = 243 ; filePrec =  64 ; fileIter =      8640
(PID.TID 0000.0001)     nDims =   2 , dims:
(PID.TID 0000.0001)    1:  50   1  50
(PID.TID 0000.0001)    2: 100   1 100
(PID.TID 0000.0001)     nFlds =  11 , nFl3D =   8 , fields:
(PID.TID 0000.0001)  >Uvel    < >Vvel    < >Theta   < >Salt    < >GuNm1   < >GvNm1   < >GtNm1   < >GsNm1   < >EtaN    < >dEtaHdt < >EtaH    <
(PID.TID 0000.0001) missingVal=  1.00000000000000E+00 ; nTimRec =   1 , timeList:
(PID.TID 0000.0001)   1.555200000000E+07
(PID.TID 0000.0001) READ_MFLDS_3D_RL: read field: "Uvel    ", #   1 in fldList, rec=   1
(PID.TID 0000.0001) READ_MFLDS_3D_RL: read field: "Vvel    ", #   2 in fldList, rec=   2
(PID.TID 0000.0001) READ_MFLDS_3D_RL: read field: "Theta   ", #   3 in fldList, rec=   3
(PID.TID 0000.0001) READ_MFLDS_3D_RL: read field: "Salt    ", #   4 in fldList, rec=   4
(PID.TID 0000.0001) READ_MFLDS_3D_RL: read field: "GuNm1   ", #   5 in fldList, rec=   5
(PID.TID 0000.0001) READ_MFLDS_3D_RL: read field: "GvNm1   ", #   6 in fldList, rec=   6
(PID.TID 0000.0001) READ_MFLDS_3D_RL: read field: "GtNm1   ", #   7 in fldList, rec=   7
(PID.TID 0000.0001) READ_MFLDS_3D_RL: read field: "GsNm1   ", #   8 in fldList, rec=   8
(PID.TID 0000.0001) READ_MFLDS_3D_RL: read field: "EtaN    ", #   9 in fldList, rec= 241
(PID.TID 0000.0001) READ_MFLDS_3D_RL: read field: "dEtaHdt ", #  10 in fldList, rec= 242
(PID.TID 0000.0001) READ_MFLDS_3D_RL: read field: "EtaH    ", #  11 in fldList, rec= 243
(PID.TID 0000.0001) READ_MFLDS_CHECK: - normal end ; reset MFLDS file-name: pickup.0000008640
(PID.TID 0000.0001) // =======================================================
(PID.TID 0000.0001) // Model current state
(PID.TID 0000.0001) // =======================================================
(PID.TID 0000.0001) 
(PID.TID 0000.0001) SOLVE_FOR_PRESSURE: putPmEinXvector =    F
 cg2d: Sum(rhs),rhsMax =   7.01438906958174E-13  5.97849185311197E-02
 cg2d: Sum(rhs),rhsMax =   7.15719150612415E-13  5.85466149604973E-02
 cg2d: Sum(rhs),rhsMax =   7.13248904382624E-13  5.84695849111080E-02
 cg2d: Sum(rhs),rhsMax =   7.16857129212656E-13  5.84526906143889E-02
 cg2d: Sum(rhs),rhsMax =   7.19493908896141E-13  5.84006600564081E-02
 cg2d: Sum(rhs),rhsMax =   7.17870207722626E-13  5.83965554645804E-02
 cg2d: Sum(rhs),rhsMax =   7.17120807181004E-13  5.84579952861703E-02
 cg2d: Sum(rhs),rhsMax =   7.17148562756620E-13  5.85308740826464E-02
 cg2d: Sum(rhs),rhsMax =   7.12898490240477E-13  5.86156098609321E-02
 cg2d: Sum(rhs),rhsMax =   7.14301881532542E-13  5.87104339844919E-02
(PID.TID 0000.0001) Did not write pickup because writePickupAtEnd = FALSE
 --> objf_shelfice(bi,bj) =  0.000000000000000D+00
 --> objf_shifwflx(bi,bj) =  0.000000000000000D+00
 --> objf_shelfice(bi,bj) =  0.000000000000000D+00
 --> objf_shifwflx(bi,bj) =  0.000000000000000D+00
 --> objf_shelfice(bi,bj) =  0.000000000000000D+00
 --> objf_shifwflx(bi,bj) =  0.000000000000000D+00
 --> objf_shelfice(bi,bj) =  0.000000000000000D+00
 --> objf_shifwflx(bi,bj) =  0.000000000000000D+00
 --> objf_shelfice(bi,bj) =  0.000000000000000D+00
 --> objf_shifwflx(bi,bj) =  0.000000000000000D+00
 --> objf_shelfice(bi,bj) =  0.000000000000000D+00
 --> objf_shifwflx(bi,bj) =  0.000000000000000D+00
 --> objf_shelfice(bi,bj) =  0.000000000000000D+00
 --> objf_shifwflx(bi,bj) =  0.000000000000000D+00
 --> objf_shelfice(bi,bj) =  0.000000000000000D+00
 --> objf_shifwflx(bi,bj) =  0.000000000000000D+00
 ph-1 in thsice_cost_final
 ph-3 in thsice_cost_final
 --> objf_test(bi,bj)   =  0.272349799946362D+05
 --> objf_tracer(bi,bj) =  0.000000000000000D+00
 --> objf_atl(bi,bj)    =  0.000000000000000D+00
 --> objf_test(bi,bj)   =  0.280685772367822D+05
 --> objf_tracer(bi,bj) =  0.000000000000000D+00
 --> objf_atl(bi,bj)    =  0.000000000000000D+00
 --> objf_test(bi,bj)   =  0.489344114049690D+05
 --> objf_tracer(bi,bj) =  0.000000000000000D+00
 --> objf_atl(bi,bj)    =  0.000000000000000D+00
 --> objf_test(bi,bj)   =  0.505652022126593D+05
 --> objf_tracer(bi,bj) =  0.000000000000000D+00
 --> objf_atl(bi,bj)    =  0.000000000000000D+00
 --> objf_test(bi,bj)   =  0.526343617737109D+05
 --> objf_tracer(bi,bj) =  0.000000000000000D+00
 --> objf_atl(bi,bj)    =  0.000000000000000D+00
 --> objf_test(bi,bj)   =  0.548257487504649D+05
 --> objf_tracer(bi,bj) =  0.000000000000000D+00
 --> objf_atl(bi,bj)    =  0.000000000000000D+00
 --> objf_test(bi,bj)   =  0.526324781251433D+05
 --> objf_tracer(bi,bj) =  0.000000000000000D+00
 --> objf_atl(bi,bj)    =  0.000000000000000D+00
 --> objf_test(bi,bj)   =  0.548254981144305D+05
 --> objf_tracer(bi,bj) =  0.000000000000000D+00
 --> objf_atl(bi,bj)    =  0.000000000000000D+00
  local fc =  0.369721257612796D+06
 global fc =  0.369721257612796D+06
(PID.TID 0000.0001) grdchk perturb(-)fc: fcpertminus =  3.69721257612796E+05
grad-res -------------------------------
 grad-res     0    3   22   24   20    1    1    1   3.69721219278E+05  3.69721181104E+05  3.69721257613E+05
 grad-res     0    3    3 1581    0    1    1    1  -3.82541946043E+00 -3.82541945437E+00  1.58373592019E-09
(PID.TID 0000.0001)  ADM  ref_cost_function      =  3.69721219277520E+05
(PID.TID 0000.0001)  ADM  adjoint_gradient       = -3.82541946042815E+00
(PID.TID 0000.0001)  ADM  finite-diff_grad       = -3.82541945436969E+00
(PID.TID 0000.0001) ====== End of gradient-check number   3 (ierr=  0) =======
(PID.TID 0000.0001) ====== Starts gradient-check number   4 (=ichknum) =======
 ph-test icomp, ncvarcomp, ichknum         1582      100450           4
 ph-grd _loc: bi, bj, icomptest, ichknum            1           1        1581           4
 ph-grd -->hit<--           23          24          20           1
(PID.TID 0000.0001) grdchk pos: i,j,k=   23   24   20 ; bi,bj=   1   1 ; iobc=  1 ; rec=   1
(PID.TID 0000.0001)  nRecords = 243 ; filePrec =  64 ; fileIter =      8640
(PID.TID 0000.0001)     nDims =   2 , dims:
(PID.TID 0000.0001)    1:  50   1  50
(PID.TID 0000.0001)    2: 100   1 100
(PID.TID 0000.0001)     nFlds =  11 , nFl3D =   8 , fields:
(PID.TID 0000.0001)  >Uvel    < >Vvel    < >Theta   < >Salt    < >GuNm1   < >GvNm1   < >GtNm1   < >GsNm1   < >EtaN    < >dEtaHdt < >EtaH    <
(PID.TID 0000.0001) missingVal=  1.00000000000000E+00 ; nTimRec =   1 , timeList:
(PID.TID 0000.0001)   1.555200000000E+07
(PID.TID 0000.0001) READ_MFLDS_3D_RL: read field: "Uvel    ", #   1 in fldList, rec=   1
(PID.TID 0000.0001) READ_MFLDS_3D_RL: read field: "Vvel    ", #   2 in fldList, rec=   2
(PID.TID 0000.0001) READ_MFLDS_3D_RL: read field: "Theta   ", #   3 in fldList, rec=   3
(PID.TID 0000.0001) READ_MFLDS_3D_RL: read field: "Salt    ", #   4 in fldList, rec=   4
(PID.TID 0000.0001) READ_MFLDS_3D_RL: read field: "GuNm1   ", #   5 in fldList, rec=   5
(PID.TID 0000.0001) READ_MFLDS_3D_RL: read field: "GvNm1   ", #   6 in fldList, rec=   6
(PID.TID 0000.0001) READ_MFLDS_3D_RL: read field: "GtNm1   ", #   7 in fldList, rec=   7
(PID.TID 0000.0001) READ_MFLDS_3D_RL: read field: "GsNm1   ", #   8 in fldList, rec=   8
(PID.TID 0000.0001) READ_MFLDS_3D_RL: read field: "EtaN    ", #   9 in fldList, rec= 241
(PID.TID 0000.0001) READ_MFLDS_3D_RL: read field: "dEtaHdt ", #  10 in fldList, rec= 242
(PID.TID 0000.0001) READ_MFLDS_3D_RL: read field: "EtaH    ", #  11 in fldList, rec= 243
(PID.TID 0000.0001) READ_MFLDS_CHECK: - normal end ; reset MFLDS file-name: pickup.0000008640
(PID.TID 0000.0001) // =======================================================
(PID.TID 0000.0001) // Model current state
(PID.TID 0000.0001) // =======================================================
(PID.TID 0000.0001) 
(PID.TID 0000.0001) SOLVE_FOR_PRESSURE: putPmEinXvector =    F
 cg2d: Sum(rhs),rhsMax =   7.01216862353249E-13  5.97849185311197E-02
 cg2d: Sum(rhs),rhsMax =   7.17911841086050E-13  5.85466139237247E-02
 cg2d: Sum(rhs),rhsMax =   7.14525660860943E-13  5.84695840997208E-02
 cg2d: Sum(rhs),rhsMax =   7.14303616256018E-13  5.84526906242253E-02
 cg2d: Sum(rhs),rhsMax =   7.18078374539743E-13  5.84006604348864E-02
 cg2d: Sum(rhs),rhsMax =   7.18577974900825E-13  5.83965554273620E-02
 cg2d: Sum(rhs),rhsMax =   7.17738368738452E-13  5.84579950950629E-02
 cg2d: Sum(rhs),rhsMax =   7.14650560951213E-13  5.85308738116256E-02
 cg2d: Sum(rhs),rhsMax =   7.13224618253960E-13  5.86156095262231E-02
 cg2d: Sum(rhs),rhsMax =   7.14185655059651E-13  5.87104335327497E-02
(PID.TID 0000.0001) Did not write pickup because writePickupAtEnd = FALSE
 --> objf_shelfice(bi,bj) =  0.000000000000000D+00
 --> objf_shifwflx(bi,bj) =  0.000000000000000D+00
 --> objf_shelfice(bi,bj) =  0.000000000000000D+00
 --> objf_shifwflx(bi,bj) =  0.000000000000000D+00
 --> objf_shelfice(bi,bj) =  0.000000000000000D+00
 --> objf_shifwflx(bi,bj) =  0.000000000000000D+00
 --> objf_shelfice(bi,bj) =  0.000000000000000D+00
 --> objf_shifwflx(bi,bj) =  0.000000000000000D+00
 --> objf_shelfice(bi,bj) =  0.000000000000000D+00
 --> objf_shifwflx(bi,bj) =  0.000000000000000D+00
 --> objf_shelfice(bi,bj) =  0.000000000000000D+00
 --> objf_shifwflx(bi,bj) =  0.000000000000000D+00
 --> objf_shelfice(bi,bj) =  0.000000000000000D+00
 --> objf_shifwflx(bi,bj) =  0.000000000000000D+00
 --> objf_shelfice(bi,bj) =  0.000000000000000D+00
 --> objf_shifwflx(bi,bj) =  0.000000000000000D+00
 ph-1 in thsice_cost_final
 ph-3 in thsice_cost_final
 --> objf_test(bi,bj)   =  0.272349034904889D+05
 --> objf_tracer(bi,bj) =  0.000000000000000D+00
 --> objf_atl(bi,bj)    =  0.000000000000000D+00
 --> objf_test(bi,bj)   =  0.280685772353846D+05
 --> objf_tracer(bi,bj) =  0.000000000000000D+00
 --> objf_atl(bi,bj)    =  0.000000000000000D+00
 --> objf_test(bi,bj)   =  0.489344114045957D+05
 --> objf_tracer(bi,bj) =  0.000000000000000D+00
 --> objf_atl(bi,bj)    =  0.000000000000000D+00
 --> objf_test(bi,bj)   =  0.505652022125469D+05
 --> objf_tracer(bi,bj) =  0.000000000000000D+00
 --> objf_atl(bi,bj)    =  0.000000000000000D+00
 --> objf_test(bi,bj)   =  0.526343617737062D+05
 --> objf_tracer(bi,bj) =  0.000000000000000D+00
 --> objf_atl(bi,bj)    =  0.000000000000000D+00
 --> objf_test(bi,bj)   =  0.548257487504674D+05
 --> objf_tracer(bi,bj) =  0.000000000000000D+00
 --> objf_atl(bi,bj)    =  0.000000000000000D+00
 --> objf_test(bi,bj)   =  0.526324781251368D+05
 --> objf_tracer(bi,bj) =  0.000000000000000D+00
 --> objf_atl(bi,bj)    =  0.000000000000000D+00
 --> objf_test(bi,bj)   =  0.548254981144285D+05
 --> objf_tracer(bi,bj) =  0.000000000000000D+00
 --> objf_atl(bi,bj)    =  0.000000000000000D+00
  local fc =  0.369721181106755D+06
 global fc =  0.369721181106755D+06
(PID.TID 0000.0001) grdchk perturb(+)fc: fcpertplus  =  3.69721181106755E+05
(PID.TID 0000.0001)  nRecords = 243 ; filePrec =  64 ; fileIter =      8640
(PID.TID 0000.0001)     nDims =   2 , dims:
(PID.TID 0000.0001)    1:  50   1  50
(PID.TID 0000.0001)    2: 100   1 100
(PID.TID 0000.0001)     nFlds =  11 , nFl3D =   8 , fields:
(PID.TID 0000.0001)  >Uvel    < >Vvel    < >Theta   < >Salt    < >GuNm1   < >GvNm1   < >GtNm1   < >GsNm1   < >EtaN    < >dEtaHdt < >EtaH    <
(PID.TID 0000.0001) missingVal=  1.00000000000000E+00 ; nTimRec =   1 , timeList:
(PID.TID 0000.0001)   1.555200000000E+07
(PID.TID 0000.0001) READ_MFLDS_3D_RL: read field: "Uvel    ", #   1 in fldList, rec=   1
(PID.TID 0000.0001) READ_MFLDS_3D_RL: read field: "Vvel    ", #   2 in fldList, rec=   2
(PID.TID 0000.0001) READ_MFLDS_3D_RL: read field: "Theta   ", #   3 in fldList, rec=   3
(PID.TID 0000.0001) READ_MFLDS_3D_RL: read field: "Salt    ", #   4 in fldList, rec=   4
(PID.TID 0000.0001) READ_MFLDS_3D_RL: read field: "GuNm1   ", #   5 in fldList, rec=   5
(PID.TID 0000.0001) READ_MFLDS_3D_RL: read field: "GvNm1   ", #   6 in fldList, rec=   6
(PID.TID 0000.0001) READ_MFLDS_3D_RL: read field: "GtNm1   ", #   7 in fldList, rec=   7
(PID.TID 0000.0001) READ_MFLDS_3D_RL: read field: "GsNm1   ", #   8 in fldList, rec=   8
(PID.TID 0000.0001) READ_MFLDS_3D_RL: read field: "EtaN    ", #   9 in fldList, rec= 241
(PID.TID 0000.0001) READ_MFLDS_3D_RL: read field: "dEtaHdt ", #  10 in fldList, rec= 242
(PID.TID 0000.0001) READ_MFLDS_3D_RL: read field: "EtaH    ", #  11 in fldList, rec= 243
(PID.TID 0000.0001) READ_MFLDS_CHECK: - normal end ; reset MFLDS file-name: pickup.0000008640
(PID.TID 0000.0001) // =======================================================
(PID.TID 0000.0001) // Model current state
(PID.TID 0000.0001) // =======================================================
(PID.TID 0000.0001) 
(PID.TID 0000.0001) SOLVE_FOR_PRESSURE: putPmEinXvector =    F
 cg2d: Sum(rhs),rhsMax =   7.01549929260636E-13  5.97849185311197E-02
 cg2d: Sum(rhs),rhsMax =   7.18619608264248E-13  5.85466149290878E-02
 cg2d: Sum(rhs),rhsMax =   7.18008985600704E-13  5.84695849226953E-02
 cg2d: Sum(rhs),rhsMax =   7.18938797383828E-13  5.84526906727228E-02
 cg2d: Sum(rhs),rhsMax =   7.19993509257222E-13  5.84006601349373E-02
 cg2d: Sum(rhs),rhsMax =   7.16982029302926E-13  5.83965555589844E-02
 cg2d: Sum(rhs),rhsMax =   7.17585713072566E-13  5.84579954027223E-02
 cg2d: Sum(rhs),rhsMax =   7.15233428039141E-13  5.85308742239795E-02
 cg2d: Sum(rhs),rhsMax =   7.17897963298242E-13  5.86156100266314E-02
 cg2d: Sum(rhs),rhsMax =   7.15555219243935E-13  5.87104341727734E-02
(PID.TID 0000.0001) Did not write pickup because writePickupAtEnd = FALSE
 --> objf_shelfice(bi,bj) =  0.000000000000000D+00
 --> objf_shifwflx(bi,bj) =  0.000000000000000D+00
 --> objf_shelfice(bi,bj) =  0.000000000000000D+00
 --> objf_shifwflx(bi,bj) =  0.000000000000000D+00
 --> objf_shelfice(bi,bj) =  0.000000000000000D+00
 --> objf_shifwflx(bi,bj) =  0.000000000000000D+00
 --> objf_shelfice(bi,bj) =  0.000000000000000D+00
 --> objf_shifwflx(bi,bj) =  0.000000000000000D+00
 --> objf_shelfice(bi,bj) =  0.000000000000000D+00
 --> objf_shifwflx(bi,bj) =  0.000000000000000D+00
 --> objf_shelfice(bi,bj) =  0.000000000000000D+00
 --> objf_shifwflx(bi,bj) =  0.000000000000000D+00
 --> objf_shelfice(bi,bj) =  0.000000000000000D+00
 --> objf_shifwflx(bi,bj) =  0.000000000000000D+00
 --> objf_shelfice(bi,bj) =  0.000000000000000D+00
 --> objf_shifwflx(bi,bj) =  0.000000000000000D+00
 ph-1 in thsice_cost_final
 ph-3 in thsice_cost_final
 --> objf_test(bi,bj)   =  0.272349799914857D+05
 --> objf_tracer(bi,bj) =  0.000000000000000D+00
 --> objf_atl(bi,bj)    =  0.000000000000000D+00
 --> objf_test(bi,bj)   =  0.280685772375608D+05
 --> objf_tracer(bi,bj) =  0.000000000000000D+00
 --> objf_atl(bi,bj)    =  0.000000000000000D+00
 --> objf_test(bi,bj)   =  0.489344114049179D+05
 --> objf_tracer(bi,bj) =  0.000000000000000D+00
 --> objf_atl(bi,bj)    =  0.000000000000000D+00
 --> objf_test(bi,bj)   =  0.505652022127351D+05
 --> objf_tracer(bi,bj) =  0.000000000000000D+00
 --> objf_atl(bi,bj)    =  0.000000000000000D+00
 --> objf_test(bi,bj)   =  0.526343617737106D+05
 --> objf_tracer(bi,bj) =  0.000000000000000D+00
 --> objf_atl(bi,bj)    =  0.000000000000000D+00
 --> objf_test(bi,bj)   =  0.548257487504648D+05
 --> objf_tracer(bi,bj) =  0.000000000000000D+00
 --> objf_atl(bi,bj)    =  0.000000000000000D+00
 --> objf_test(bi,bj)   =  0.526324781251428D+05
 --> objf_tracer(bi,bj) =  0.000000000000000D+00
 --> objf_atl(bi,bj)    =  0.000000000000000D+00
 --> objf_test(bi,bj)   =  0.548254981144302D+05
 --> objf_tracer(bi,bj) =  0.000000000000000D+00
 --> objf_atl(bi,bj)    =  0.000000000000000D+00
  local fc =  0.369721257610448D+06
 global fc =  0.369721257610448D+06
(PID.TID 0000.0001) grdchk perturb(-)fc: fcpertminus =  3.69721257610448E+05
grad-res -------------------------------
 grad-res     0    4   23   24   20    1    1    1   3.69721219278E+05  3.69721181107E+05  3.69721257610E+05
 grad-res     0    4    4 1582    0    1    1    1  -3.82518464795E+00 -3.82518464467E+00  8.59864845992E-10
(PID.TID 0000.0001)  ADM  ref_cost_function      =  3.69721219277520E+05
(PID.TID 0000.0001)  ADM  adjoint_gradient       = -3.82518464795471E+00
(PID.TID 0000.0001)  ADM  finite-diff_grad       = -3.82518464466557E+00
(PID.TID 0000.0001) ====== End of gradient-check number   4 (ierr=  0) =======
(PID.TID 0000.0001) ====== Starts gradient-check number   5 (=ichknum) =======
 ph-test icomp, ncvarcomp, ichknum         1583      100450           5
 ph-grd _loc: bi, bj, icomptest, ichknum            1           1        1582           5
 ph-grd -->hit<--           24          24          20           1
(PID.TID 0000.0001) grdchk pos: i,j,k=   24   24   20 ; bi,bj=   1   1 ; iobc=  1 ; rec=   1
(PID.TID 0000.0001)  nRecords = 243 ; filePrec =  64 ; fileIter =      8640
(PID.TID 0000.0001)     nDims =   2 , dims:
(PID.TID 0000.0001)    1:  50   1  50
(PID.TID 0000.0001)    2: 100   1 100
(PID.TID 0000.0001)     nFlds =  11 , nFl3D =   8 , fields:
(PID.TID 0000.0001)  >Uvel    < >Vvel    < >Theta   < >Salt    < >GuNm1   < >GvNm1   < >GtNm1   < >GsNm1   < >EtaN    < >dEtaHdt < >EtaH    <
(PID.TID 0000.0001) missingVal=  1.00000000000000E+00 ; nTimRec =   1 , timeList:
(PID.TID 0000.0001)   1.555200000000E+07
(PID.TID 0000.0001) READ_MFLDS_3D_RL: read field: "Uvel    ", #   1 in fldList, rec=   1
(PID.TID 0000.0001) READ_MFLDS_3D_RL: read field: "Vvel    ", #   2 in fldList, rec=   2
(PID.TID 0000.0001) READ_MFLDS_3D_RL: read field: "Theta   ", #   3 in fldList, rec=   3
(PID.TID 0000.0001) READ_MFLDS_3D_RL: read field: "Salt    ", #   4 in fldList, rec=   4
(PID.TID 0000.0001) READ_MFLDS_3D_RL: read field: "GuNm1   ", #   5 in fldList, rec=   5
(PID.TID 0000.0001) READ_MFLDS_3D_RL: read field: "GvNm1   ", #   6 in fldList, rec=   6
(PID.TID 0000.0001) READ_MFLDS_3D_RL: read field: "GtNm1   ", #   7 in fldList, rec=   7
(PID.TID 0000.0001) READ_MFLDS_3D_RL: read field: "GsNm1   ", #   8 in fldList, rec=   8
(PID.TID 0000.0001) READ_MFLDS_3D_RL: read field: "EtaN    ", #   9 in fldList, rec= 241
(PID.TID 0000.0001) READ_MFLDS_3D_RL: read field: "dEtaHdt ", #  10 in fldList, rec= 242
(PID.TID 0000.0001) READ_MFLDS_3D_RL: read field: "EtaH    ", #  11 in fldList, rec= 243
(PID.TID 0000.0001) READ_MFLDS_CHECK: - normal end ; reset MFLDS file-name: pickup.0000008640
(PID.TID 0000.0001) // =======================================================
(PID.TID 0000.0001) // Model current state
(PID.TID 0000.0001) // =======================================================
(PID.TID 0000.0001) 
(PID.TID 0000.0001) SOLVE_FOR_PRESSURE: putPmEinXvector =    F
 cg2d: Sum(rhs),rhsMax =   7.01216862353249E-13  5.97849185311197E-02
 cg2d: Sum(rhs),rhsMax =   7.14484027497519E-13  5.85466139539063E-02
 cg2d: Sum(rhs),rhsMax =   7.19535542259564E-13  5.84695840912936E-02
 cg2d: Sum(rhs),rhsMax =   7.20659643071997E-13  5.84526905723219E-02
 cg2d: Sum(rhs),rhsMax =   7.18980430747251E-13  5.84006603636509E-02
 cg2d: Sum(rhs),rhsMax =   7.18564097113017E-13  5.83965553450435E-02
 cg2d: Sum(rhs),rhsMax =   7.18904102914308E-13  5.84579949938887E-02
 cg2d: Sum(rhs),rhsMax =   7.16704473546770E-13  5.85308736890739E-02
 cg2d: Sum(rhs),rhsMax =   7.13647890782099E-13  5.86156093820966E-02
 cg2d: Sum(rhs),rhsMax =   7.13011247266415E-13  5.87104333695320E-02
(PID.TID 0000.0001) Did not write pickup because writePickupAtEnd = FALSE
 --> objf_shelfice(bi,bj) =  0.000000000000000D+00
 --> objf_shifwflx(bi,bj) =  0.000000000000000D+00
 --> objf_shelfice(bi,bj) =  0.000000000000000D+00
 --> objf_shifwflx(bi,bj) =  0.000000000000000D+00
 --> objf_shelfice(bi,bj) =  0.000000000000000D+00
 --> objf_shifwflx(bi,bj) =  0.000000000000000D+00
 --> objf_shelfice(bi,bj) =  0.000000000000000D+00
 --> objf_shifwflx(bi,bj) =  0.000000000000000D+00
 --> objf_shelfice(bi,bj) =  0.000000000000000D+00
 --> objf_shifwflx(bi,bj) =  0.000000000000000D+00
 --> objf_shelfice(bi,bj) =  0.000000000000000D+00
 --> objf_shifwflx(bi,bj) =  0.000000000000000D+00
 --> objf_shelfice(bi,bj) =  0.000000000000000D+00
 --> objf_shifwflx(bi,bj) =  0.000000000000000D+00
 --> objf_shelfice(bi,bj) =  0.000000000000000D+00
 --> objf_shifwflx(bi,bj) =  0.000000000000000D+00
 ph-1 in thsice_cost_final
 ph-3 in thsice_cost_final
 --> objf_test(bi,bj)   =  0.272349034942589D+05
 --> objf_tracer(bi,bj) =  0.000000000000000D+00
 --> objf_atl(bi,bj)    =  0.000000000000000D+00
 --> objf_test(bi,bj)   =  0.280685772332146D+05
 --> objf_tracer(bi,bj) =  0.000000000000000D+00
 --> objf_atl(bi,bj)    =  0.000000000000000D+00
 --> objf_test(bi,bj)   =  0.489344114048907D+05
 --> objf_tracer(bi,bj) =  0.000000000000000D+00
 --> objf_atl(bi,bj)    =  0.000000000000000D+00
 --> objf_test(bi,bj)   =  0.505652022122298D+05
 --> objf_tracer(bi,bj) =  0.000000000000000D+00
 --> objf_atl(bi,bj)    =  0.000000000000000D+00
 --> objf_test(bi,bj)   =  0.526343617737065D+05
 --> objf_tracer(bi,bj) =  0.000000000000000D+00
 --> objf_atl(bi,bj)    =  0.000000000000000D+00
 --> objf_test(bi,bj)   =  0.548257487504675D+05
 --> objf_tracer(bi,bj) =  0.000000000000000D+00
 --> objf_atl(bi,bj)    =  0.000000000000000D+00
 --> objf_test(bi,bj)   =  0.526324781251371D+05
 --> objf_tracer(bi,bj) =  0.000000000000000D+00
 --> objf_atl(bi,bj)    =  0.000000000000000D+00
 --> objf_test(bi,bj)   =  0.548254981144288D+05
 --> objf_tracer(bi,bj) =  0.000000000000000D+00
 --> objf_atl(bi,bj)    =  0.000000000000000D+00
  local fc =  0.369721181108334D+06
 global fc =  0.369721181108334D+06
(PID.TID 0000.0001) grdchk perturb(+)fc: fcpertplus  =  3.69721181108334E+05
(PID.TID 0000.0001)  nRecords = 243 ; filePrec =  64 ; fileIter =      8640
(PID.TID 0000.0001)     nDims =   2 , dims:
(PID.TID 0000.0001)    1:  50   1  50
(PID.TID 0000.0001)    2: 100   1 100
(PID.TID 0000.0001)     nFlds =  11 , nFl3D =   8 , fields:
(PID.TID 0000.0001)  >Uvel    < >Vvel    < >Theta   < >Salt    < >GuNm1   < >GvNm1   < >GtNm1   < >GsNm1   < >EtaN    < >dEtaHdt < >EtaH    <
(PID.TID 0000.0001) missingVal=  1.00000000000000E+00 ; nTimRec =   1 , timeList:
(PID.TID 0000.0001)   1.555200000000E+07
(PID.TID 0000.0001) READ_MFLDS_3D_RL: read field: "Uvel    ", #   1 in fldList, rec=   1
(PID.TID 0000.0001) READ_MFLDS_3D_RL: read field: "Vvel    ", #   2 in fldList, rec=   2
(PID.TID 0000.0001) READ_MFLDS_3D_RL: read field: "Theta   ", #   3 in fldList, rec=   3
(PID.TID 0000.0001) READ_MFLDS_3D_RL: read field: "Salt    ", #   4 in fldList, rec=   4
(PID.TID 0000.0001) READ_MFLDS_3D_RL: read field: "GuNm1   ", #   5 in fldList, rec=   5
(PID.TID 0000.0001) READ_MFLDS_3D_RL: read field: "GvNm1   ", #   6 in fldList, rec=   6
(PID.TID 0000.0001) READ_MFLDS_3D_RL: read field: "GtNm1   ", #   7 in fldList, rec=   7
(PID.TID 0000.0001) READ_MFLDS_3D_RL: read field: "GsNm1   ", #   8 in fldList, rec=   8
(PID.TID 0000.0001) READ_MFLDS_3D_RL: read field: "EtaN    ", #   9 in fldList, rec= 241
(PID.TID 0000.0001) READ_MFLDS_3D_RL: read field: "dEtaHdt ", #  10 in fldList, rec= 242
(PID.TID 0000.0001) READ_MFLDS_3D_RL: read field: "EtaH    ", #  11 in fldList, rec= 243
(PID.TID 0000.0001) READ_MFLDS_CHECK: - normal end ; reset MFLDS file-name: pickup.0000008640
(PID.TID 0000.0001) // =======================================================
(PID.TID 0000.0001) // Model current state
(PID.TID 0000.0001) // =======================================================
(PID.TID 0000.0001) 
(PID.TID 0000.0001) SOLVE_FOR_PRESSURE: putPmEinXvector =    F
 cg2d: Sum(rhs),rhsMax =   7.01438906958174E-13  5.97849185311197E-02
 cg2d: Sum(rhs),rhsMax =   7.17426118512776E-13  5.85466148988185E-02
 cg2d: Sum(rhs),rhsMax =   7.15150161312295E-13  5.84695849310604E-02
 cg2d: Sum(rhs),rhsMax =   7.17342851785929E-13  5.84526907246120E-02
 cg2d: Sum(rhs),rhsMax =   7.19632686774219E-13  5.84006602059222E-02
 cg2d: Sum(rhs),rhsMax =   7.17745307632356E-13  5.83965556409479E-02
 cg2d: Sum(rhs),rhsMax =   7.18293480250765E-13  5.84579955036970E-02
 cg2d: Sum(rhs),rhsMax =   7.16232628761304E-13  5.85308743466231E-02
 cg2d: Sum(rhs),rhsMax =   7.12705935934643E-13  5.86156101698496E-02
 cg2d: Sum(rhs),rhsMax =   7.11368464134665E-13  5.87104343353901E-02
(PID.TID 0000.0001) Did not write pickup because writePickupAtEnd = FALSE
 --> objf_shelfice(bi,bj) =  0.000000000000000D+00
 --> objf_shifwflx(bi,bj) =  0.000000000000000D+00
 --> objf_shelfice(bi,bj) =  0.000000000000000D+00
 --> objf_shifwflx(bi,bj) =  0.000000000000000D+00
 --> objf_shelfice(bi,bj) =  0.000000000000000D+00
 --> objf_shifwflx(bi,bj) =  0.000000000000000D+00
 --> objf_shelfice(bi,bj) =  0.000000000000000D+00
 --> objf_shifwflx(bi,bj) =  0.000000000000000D+00
 --> objf_shelfice(bi,bj) =  0.000000000000000D+00
 --> objf_shifwflx(bi,bj) =  0.000000000000000D+00
 --> objf_shelfice(bi,bj) =  0.000000000000000D+00
 --> objf_shifwflx(bi,bj) =  0.000000000000000D+00
 --> objf_shelfice(bi,bj) =  0.000000000000000D+00
 --> objf_shifwflx(bi,bj) =  0.000000000000000D+00
 --> objf_shelfice(bi,bj) =  0.000000000000000D+00
 --> objf_shifwflx(bi,bj) =  0.000000000000000D+00
 ph-1 in thsice_cost_final
 ph-3 in thsice_cost_final
 --> objf_test(bi,bj)   =  0.272349799876674D+05
 --> objf_tracer(bi,bj) =  0.000000000000000D+00
 --> objf_atl(bi,bj)    =  0.000000000000000D+00
 --> objf_test(bi,bj)   =  0.280685772397790D+05
 --> objf_tracer(bi,bj) =  0.000000000000000D+00
 --> objf_atl(bi,bj)    =  0.000000000000000D+00
 --> objf_test(bi,bj)   =  0.489344114046239D+05
 --> objf_tracer(bi,bj) =  0.000000000000000D+00
 --> objf_atl(bi,bj)    =  0.000000000000000D+00
 --> objf_test(bi,bj)   =  0.505652022130511D+05
 --> objf_tracer(bi,bj) =  0.000000000000000D+00
 --> objf_atl(bi,bj)    =  0.000000000000000D+00
 --> objf_test(bi,bj)   =  0.526343617737103D+05
 --> objf_tracer(bi,bj) =  0.000000000000000D+00
 --> objf_atl(bi,bj)    =  0.000000000000000D+00
 --> objf_test(bi,bj)   =  0.548257487504647D+05
 --> objf_tracer(bi,bj) =  0.000000000000000D+00
 --> objf_atl(bi,bj)    =  0.000000000000000D+00
 --> objf_test(bi,bj)   =  0.526324781251424D+05
 --> objf_tracer(bi,bj) =  0.000000000000000D+00
 --> objf_atl(bi,bj)    =  0.000000000000000D+00
 --> objf_test(bi,bj)   =  0.548254981144300D+05
 --> objf_tracer(bi,bj) =  0.000000000000000D+00
 --> objf_atl(bi,bj)    =  0.000000000000000D+00
  local fc =  0.369721257608869D+06
 global fc =  0.369721257608869D+06
(PID.TID 0000.0001) grdchk perturb(-)fc: fcpertminus =  3.69721257608869E+05
grad-res -------------------------------
 grad-res     0    5   24   24   20    1    1    1   3.69721219278E+05  3.69721181108E+05  3.69721257609E+05
 grad-res     0    5    5 1583    0    1    1    1  -3.82502674811E+00 -3.82502673892E+00  2.40182274069E-09
(PID.TID 0000.0001)  ADM  ref_cost_function      =  3.69721219277520E+05
(PID.TID 0000.0001)  ADM  adjoint_gradient       = -3.82502674811008E+00
(PID.TID 0000.0001)  ADM  finite-diff_grad       = -3.82502673892304E+00
(PID.TID 0000.0001) ====== End of gradient-check number   5 (ierr=  0) =======
(PID.TID 0000.0001) 
(PID.TID 0000.0001) // =======================================================
(PID.TID 0000.0001) // Gradient check results  >>> START <<<
(PID.TID 0000.0001) // =======================================================
(PID.TID 0000.0001) 
(PID.TID 0000.0001)  EPS =   1.000000E-02
(PID.TID 0000.0001) 
(PID.TID 0000.0001) grdchk output h.p:  Id Itile Jtile LAYER   bi   bj   X(Id)           X(Id)+/-EPS
(PID.TID 0000.0001) grdchk output h.c:  Id  FC                   FC1                  FC2
(PID.TID 0000.0001) grdchk output h.g:  Id     FC1-FC2/(2*EPS)      ADJ GRAD(FC)         1-FDGRD/ADGRD
(PID.TID 0000.0001) 
(PID.TID 0000.0001) grdchk output (p):   1    20    24    20    1    1   0.000000000E+00 -1.000000000E-02
(PID.TID 0000.0001) grdchk output (c):   1  3.6972121927752E+05  3.6972118109538E+05  3.6972125762183E+05
(PID.TID 0000.0001) grdchk output (g):   1    -3.8263225025730E+00 -3.8263225188795E+00  4.2616636886095E-09
(PID.TID 0000.0001) 
(PID.TID 0000.0001) grdchk output (p):   2    21    24    20    1    1   0.000000000E+00 -1.000000000E-02
(PID.TID 0000.0001) grdchk output (c):   2  3.6972121927752E+05  3.6972118110081E+05  3.6972125761639E+05
(PID.TID 0000.0001) grdchk output (g):   2    -3.8257793552475E+00 -3.8257793698899E+00  3.8272994773436E-09
(PID.TID 0000.0001) 
(PID.TID 0000.0001) grdchk output (p):   3    22    24    20    1    1   0.000000000E+00 -1.000000000E-02
(PID.TID 0000.0001) grdchk output (c):   3  3.6972121927752E+05  3.6972118110441E+05  3.6972125761280E+05
(PID.TID 0000.0001) grdchk output (g):   3    -3.8254194543697E+00 -3.8254194604281E+00  1.5837359201853E-09
(PID.TID 0000.0001) 
(PID.TID 0000.0001) grdchk output (p):   4    23    24    20    1    1   0.000000000E+00 -1.000000000E-02
(PID.TID 0000.0001) grdchk output (c):   4  3.6972121927752E+05  3.6972118110675E+05  3.6972125761045E+05
(PID.TID 0000.0001) grdchk output (g):   4    -3.8251846446656E+00 -3.8251846479547E+00  8.5986484599232E-10
(PID.TID 0000.0001) 
(PID.TID 0000.0001) grdchk output (p):   5    24    24    20    1    1   0.000000000E+00 -1.000000000E-02
(PID.TID 0000.0001) grdchk output (c):   5  3.6972121927752E+05  3.6972118110833E+05  3.6972125760887E+05
(PID.TID 0000.0001) grdchk output (g):   5    -3.8250267389230E+00 -3.8250267481101E+00  2.4018227406941E-09
(PID.TID 0000.0001) 
(PID.TID 0000.0001) grdchk  summary  :  RMS of    5 ratios =  2.8922772405169E-09
(PID.TID 0000.0001) 
(PID.TID 0000.0001) // =======================================================
(PID.TID 0000.0001) // Gradient check results  >>> END <<<
(PID.TID 0000.0001) // =======================================================
(PID.TID 0000.0001) 
(PID.TID 0000.0001)   Seconds in section "ALL                    [THE_MODEL_MAIN]":
(PID.TID 0000.0001)           User time:   405.72000000000003
(PID.TID 0000.0001)         System time:   1.0500000000000000
(PID.TID 0000.0001)     Wall clock time:   407.76307296752930
(PID.TID 0000.0001)          No. starts:           1
(PID.TID 0000.0001)           No. stops:           1
(PID.TID 0000.0001)   Seconds in section "INITIALISE_FIXED       [THE_MODEL_MAIN]":
(PID.TID 0000.0001)           User time:  0.44000000000000000
(PID.TID 0000.0001)         System time:  4.00000000000000008E-002
(PID.TID 0000.0001)     Wall clock time:  0.50154685974121094
(PID.TID 0000.0001)          No. starts:           1
(PID.TID 0000.0001)           No. stops:           1
(PID.TID 0000.0001)   Seconds in section "ADTHE_MAIN_LOOP          [ADJOINT RUN]":
(PID.TID 0000.0001)           User time:   169.06000000000000
(PID.TID 0000.0001)         System time:  0.92999999999999994
(PID.TID 0000.0001)     Wall clock time:   170.43617892265320
(PID.TID 0000.0001)          No. starts:           1
(PID.TID 0000.0001)           No. stops:           1
(PID.TID 0000.0001)   Seconds in section "FORWARD_STEP        [MAIN_DO_LOOP]":
(PID.TID 0000.0001)           User time:   265.70000000000022
(PID.TID 0000.0001)         System time:  0.10000000000000009
(PID.TID 0000.0001)     Wall clock time:   266.43980574607849
(PID.TID 0000.0001)          No. starts:         120
(PID.TID 0000.0001)           No. stops:         120
(PID.TID 0000.0001)   Seconds in section "UPDATE_SURF_DR      [FORWARD_STEP]":
(PID.TID 0000.0001)           User time:  0.27000000000003865
(PID.TID 0000.0001)         System time:   0.0000000000000000
(PID.TID 0000.0001)     Wall clock time:  0.28100872039794922
(PID.TID 0000.0001)          No. starts:         240
(PID.TID 0000.0001)           No. stops:         240
(PID.TID 0000.0001)   Seconds in section "LOAD_FIELDS_DRIVER  [FORWARD_STEP]":
(PID.TID 0000.0001)           User time:   0.0000000000000000
(PID.TID 0000.0001)         System time:   0.0000000000000000
(PID.TID 0000.0001)     Wall clock time:  3.48615646362304688E-003
(PID.TID 0000.0001)          No. starts:         120
(PID.TID 0000.0001)           No. stops:         120
(PID.TID 0000.0001)   Seconds in section "EXTERNAL_FLDS_LOAD [LOAD_FLDS_DRIVER]":
(PID.TID 0000.0001)           User time:   0.0000000000000000
(PID.TID 0000.0001)         System time:   0.0000000000000000
(PID.TID 0000.0001)     Wall clock time:  1.37972831726074219E-003
(PID.TID 0000.0001)          No. starts:         140
(PID.TID 0000.0001)           No. stops:         140
(PID.TID 0000.0001)   Seconds in section "DO_ATMOSPHERIC_PHYS [FORWARD_STEP]":
(PID.TID 0000.0001)           User time:   0.0000000000000000
(PID.TID 0000.0001)         System time:   0.0000000000000000
(PID.TID 0000.0001)     Wall clock time:  1.12366676330566406E-003
(PID.TID 0000.0001)          No. starts:         120
(PID.TID 0000.0001)           No. stops:         120
(PID.TID 0000.0001)   Seconds in section "DO_OCEANIC_PHYS     [FORWARD_STEP]":
(PID.TID 0000.0001)           User time:   6.4100000000000250
(PID.TID 0000.0001)         System time:   0.0000000000000000
(PID.TID 0000.0001)     Wall clock time:   6.4838714599609375
(PID.TID 0000.0001)          No. starts:         120
(PID.TID 0000.0001)           No. stops:         120
(PID.TID 0000.0001)   Seconds in section "SHELFICE_THERMODYNAMICS [DO_OCEANIC_PHYS]":
(PID.TID 0000.0001)           User time:  0.68999999999988404
(PID.TID 0000.0001)         System time:   0.0000000000000000
(PID.TID 0000.0001)     Wall clock time:  0.81568288803100586
(PID.TID 0000.0001)          No. starts:         130
(PID.TID 0000.0001)           No. stops:         130
(PID.TID 0000.0001)   Seconds in section "DYNAMICS            [FORWARD_STEP]":
(PID.TID 0000.0001)           User time:   106.55999999999995
(PID.TID 0000.0001)         System time:  3.00000000000000266E-002
(PID.TID 0000.0001)     Wall clock time:   106.79951357841492
(PID.TID 0000.0001)          No. starts:         120
(PID.TID 0000.0001)           No. stops:         120
(PID.TID 0000.0001)   Seconds in section "SOLVE_FOR_PRESSURE  [FORWARD_STEP]":
(PID.TID 0000.0001)           User time:   55.790000000000077
(PID.TID 0000.0001)         System time:   0.0000000000000000
(PID.TID 0000.0001)     Wall clock time:   55.927097797393799
(PID.TID 0000.0001)          No. starts:         120
(PID.TID 0000.0001)           No. stops:         120
(PID.TID 0000.0001)   Seconds in section "MOM_CORRECTION_STEP [FORWARD_STEP]":
(PID.TID 0000.0001)           User time:   2.3800000000001091
(PID.TID 0000.0001)         System time:   0.0000000000000000
(PID.TID 0000.0001)     Wall clock time:   2.4044127464294434
(PID.TID 0000.0001)          No. starts:         120
(PID.TID 0000.0001)           No. stops:         120
(PID.TID 0000.0001)   Seconds in section "INTEGR_CONTINUITY   [FORWARD_STEP]":
(PID.TID 0000.0001)           User time:   6.3899999999998727
(PID.TID 0000.0001)         System time:   0.0000000000000000
(PID.TID 0000.0001)     Wall clock time:   6.4076523780822754
(PID.TID 0000.0001)          No. starts:         120
(PID.TID 0000.0001)           No. stops:         120
(PID.TID 0000.0001)   Seconds in section "CALC_SURF_DR      [FORWARD_STEP]":
(PID.TID 0000.0001)           User time:  0.31000000000017280
(PID.TID 0000.0001)         System time:   0.0000000000000000
(PID.TID 0000.0001)     Wall clock time:  0.30429387092590332
(PID.TID 0000.0001)          No. starts:         120
(PID.TID 0000.0001)           No. stops:         120
(PID.TID 0000.0001)   Seconds in section "BLOCKING_EXCHANGES  [FORWARD_STEP]":
(PID.TID 0000.0001)           User time:   3.1200000000001751
(PID.TID 0000.0001)         System time:   0.0000000000000000
(PID.TID 0000.0001)     Wall clock time:   3.1209337711334229
(PID.TID 0000.0001)          No. starts:         240
(PID.TID 0000.0001)           No. stops:         240
(PID.TID 0000.0001)   Seconds in section "THERMODYNAMICS      [FORWARD_STEP]":
(PID.TID 0000.0001)           User time:   61.029999999999745
(PID.TID 0000.0001)         System time:  4.00000000000000355E-002
(PID.TID 0000.0001)     Wall clock time:   61.159257888793945
(PID.TID 0000.0001)          No. starts:         120
(PID.TID 0000.0001)           No. stops:         120
(PID.TID 0000.0001)   Seconds in section "TRC_CORRECTION_STEP [FORWARD_STEP]":
(PID.TID 0000.0001)           User time:   15.129999999999882
(PID.TID 0000.0001)         System time:  1.00000000000000089E-002
(PID.TID 0000.0001)     Wall clock time:   15.182281970977783
(PID.TID 0000.0001)          No. starts:         120
(PID.TID 0000.0001)           No. stops:         120
(PID.TID 0000.0001)   Seconds in section "MONITOR             [FORWARD_STEP]":
(PID.TID 0000.0001)           User time:   2.4699999999999704
(PID.TID 0000.0001)         System time:   0.0000000000000000
(PID.TID 0000.0001)     Wall clock time:   2.4788851737976074
(PID.TID 0000.0001)          No. starts:         120
(PID.TID 0000.0001)           No. stops:         120
(PID.TID 0000.0001)   Seconds in section "COST_TILE           [FORWARD_STEP]":
(PID.TID 0000.0001)           User time:   5.5999999999999091
(PID.TID 0000.0001)         System time:   0.0000000000000000
(PID.TID 0000.0001)     Wall clock time:   5.6227862834930420
(PID.TID 0000.0001)          No. starts:         120
(PID.TID 0000.0001)           No. stops:         120
(PID.TID 0000.0001)   Seconds in section "DO_THE_MODEL_IO     [FORWARD_STEP]":
(PID.TID 0000.0001)           User time:  6.99999999999931788E-002
(PID.TID 0000.0001)         System time:  1.00000000000000089E-002
(PID.TID 0000.0001)     Wall clock time:  7.85284042358398438E-002
(PID.TID 0000.0001)          No. starts:         120
(PID.TID 0000.0001)           No. stops:         120
(PID.TID 0000.0001)   Seconds in section "DO_WRITE_PICKUP     [FORWARD_STEP]":
(PID.TID 0000.0001)           User time:  0.13999999999998636
(PID.TID 0000.0001)         System time:  1.00000000000000089E-002
(PID.TID 0000.0001)     Wall clock time:  0.16105842590332031
(PID.TID 0000.0001)          No. starts:         120
(PID.TID 0000.0001)           No. stops:         120
(PID.TID 0000.0001)   Seconds in section "GRDCHK_MAIN         [THE_MODEL_MAIN]":
(PID.TID 0000.0001)           User time:   236.22000000000003
(PID.TID 0000.0001)         System time:  8.00000000000000711E-002
(PID.TID 0000.0001)     Wall clock time:   236.82527995109558
(PID.TID 0000.0001)          No. starts:           1
(PID.TID 0000.0001)           No. stops:           1
(PID.TID 0000.0001)   Seconds in section "INITIALISE_VARIA    [THE_MAIN_LOOP]":
(PID.TID 0000.0001)           User time:   4.0300000000000864
(PID.TID 0000.0001)         System time:  3.00000000000000266E-002
(PID.TID 0000.0001)     Wall clock time:   4.0727167129516602
(PID.TID 0000.0001)          No. starts:          10
(PID.TID 0000.0001)           No. stops:          10
(PID.TID 0000.0001)   Seconds in section "MAIN LOOP           [THE_MAIN_LOOP]":
(PID.TID 0000.0001)           User time:   231.63999999999987
(PID.TID 0000.0001)         System time:  1.00000000000000089E-002
(PID.TID 0000.0001)     Wall clock time:   232.19636392593384
(PID.TID 0000.0001)          No. starts:          10
(PID.TID 0000.0001)           No. stops:          10
(PID.TID 0000.0001)   Seconds in section "MAIN_DO_LOOP        [THE_MAIN_LOOP]":
(PID.TID 0000.0001)           User time:   219.81000000000012
(PID.TID 0000.0001)         System time:  1.00000000000000089E-002
(PID.TID 0000.0001)     Wall clock time:   220.32928419113159
(PID.TID 0000.0001)          No. starts:         100
(PID.TID 0000.0001)           No. stops:         100
(PID.TID 0000.0001)   Seconds in section "COST_FINAL         [ADJOINT SPIN-DOWN]":
(PID.TID 0000.0001)           User time:  6.99999999999363354E-002
(PID.TID 0000.0001)         System time:   0.0000000000000000
(PID.TID 0000.0001)     Wall clock time:  7.40556716918945313E-002
(PID.TID 0000.0001)          No. starts:          10
(PID.TID 0000.0001)           No. stops:          10
(PID.TID 0000.0001) // ======================================================
(PID.TID 0000.0001) // Tile <-> Tile communication statistics
(PID.TID 0000.0001) // ======================================================
(PID.TID 0000.0001) // o Tile number: 000001
(PID.TID 0000.0001) //         No. X exchanges =              0
(PID.TID 0000.0001) //            Max. X spins =              0
(PID.TID 0000.0001) //            Min. X spins =     1000000000
(PID.TID 0000.0001) //          Total. X spins =              0
(PID.TID 0000.0001) //            Avg. X spins =       0.00E+00
(PID.TID 0000.0001) //         No. Y exchanges =              0
(PID.TID 0000.0001) //            Max. Y spins =              0
(PID.TID 0000.0001) //            Min. Y spins =     1000000000
(PID.TID 0000.0001) //          Total. Y spins =              0
(PID.TID 0000.0001) //            Avg. Y spins =       0.00E+00
(PID.TID 0000.0001) // o Tile number: 000002
(PID.TID 0000.0001) //         No. X exchanges =              0
(PID.TID 0000.0001) //            Max. X spins =              0
(PID.TID 0000.0001) //            Min. X spins =     1000000000
(PID.TID 0000.0001) //          Total. X spins =              0
(PID.TID 0000.0001) //            Avg. X spins =       0.00E+00
(PID.TID 0000.0001) //         No. Y exchanges =              0
(PID.TID 0000.0001) //            Max. Y spins =              0
(PID.TID 0000.0001) //            Min. Y spins =     1000000000
(PID.TID 0000.0001) //          Total. Y spins =              0
(PID.TID 0000.0001) //            Avg. Y spins =       0.00E+00
(PID.TID 0000.0001) // o Tile number: 000003
(PID.TID 0000.0001) //         No. X exchanges =              0
(PID.TID 0000.0001) //            Max. X spins =              0
(PID.TID 0000.0001) //            Min. X spins =     1000000000
(PID.TID 0000.0001) //          Total. X spins =              0
(PID.TID 0000.0001) //            Avg. X spins =       0.00E+00
(PID.TID 0000.0001) //         No. Y exchanges =              0
(PID.TID 0000.0001) //            Max. Y spins =              0
(PID.TID 0000.0001) //            Min. Y spins =     1000000000
(PID.TID 0000.0001) //          Total. Y spins =              0
(PID.TID 0000.0001) //            Avg. Y spins =       0.00E+00
(PID.TID 0000.0001) // o Tile number: 000004
(PID.TID 0000.0001) //         No. X exchanges =              0
(PID.TID 0000.0001) //            Max. X spins =              0
(PID.TID 0000.0001) //            Min. X spins =     1000000000
(PID.TID 0000.0001) //          Total. X spins =              0
(PID.TID 0000.0001) //            Avg. X spins =       0.00E+00
(PID.TID 0000.0001) //         No. Y exchanges =              0
(PID.TID 0000.0001) //            Max. Y spins =              0
(PID.TID 0000.0001) //            Min. Y spins =     1000000000
(PID.TID 0000.0001) //          Total. Y spins =              0
(PID.TID 0000.0001) //            Avg. Y spins =       0.00E+00
(PID.TID 0000.0001) // o Tile number: 000005
(PID.TID 0000.0001) //         No. X exchanges =              0
(PID.TID 0000.0001) //            Max. X spins =              0
(PID.TID 0000.0001) //            Min. X spins =     1000000000
(PID.TID 0000.0001) //          Total. X spins =              0
(PID.TID 0000.0001) //            Avg. X spins =       0.00E+00
(PID.TID 0000.0001) //         No. Y exchanges =              0
(PID.TID 0000.0001) //            Max. Y spins =              0
(PID.TID 0000.0001) //            Min. Y spins =     1000000000
(PID.TID 0000.0001) //          Total. Y spins =              0
(PID.TID 0000.0001) //            Avg. Y spins =       0.00E+00
(PID.TID 0000.0001) // o Tile number: 000006
(PID.TID 0000.0001) //         No. X exchanges =              0
(PID.TID 0000.0001) //            Max. X spins =              0
(PID.TID 0000.0001) //            Min. X spins =     1000000000
(PID.TID 0000.0001) //          Total. X spins =              0
(PID.TID 0000.0001) //            Avg. X spins =       0.00E+00
(PID.TID 0000.0001) //         No. Y exchanges =              0
(PID.TID 0000.0001) //            Max. Y spins =              0
(PID.TID 0000.0001) //            Min. Y spins =     1000000000
(PID.TID 0000.0001) //          Total. Y spins =              0
(PID.TID 0000.0001) //            Avg. Y spins =       0.00E+00
(PID.TID 0000.0001) // o Tile number: 000007
(PID.TID 0000.0001) //         No. X exchanges =              0
(PID.TID 0000.0001) //            Max. X spins =              0
(PID.TID 0000.0001) //            Min. X spins =     1000000000
(PID.TID 0000.0001) //          Total. X spins =              0
(PID.TID 0000.0001) //            Avg. X spins =       0.00E+00
(PID.TID 0000.0001) //         No. Y exchanges =              0
(PID.TID 0000.0001) //            Max. Y spins =              0
(PID.TID 0000.0001) //            Min. Y spins =     1000000000
(PID.TID 0000.0001) //          Total. Y spins =              0
(PID.TID 0000.0001) //            Avg. Y spins =       0.00E+00
(PID.TID 0000.0001) // o Tile number: 000008
(PID.TID 0000.0001) //         No. X exchanges =              0
(PID.TID 0000.0001) //            Max. X spins =              0
(PID.TID 0000.0001) //            Min. X spins =     1000000000
(PID.TID 0000.0001) //          Total. X spins =              0
(PID.TID 0000.0001) //            Avg. X spins =       0.00E+00
(PID.TID 0000.0001) //         No. Y exchanges =              0
(PID.TID 0000.0001) //            Max. Y spins =              0
(PID.TID 0000.0001) //            Min. Y spins =     1000000000
(PID.TID 0000.0001) //          Total. Y spins =              0
(PID.TID 0000.0001) //            Avg. Y spins =       0.00E+00
(PID.TID 0000.0001) // o Thread number: 000001
(PID.TID 0000.0001) //            No. barriers =         185638
(PID.TID 0000.0001) //      Max. barrier spins =              1
(PID.TID 0000.0001) //      Min. barrier spins =              1
(PID.TID 0000.0001) //     Total barrier spins =         185638
(PID.TID 0000.0001) //      Avg. barrier spins =       1.00E+00
PROGRAM MAIN: Execution ended Normally
