(PID.TID 0000.0001) 
(PID.TID 0000.0001) // ======================================================
(PID.TID 0000.0001) //                      MITgcm UV
(PID.TID 0000.0001) //                      =========
(PID.TID 0000.0001) // ======================================================
(PID.TID 0000.0001) // execution environment starting up...
(PID.TID 0000.0001) 
(PID.TID 0000.0001) // MITgcmUV version:  checkpoint63m
(PID.TID 0000.0001) // Build user:        yunx
(PID.TID 0000.0001) // Build host:        gplogin1.local
(PID.TID 0000.0001) // Build date:        Fri Apr 27 10:45:10 PDT 2012
(PID.TID 0000.0001) 
(PID.TID 0000.0001) // =======================================================
(PID.TID 0000.0001) // Execution Environment parameter file "eedata"
(PID.TID 0000.0001) // =======================================================
(PID.TID 0000.0001) ># Example "eedata" file
(PID.TID 0000.0001) ># Lines beginning "#" are comments
(PID.TID 0000.0001) ># nTx - No. threads per process in X
(PID.TID 0000.0001) ># nTy - No. threads per process in Y
(PID.TID 0000.0001) > &EEPARMS
(PID.TID 0000.0001) > /
(PID.TID 0000.0001) ># Note: Some systems use & as the
(PID.TID 0000.0001) ># namelist terminator. Other systems
(PID.TID 0000.0001) ># use a / character (as shown here).
(PID.TID 0000.0001) 
(PID.TID 0000.0001) // =======================================================
(PID.TID 0000.0001) // Computational Grid Specification ( see files "SIZE.h" )
(PID.TID 0000.0001) //                                  ( and "eedata"       )
(PID.TID 0000.0001) // =======================================================
(PID.TID 0000.0001)      nPx =    1 ; /* No. processes in X */
(PID.TID 0000.0001)      nPy =    1 ; /* No. processes in Y */
(PID.TID 0000.0001)      nSx =    1 ; /* No. tiles in X per process */
(PID.TID 0000.0001)      nSy =    2 ; /* No. tiles in Y per process */
(PID.TID 0000.0001)      sNx =   50 ; /* Tile size in X */
(PID.TID 0000.0001)      sNy =   50 ; /* Tile size in Y */
(PID.TID 0000.0001)      OLx =    3 ; /* Tile overlap distance in X */
(PID.TID 0000.0001)      OLy =    3 ; /* Tile overlap distance in Y */
(PID.TID 0000.0001)      nTx =    1 ; /* No. threads in X per process */
(PID.TID 0000.0001)      nTy =    1 ; /* No. threads in Y per process */
(PID.TID 0000.0001)       Nr =   30 ; /* No. levels in the vertical   */
(PID.TID 0000.0001)       Nx =   50 ; /* Total domain size in X ( = nPx*nSx*sNx ) */
(PID.TID 0000.0001)       Ny =  100 ; /* Total domain size in Y ( = nPy*nSy*sNy ) */
(PID.TID 0000.0001)   nTiles =    2 ; /* Total no. tiles per process ( = nSx*nSy ) */
(PID.TID 0000.0001)   nProcs =    1 ; /* Total no. processes ( = nPx*nPy ) */
(PID.TID 0000.0001) nThreads =    1 ; /* Total no. threads per process ( = nTx*nTy ) */
(PID.TID 0000.0001) usingMPI =    F ; /* Flag used to control whether MPI is in use */
(PID.TID 0000.0001)                   /*  note: To execute a program with MPI calls */
(PID.TID 0000.0001)                   /*  it must be launched appropriately e.g     */
(PID.TID 0000.0001)                   /*  "mpirun -np 64 ......"                    */
(PID.TID 0000.0001) useCoupler=    F ;/* Flag used to control communications with   */
(PID.TID 0000.0001)                   /*  other model components, through a coupler */
(PID.TID 0000.0001) debugMode =    F ; /* print debug msg. (sequence of S/R calls)  */
(PID.TID 0000.0001) printMapIncludesZeros=    F ; /* print zeros in Std.Output maps */
(PID.TID 0000.0001) maxLengthPrt1D=   65 /* maxLength of 1D array printed to StdOut */
(PID.TID 0000.0001) 
(PID.TID 0000.0001) // ======================================================
(PID.TID 0000.0001) // Mapping of tiles to threads
(PID.TID 0000.0001) // ======================================================
(PID.TID 0000.0001) // -o- Thread   1, tiles (   1:   1,   1:   2)
(PID.TID 0000.0001) 
(PID.TID 0000.0001) // ======================================================
(PID.TID 0000.0001) // Tile <-> Tile connectvity table
(PID.TID 0000.0001) // ======================================================
(PID.TID 0000.0001) // Tile number: 000001 (process no. = 000001)
(PID.TID 0000.0001) //        WEST: Tile = 000001, Process = 000001, Comm = put
(PID.TID 0000.0001) //                bi = 000001, bj = 000001
(PID.TID 0000.0001) //        EAST: Tile = 000001, Process = 000001, Comm = put
(PID.TID 0000.0001) //                bi = 000001, bj = 000001
(PID.TID 0000.0001) //       SOUTH: Tile = 000002, Process = 000001, Comm = put
(PID.TID 0000.0001) //                bi = 000001, bj = 000002
(PID.TID 0000.0001) //       NORTH: Tile = 000002, Process = 000001, Comm = put
(PID.TID 0000.0001) //                bi = 000001, bj = 000002
(PID.TID 0000.0001) // Tile number: 000002 (process no. = 000001)
(PID.TID 0000.0001) //        WEST: Tile = 000002, Process = 000001, Comm = put
(PID.TID 0000.0001) //                bi = 000001, bj = 000002
(PID.TID 0000.0001) //        EAST: Tile = 000002, Process = 000001, Comm = put
(PID.TID 0000.0001) //                bi = 000001, bj = 000002
(PID.TID 0000.0001) //       SOUTH: Tile = 000001, Process = 000001, Comm = put
(PID.TID 0000.0001) //                bi = 000001, bj = 000001
(PID.TID 0000.0001) //       NORTH: Tile = 000001, Process = 000001, Comm = put
(PID.TID 0000.0001) //                bi = 000001, bj = 000001
(PID.TID 0000.0001) 
(PID.TID 0000.0001)  INI_PARMS: opening model parameter file "data"
(PID.TID 0000.0001)  OPEN_COPY_DATA_FILE: opening file data
(PID.TID 0000.0001) // =======================================================
(PID.TID 0000.0001) // Parameter file "data"
(PID.TID 0000.0001) // =======================================================
(PID.TID 0000.0001) ># ====================
(PID.TID 0000.0001) ># | Model parameters |
(PID.TID 0000.0001) ># ====================
(PID.TID 0000.0001) >#
(PID.TID 0000.0001) ># Continuous equation parameters
(PID.TID 0000.0001) > &PARM01
(PID.TID 0000.0001) > Tref = 30*-1.9,
(PID.TID 0000.0001) > Sref = 30*34.4,
(PID.TID 0000.0001) > viscAz=1.E-3,
(PID.TID 0000.0001) > viscAh=600.0,
(PID.TID 0000.0001) > no_slip_sides=.FALSE.,
(PID.TID 0000.0001) > no_slip_bottom=.FALSE.,
(PID.TID 0000.0001) > diffKhT=100.0,
(PID.TID 0000.0001) > diffKzT=5.E-5,
(PID.TID 0000.0001) > diffKhS=100.0,
(PID.TID 0000.0001) > diffKzS=5.E-5,
(PID.TID 0000.0001) > bottomDragQuadratic=2.5E-3,
(PID.TID 0000.0001) > eosType='JMD95Z',
(PID.TID 0000.0001) > HeatCapacity_cp = 3974.0,
(PID.TID 0000.0001) > rhoConst=1030.,
(PID.TID 0000.0001) > rhoNil=1030.,
(PID.TID 0000.0001) > gravity=9.81,
(PID.TID 0000.0001) > convertFW2Salt = 33.4,
(PID.TID 0000.0001) > rigidLid=.FALSE.,
(PID.TID 0000.0001) > implicitFreeSurface=.TRUE.,
(PID.TID 0000.0001) > exactConserv=.TRUE.,
(PID.TID 0000.0001) > hFacMin=0.05,
(PID.TID 0000.0001) > nonHydrostatic=.FALSE.,
(PID.TID 0000.0001) > readBinaryPrec=64,
(PID.TID 0000.0001) > useCDScheme = .TRUE.,
(PID.TID 0000.0001) > /
(PID.TID 0000.0001) >
(PID.TID 0000.0001) ># Elliptic solver parameters
(PID.TID 0000.0001) > &PARM02
(PID.TID 0000.0001) > cg2dMaxIters=1000,
(PID.TID 0000.0001) > cg2dTargetResidual=1.E-13,
(PID.TID 0000.0001) > cg3dMaxIters=400,
(PID.TID 0000.0001) > cg3dTargetResidual=1.E-13,
(PID.TID 0000.0001) > /
(PID.TID 0000.0001) >
(PID.TID 0000.0001) ># Time stepping parameters
(PID.TID 0000.0001) > &PARM03
(PID.TID 0000.0001) > nIter0=0,
(PID.TID 0000.0001) > nTimeSteps=20,
(PID.TID 0000.0001) > deltaT=1800.0,
(PID.TID 0000.0001) > abEps=0.1,
(PID.TID 0000.0001) > cAdjFreq = -1.,
(PID.TID 0000.0001) > tauCD = 400000.,
(PID.TID 0000.0001) > pChkptFreq=0.0,
(PID.TID 0000.0001) > chkptFreq=0.0,
(PID.TID 0000.0001) > dumpFreq=0.0,
(PID.TID 0000.0001) > taveFreq=0.0,
(PID.TID 0000.0001) > monitorFreq=1.,
(PID.TID 0000.0001) > monitorSelect=2,
(PID.TID 0000.0001) > /
(PID.TID 0000.0001) >
(PID.TID 0000.0001) ># Gridding parameters
(PID.TID 0000.0001) > &PARM04
(PID.TID 0000.0001) > usingSphericalPolarGrid=.TRUE.,
(PID.TID 0000.0001) > ygOrigin = -80.0,
(PID.TID 0000.0001) > delX=50*0.3,
(PID.TID 0000.0001) > delY=100*0.1,
(PID.TID 0000.0001) > delZ=30*30.0,
(PID.TID 0000.0001) > /
(PID.TID 0000.0001) >
(PID.TID 0000.0001) ># Input datasets
(PID.TID 0000.0001) > &PARM05
(PID.TID 0000.0001) > bathyFile='bathy.box',
(PID.TID 0000.0001) > /
(PID.TID 0000.0001) 
(PID.TID 0000.0001)  INI_PARMS ; starts to read PARM01
(PID.TID 0000.0001)  INI_PARMS ; read PARM01 : OK
(PID.TID 0000.0001)  INI_PARMS ; starts to read PARM02
(PID.TID 0000.0001)  INI_PARMS ; read PARM02 : OK
(PID.TID 0000.0001)  INI_PARMS ; starts to read PARM03
(PID.TID 0000.0001)  INI_PARMS ; read PARM03 : OK
(PID.TID 0000.0001)  INI_PARMS ; starts to read PARM04
(PID.TID 0000.0001)  INI_PARMS ; read PARM04 : OK
(PID.TID 0000.0001)  INI_PARMS ; starts to read PARM05
(PID.TID 0000.0001)  INI_PARMS ; read PARM05 : OK
(PID.TID 0000.0001)  INI_PARMS: finished reading file "data"
(PID.TID 0000.0001)  PACKAGES_BOOT: opening data.pkg
(PID.TID 0000.0001)  OPEN_COPY_DATA_FILE: opening file data.pkg
(PID.TID 0000.0001) // =======================================================
(PID.TID 0000.0001) // Parameter file "data.pkg"
(PID.TID 0000.0001) // =======================================================
(PID.TID 0000.0001) ># Packages
(PID.TID 0000.0001) > &PACKAGES
(PID.TID 0000.0001) > useDiagnostics = .TRUE.,
(PID.TID 0000.0001) > useShelfIce=.true.,
(PID.TID 0000.0001) > useIcefront=.true.,
(PID.TID 0000.0001) > /
(PID.TID 0000.0001) 
(PID.TID 0000.0001)  PACKAGES_BOOT: finished reading data.pkg
(PID.TID 0000.0001)  SHELFICE_READPARMS: opening data.shelfice
(PID.TID 0000.0001)  OPEN_COPY_DATA_FILE: opening file data.shelfice
(PID.TID 0000.0001) // =======================================================
(PID.TID 0000.0001) // Parameter file "data.shelfice"
(PID.TID 0000.0001) // =======================================================
(PID.TID 0000.0001) ># ===================================
(PID.TID 0000.0001) ># | Parameters for SHELFICE package |
(PID.TID 0000.0001) ># ===================================
(PID.TID 0000.0001) > &SHELFICE_PARM01
(PID.TID 0000.0001) > SHELFICEboundaryLayer = .TRUE.,
(PID.TID 0000.0001) > SHELFICEtopoFile='icetopo.exp1',
(PID.TID 0000.0001) > SHELFICEloadAnomalyFile = 'phi0surf.exp1.jmd95z',
(PID.TID 0000.0001) > SHELFICEconserve = .true.,
(PID.TID 0000.0001) > useISOMIPTD = .FALSE.,
(PID.TID 0000.0001) > no_slip_shelfice = .false.,
(PID.TID 0000.0001) > SHELFICEwriteState = .TRUE.,
(PID.TID 0000.0001) > /
(PID.TID 0000.0001) 
(PID.TID 0000.0001)  SHELFICE_READPARMS: finished reading data.shelfice
(PID.TID 0000.0001)  ICEFRONT_READPARMS: opening data.icefront
(PID.TID 0000.0001)  OPEN_COPY_DATA_FILE: opening file data.icefront
(PID.TID 0000.0001) // =======================================================
(PID.TID 0000.0001) // Parameter file "data.icefront"
(PID.TID 0000.0001) // =======================================================
(PID.TID 0000.0001) ># ===================================
(PID.TID 0000.0001) ># | Parameters for ICEFRONT package |
(PID.TID 0000.0001) ># ===================================
(PID.TID 0000.0001) > &ICEFRONT_PARM01
(PID.TID 0000.0001) > ICEFRONTdepthFile='frontdepth.xuyun',
(PID.TID 0000.0001) > ICEFRONTlengthFile = 'frontcircum.xuyun',
(PID.TID 0000.0001) > applyIcefrontTendT = .true.,
(PID.TID 0000.0001) > applyIcefrontTendS = .true.,
(PID.TID 0000.0001) > /
(PID.TID 0000.0001) 
(PID.TID 0000.0001)  ICEFRONT_READPARMS: finished reading data.icefront
(PID.TID 0000.0001)  DIAGNOSTICS_READPARMS: opening data.diagnostics
(PID.TID 0000.0001)  OPEN_COPY_DATA_FILE: opening file data.diagnostics
(PID.TID 0000.0001) // =======================================================
(PID.TID 0000.0001) // Parameter file "data.diagnostics"
(PID.TID 0000.0001) // =======================================================
(PID.TID 0000.0001) ># Diagnostic Package Choices
(PID.TID 0000.0001) >#--------------------
(PID.TID 0000.0001) >#  dumpAtLast (logical): always write output at the end of simulation (default=F)
(PID.TID 0000.0001) >#  diag_mnc   (logical): write to NetCDF files (default=useMNC)
(PID.TID 0000.0001) >#--for each output-stream:
(PID.TID 0000.0001) >#  fileName(n) : prefix of the output file name (max 80c long) for outp.stream n
(PID.TID 0000.0001) >#  frequency(n):< 0 : write snap-shot output every |frequency| seconds
(PID.TID 0000.0001) >#               > 0 : write time-average output every frequency seconds
(PID.TID 0000.0001) >#  timePhase(n)     : write at time = timePhase + multiple of |frequency|
(PID.TID 0000.0001) >#    averagingFreq  : frequency (in s) for periodic averaging interval
(PID.TID 0000.0001) >#    averagingPhase : phase     (in s) for periodic averaging interval
(PID.TID 0000.0001) >#    repeatCycle    : number of averaging intervals in 1 cycle
(PID.TID 0000.0001) >#  levels(:,n) : list of levels to write to file (Notes: declared as REAL)
(PID.TID 0000.0001) >#                when this entry is missing, select all common levels of this list
(PID.TID 0000.0001) >#  fields(:,n) : list of selected diagnostics fields (8.c) in outp.stream n
(PID.TID 0000.0001) >#                (see "available_diagnostics.log" file for the full list of diags)
(PID.TID 0000.0001) >#  missing_value(n) : missing value for real-type fields in output file "n"
(PID.TID 0000.0001) >#  fileFlags(n)     : specific code (8c string) for output file "n"
(PID.TID 0000.0001) >#--------------------
(PID.TID 0000.0001) > &DIAGNOSTICS_LIST
(PID.TID 0000.0001) >  fields(1:2,1)  = 'SHIfwFlx','SHIhtFlx',
(PID.TID 0000.0001) >   fileName(1) = 'shelficeDiag',
(PID.TID 0000.0001) >  frequency(1) = 18000.,
(PID.TID 0000.0001) >  fields(1:2,2)  = 'ICFfwFlx','ICFhtFlx',
(PID.TID 0000.0001) >   fileName(2) = 'icefrontDiag',
(PID.TID 0000.0001) >  frequency(2) = 18000.,
(PID.TID 0000.0001) > /
(PID.TID 0000.0001) >
(PID.TID 0000.0001) >#--------------------
(PID.TID 0000.0001) ># Parameter for Diagnostics of per level statistics:
(PID.TID 0000.0001) >#--------------------
(PID.TID 0000.0001) >#  diagSt_mnc (logical): write stat-diags to NetCDF files (default=diag_mnc)
(PID.TID 0000.0001) >#  diagSt_regMaskFile : file containing the region-mask to read-in
(PID.TID 0000.0001) >#  nSetRegMskFile   : number of region-mask sets within the region-mask file
(PID.TID 0000.0001) >#  set_regMask(i)   : region-mask set-index that identifies the region "i"
(PID.TID 0000.0001) >#  val_regMask(i)   : region "i" identifier value in the region mask
(PID.TID 0000.0001) >#--for each output-stream:
(PID.TID 0000.0001) >#  stat_fName(n) : prefix of the output file name (max 80c long) for outp.stream n
(PID.TID 0000.0001) >#  stat_freq(n):< 0 : write snap-shot output every |stat_freq| seconds
(PID.TID 0000.0001) >#               > 0 : write time-average output every stat_freq seconds
(PID.TID 0000.0001) >#  stat_phase(n)    : write at time = stat_phase + multiple of |stat_freq|
(PID.TID 0000.0001) >#  stat_region(:,n) : list of "regions" (default: 1 region only=global)
(PID.TID 0000.0001) >#  stat_fields(:,n) : list of selected diagnostics fields (8.c) in outp.stream n
(PID.TID 0000.0001) >#                (see "available_diagnostics.log" file for the full list of diags)
(PID.TID 0000.0001) >#--------------------
(PID.TID 0000.0001) > &DIAG_STATIS_PARMS
(PID.TID 0000.0001) >#stat_fields(1:5,1)  = 'ETAN    ','UVEL    ','VVEL    ','WVEL    ', 'THETA   ',
(PID.TID 0000.0001) ># stat_fName(1) = 'dynStDiag',
(PID.TID 0000.0001) >#  stat_freq(1) = -3600.,
(PID.TID 0000.0001) ># stat_phase(1) = 0.,
(PID.TID 0000.0001) > /
(PID.TID 0000.0001) 
(PID.TID 0000.0001) S/R DIAGNOSTICS_READPARMS, read namelist "diagnostics_list": start
(PID.TID 0000.0001) S/R DIAGNOSTICS_READPARMS, read namelist "diagnostics_list": OK
(PID.TID 0000.0001) S/R DIAGNOSTICS_READPARMS, read namelist "DIAG_STATIS_PARMS": start
(PID.TID 0000.0001) S/R DIAGNOSTICS_READPARMS, read namelist "DIAG_STATIS_PARMS": OK
(PID.TID 0000.0001)  DIAGNOSTICS_READPARMS: global parameter summary:
(PID.TID 0000.0001)  dumpAtLast = /* always write time-ave diags at the end */
(PID.TID 0000.0001)                   F
(PID.TID 0000.0001)     ;
(PID.TID 0000.0001)  diag_mnc =   /* write NetCDF output files */
(PID.TID 0000.0001)                   F
(PID.TID 0000.0001)     ;
(PID.TID 0000.0001)  useMissingValue = /* put MissingValue where mask = 0 */
(PID.TID 0000.0001)                   F
(PID.TID 0000.0001)     ;
(PID.TID 0000.0001)  diagCG_maxIters = /* max number of iters in diag_cg2d */
(PID.TID 0000.0001)                    1000
(PID.TID 0000.0001)     ;
(PID.TID 0000.0001)  diagCG_resTarget = /* residual target for diag_cg2d */
(PID.TID 0000.0001)                 1.000000000000000E-13
(PID.TID 0000.0001)     ;
(PID.TID 0000.0001) -----------------------------------------------------
(PID.TID 0000.0001)  DIAGNOSTICS_READPARMS: active diagnostics summary:
(PID.TID 0000.0001) -----------------------------------------------------
(PID.TID 0000.0001) Creating Output Stream: shelficeDiag
(PID.TID 0000.0001) Output Frequency:      18000.000000 ; Phase:           0.000000
(PID.TID 0000.0001)  Averaging Freq.:      18000.000000 , Phase:           0.000000 , Cycle:   1
(PID.TID 0000.0001)  missing value:  1.234567000000E+05 ; for integers:   123456789
(PID.TID 0000.0001)  Levels:    will be set later
(PID.TID 0000.0001)  Fields:    SHIfwFlx SHIhtFlx
(PID.TID 0000.0001) Creating Output Stream: icefrontDiag
(PID.TID 0000.0001) Output Frequency:      18000.000000 ; Phase:           0.000000
(PID.TID 0000.0001)  Averaging Freq.:      18000.000000 , Phase:           0.000000 , Cycle:   1
(PID.TID 0000.0001)  missing value:  1.234567000000E+05 ; for integers:   123456789
(PID.TID 0000.0001)  Levels:    will be set later
(PID.TID 0000.0001)  Fields:    ICFfwFlx ICFhtFlx
(PID.TID 0000.0001) -----------------------------------------------------
(PID.TID 0000.0001)  DIAGNOSTICS_READPARMS: statistics diags. summary:
(PID.TID 0000.0001) -----------------------------------------------------
(PID.TID 0000.0001) 
(PID.TID 0000.0001) SET_PARMS: done
(PID.TID 0000.0001) Enter INI_VERTICAL_GRID: setInterFDr=    T ; setCenterDr=    F
(PID.TID 0000.0001) %MON XC_max                       =   1.4850000000000E+01
(PID.TID 0000.0001) %MON XC_min                       =   1.5000000000000E-01
(PID.TID 0000.0001) %MON XC_mean                      =   7.5000000000000E+00
(PID.TID 0000.0001) %MON XC_sd                        =   4.3292609068985E+00
(PID.TID 0000.0001) %MON XG_max                       =   1.4700000000000E+01
(PID.TID 0000.0001) %MON XG_min                       =   1.1102230246252E-16
(PID.TID 0000.0001) %MON XG_mean                      =   7.3500000000000E+00
(PID.TID 0000.0001) %MON XG_sd                        =   4.3292609068985E+00
(PID.TID 0000.0001) %MON DXC_max                      =   1.1380125394806E+04
(PID.TID 0000.0001) %MON DXC_min                      =   5.8203914905589E+03
(PID.TID 0000.0001) %MON DXC_mean                     =   8.6215028627206E+03
(PID.TID 0000.0001) %MON DXC_sd                       =   1.6219001271572E+03
(PID.TID 0000.0001) %MON DXF_max                      =   1.1380125394806E+04
(PID.TID 0000.0001) %MON DXF_min                      =   5.8203914905589E+03
(PID.TID 0000.0001) %MON DXF_mean                     =   8.6215028627206E+03
(PID.TID 0000.0001) %MON DXF_sd                       =   1.6219001271572E+03
(PID.TID 0000.0001) %MON DXG_max                      =   1.1352761512017E+04
(PID.TID 0000.0001) %MON DXG_min                      =   5.7917296935586E+03
(PID.TID 0000.0001) %MON DXG_mean                     =   8.5934208253080E+03
(PID.TID 0000.0001) %MON DXG_sd                       =   1.6222785520817E+03
(PID.TID 0000.0001) %MON DXV_max                      =   1.1352761512017E+04
(PID.TID 0000.0001) %MON DXV_min                      =   5.7917296935586E+03
(PID.TID 0000.0001) %MON DXV_mean                     =   8.5934208253080E+03
(PID.TID 0000.0001) %MON DXV_sd                       =   1.6222785520817E+03
(PID.TID 0000.0001) %MON YC_max                       =  -7.0050000000001E+01
(PID.TID 0000.0001) %MON YC_min                       =  -7.9950000000000E+01
(PID.TID 0000.0001) %MON YC_mean                      =  -7.5000000000000E+01
(PID.TID 0000.0001) %MON YC_sd                        =   2.8866070047720E+00
(PID.TID 0000.0001) %MON YG_max                       =  -7.0100000000001E+01
(PID.TID 0000.0001) %MON YG_min                       =  -8.0000000000000E+01
(PID.TID 0000.0001) %MON YG_mean                      =  -7.5050000000000E+01
(PID.TID 0000.0001) %MON YG_sd                        =   2.8866070047720E+00
(PID.TID 0000.0001) %MON DYC_max                      =   1.1117747335204E+04
(PID.TID 0000.0001) %MON DYC_min                      =   1.1117747335204E+04
(PID.TID 0000.0001) %MON DYC_mean                     =   1.1117747335203E+04
(PID.TID 0000.0001) %MON DYC_sd                       =   6.0754246078432E-10
(PID.TID 0000.0001) %MON DYF_max                      =   1.1117747335204E+04
(PID.TID 0000.0001) %MON DYF_min                      =   1.1117747335204E+04
(PID.TID 0000.0001) %MON DYF_mean                     =   1.1117747335203E+04
(PID.TID 0000.0001) %MON DYF_sd                       =   6.0754246078432E-10
(PID.TID 0000.0001) %MON DYG_max                      =   1.1117747335204E+04
(PID.TID 0000.0001) %MON DYG_min                      =   1.1117747335204E+04
(PID.TID 0000.0001) %MON DYG_mean                     =   1.1117747335203E+04
(PID.TID 0000.0001) %MON DYG_sd                       =   6.0754246078432E-10
(PID.TID 0000.0001) %MON DYU_max                      =   1.1117747335204E+04
(PID.TID 0000.0001) %MON DYU_min                      =   1.1117747335204E+04
(PID.TID 0000.0001) %MON DYU_mean                     =   1.1117747335203E+04
(PID.TID 0000.0001) %MON DYU_sd                       =   6.0754246078432E-10
(PID.TID 0000.0001) %MON RA_max                       =   1.2652134272379E+08
(PID.TID 0000.0001) %MON RA_min                       =   6.4709633770803E+07
(PID.TID 0000.0001) %MON RA_mean                      =   9.5851678311588E+07
(PID.TID 0000.0001) %MON RA_sd                        =   1.8031873527991E+07
(PID.TID 0000.0001) %MON RAW_max                      =   1.2652134272379E+08
(PID.TID 0000.0001) %MON RAW_min                      =   6.4709633770803E+07
(PID.TID 0000.0001) %MON RAW_mean                     =   9.5851678311588E+07
(PID.TID 0000.0001) %MON RAW_sd                       =   1.8031873527991E+07
(PID.TID 0000.0001) %MON RAS_max                      =   1.2621711802744E+08
(PID.TID 0000.0001) %MON RAS_min                      =   6.4390979194019E+07
(PID.TID 0000.0001) %MON RAS_mean                     =   9.5539469354603E+07
(PID.TID 0000.0001) %MON RAS_sd                       =   1.8036080760153E+07
(PID.TID 0000.0001) %MON RAZ_max                      =   1.2621711802744E+08
(PID.TID 0000.0001) %MON RAZ_min                      =   6.4390979194019E+07
(PID.TID 0000.0001) %MON RAZ_mean                     =   9.5539469354603E+07
(PID.TID 0000.0001) %MON RAZ_sd                       =   1.8036080760153E+07
(PID.TID 0000.0001) %MON AngleCS_max                  =   1.0000000000000E+00
(PID.TID 0000.0001) %MON AngleCS_min                  =   1.0000000000000E+00
(PID.TID 0000.0001) %MON AngleCS_mean                 =   1.0000000000000E+00
(PID.TID 0000.0001) %MON AngleCS_sd                   =   0.0000000000000E+00
(PID.TID 0000.0001) %MON AngleSN_max                  =   0.0000000000000E+00
(PID.TID 0000.0001) %MON AngleSN_min                  =   0.0000000000000E+00
(PID.TID 0000.0001) %MON AngleSN_mean                 =   0.0000000000000E+00
(PID.TID 0000.0001) %MON AngleSN_sd                   =   0.0000000000000E+00
(PID.TID 0000.0001)  MDS_READ_FIELD: opening global file: bathy.box
(PID.TID 0000.0001)  MDS_READ_FIELD: opening global file: icetopo.exp1
(PID.TID 0000.0001) // =======================================================
(PID.TID 0000.0001) // Field Model R_low (ini_masks_etc)
(PID.TID 0000.0001) // CMIN =         -9.000000000000000E+02
(PID.TID 0000.0001) // CMAX =         -9.000000000000000E+02
(PID.TID 0000.0001) // CINT =          0.000000000000000E+00
(PID.TID 0000.0001) // SYMBOLS (CMIN->CMAX): -abcdefghijklmnopqrstuvwxyz+
(PID.TID 0000.0001) //                  0.0: .
(PID.TID 0000.0001) // RANGE I (Lo:Hi:Step):(    -2:    53:     1)
(PID.TID 0000.0001) // RANGE J (Lo:Hi:Step):(   103:    -2:    -1)
(PID.TID 0000.0001) // RANGE K (Lo:Hi:Step):(   1:   1:   1)
(PID.TID 0000.0001) // =======================================================
(PID.TID 0000.0001) // =======================================================
(PID.TID 0000.0001) // END OF FIELD                                          =
(PID.TID 0000.0001) // =======================================================
(PID.TID 0000.0001) 
(PID.TID 0000.0001) // =======================================================
(PID.TID 0000.0001) // Field Model Ro_surf (ini_masks_etc)
(PID.TID 0000.0001) // CMIN =         -6.812500000000010E+02
(PID.TID 0000.0001) // CMAX =         -2.000000000000000E+02
(PID.TID 0000.0001) // CINT =          1.782407407407411E+01
(PID.TID 0000.0001) // SYMBOLS (CMIN->CMAX): -abcdefghijklmnopqrstuvwxyz+
(PID.TID 0000.0001) //                  0.0: .
(PID.TID 0000.0001) // RANGE I (Lo:Hi:Step):(    -2:    53:     1)
(PID.TID 0000.0001) // RANGE J (Lo:Hi:Step):(   103:    -2:    -1)
(PID.TID 0000.0001) // RANGE K (Lo:Hi:Step):(   1:   1:   1)
(PID.TID 0000.0001) // =======================================================
(PID.TID 0000.0001) K =   1
(PID.TID 0000.0001) //                I=7       I=17      I=27      I=37      I=47
(PID.TID 0000.0001) // |--J--|210123456|890123456|890123456|890123456|890123456|890123
(PID.TID 0000.0001) //    103 aaa.aaaaaaaaaaaaaaaaaaaaaaaaaaaaaaaaaaaaaaaaaaaaaaaaa.aa
(PID.TID 0000.0001) //    102 ---.-------------------------------------------------.--
(PID.TID 0000.0001) //    101 ........................................................
(PID.TID 0000.0001) //    100 ........................................................
(PID.TID 0000.0001) //     99 ........................................................
(PID.TID 0000.0001) //     98 ........................................................
(PID.TID 0000.0001) //     97 ........................................................
(PID.TID 0000.0001) //     96 ........................................................
(PID.TID 0000.0001) //     95 ........................................................
(PID.TID 0000.0001) //     94 ........................................................
(PID.TID 0000.0001) //     93 ........................................................
(PID.TID 0000.0001) //     92 ........................................................
(PID.TID 0000.0001) //     91 ........................................................
(PID.TID 0000.0001) //     90 ........................................................
(PID.TID 0000.0001) //     89 ........................................................
(PID.TID 0000.0001) //     88 ........................................................
(PID.TID 0000.0001) //     87 ........................................................
(PID.TID 0000.0001) //     86 ........................................................
(PID.TID 0000.0001) //     85 ........................................................
(PID.TID 0000.0001) //     84 ........................................................
(PID.TID 0000.0001) //     83 ........................................................
(PID.TID 0000.0001) //     82 ........................................................
(PID.TID 0000.0001) //     81 ........................................................
(PID.TID 0000.0001) //     80 ........................................................
(PID.TID 0000.0001) //     79 ........................................................
(PID.TID 0000.0001) //     78 ........................................................
(PID.TID 0000.0001) //     77 ........................................................
(PID.TID 0000.0001) //     76 ........................................................
(PID.TID 0000.0001) //     75 ........................................................
(PID.TID 0000.0001) //     74 ........................................................
(PID.TID 0000.0001) //     73 ........................................................
(PID.TID 0000.0001) //     72 ........................................................
(PID.TID 0000.0001) //     71 ........................................................
(PID.TID 0000.0001) //     70 ........................................................
(PID.TID 0000.0001) //     69 ........................................................
(PID.TID 0000.0001) //     68 ........................................................
(PID.TID 0000.0001) //     67 ........................................................
(PID.TID 0000.0001) //     66 ........................................................
(PID.TID 0000.0001) //     65 ........................................................
(PID.TID 0000.0001) //     64 ........................................................
(PID.TID 0000.0001) //     63 ........................................................
(PID.TID 0000.0001) //     62 ........................................................
(PID.TID 0000.0001) //     61 ........................................................
(PID.TID 0000.0001) //     60 ........................................................
(PID.TID 0000.0001) //     59 ........................................................
(PID.TID 0000.0001) //     58 ........................................................
(PID.TID 0000.0001) //     57 ........................................................
(PID.TID 0000.0001) //     56 ........................................................
(PID.TID 0000.0001) //     55 ........................................................
(PID.TID 0000.0001) //     54 ........................................................
(PID.TID 0000.0001) //     53 ........................................................
(PID.TID 0000.0001) //     52 ........................................................
(PID.TID 0000.0001) //     51 ........................................................
(PID.TID 0000.0001) //     50 +++.+++++++++++++++++++++++++++++++++++++++++++++++++.++
(PID.TID 0000.0001) //     49 +++.+++++++++++++++++++++++++++++++++++++++++++++++++.++
(PID.TID 0000.0001) //     48 +++.+++++++++++++++++++++++++++++++++++++++++++++++++.++
(PID.TID 0000.0001) //     53 ........................................................
(PID.TID 0000.0001) //     52 ........................................................
(PID.TID 0000.0001) //     51 ........................................................
(PID.TID 0000.0001) //     50 +++.+++++++++++++++++++++++++++++++++++++++++++++++++.++
(PID.TID 0000.0001) //     49 +++.+++++++++++++++++++++++++++++++++++++++++++++++++.++
(PID.TID 0000.0001) //     48 +++.+++++++++++++++++++++++++++++++++++++++++++++++++.++
(PID.TID 0000.0001) //     47 +++.+++++++++++++++++++++++++++++++++++++++++++++++++.++
(PID.TID 0000.0001) //     46 +++.+++++++++++++++++++++++++++++++++++++++++++++++++.++
(PID.TID 0000.0001) //     45 +++.+++++++++++++++++++++++++++++++++++++++++++++++++.++
(PID.TID 0000.0001) //     44 +++.+++++++++++++++++++++++++++++++++++++++++++++++++.++
(PID.TID 0000.0001) //     43 +++.+++++++++++++++++++++++++++++++++++++++++++++++++.++
(PID.TID 0000.0001) //     42 +++.+++++++++++++++++++++++++++++++++++++++++++++++++.++
(PID.TID 0000.0001) //     41 +++.+++++++++++++++++++++++++++++++++++++++++++++++++.++
(PID.TID 0000.0001) //     40 +++.+++++++++++++++++++++++++++++++++++++++++++++++++.++
(PID.TID 0000.0001) //     39 zzz.zzzzzzzzzzzzzzzzzzzzzzzzzzzzzzzzzzzzzzzzzzzzzzzzz.zz
(PID.TID 0000.0001) //     38 yyy.yyyyyyyyyyyyyyyyyyyyyyyyyyyyyyyyyyyyyyyyyyyyyyyyy.yy
(PID.TID 0000.0001) //     37 yyy.yyyyyyyyyyyyyyyyyyyyyyyyyyyyyyyyyyyyyyyyyyyyyyyyy.yy
(PID.TID 0000.0001) //     36 xxx.xxxxxxxxxxxxxxxxxxxxxxxxxxxxxxxxxxxxxxxxxxxxxxxxx.xx
(PID.TID 0000.0001) //     35 www.wwwwwwwwwwwwwwwwwwwwwwwwwwwwwwwwwwwwwwwwwwwwwwwww.ww
(PID.TID 0000.0001) //     34 vvv.vvvvvvvvvvvvvvvvvvvvvvvvvvvvvvvvvvvvvvvvvvvvvvvvv.vv
(PID.TID 0000.0001) //     33 vvv.vvvvvvvvvvvvvvvvvvvvvvvvvvvvvvvvvvvvvvvvvvvvvvvvv.vv
(PID.TID 0000.0001) //     32 uuu.uuuuuuuuuuuuuuuuuuuuuuuuuuuuuuuuuuuuuuuuuuuuuuuuu.uu
(PID.TID 0000.0001) //     31 ttt.ttttttttttttttttttttttttttttttttttttttttttttttttt.tt
(PID.TID 0000.0001) //     30 ttt.ttttttttttttttttttttttttttttttttttttttttttttttttt.tt
(PID.TID 0000.0001) //     29 sss.sssssssssssssssssssssssssssssssssssssssssssssssss.ss
(PID.TID 0000.0001) //     28 rrr.rrrrrrrrrrrrrrrrrrrrrrrrrrrrrrrrrrrrrrrrrrrrrrrrr.rr
(PID.TID 0000.0001) //     27 rrr.rrrrrrrrrrrrrrrrrrrrrrrrrrrrrrrrrrrrrrrrrrrrrrrrr.rr
(PID.TID 0000.0001) //     26 qqq.qqqqqqqqqqqqqqqqqqqqqqqqqqqqqqqqqqqqqqqqqqqqqqqqq.qq
(PID.TID 0000.0001) //     25 ppp.ppppppppppppppppppppppppppppppppppppppppppppppppp.pp
(PID.TID 0000.0001) //     24 ooo.ooooooooooooooooooooooooooooooooooooooooooooooooo.oo
(PID.TID 0000.0001) //     23 ooo.ooooooooooooooooooooooooooooooooooooooooooooooooo.oo
(PID.TID 0000.0001) //     22 nnn.nnnnnnnnnnnnnnnnnnnnnnnnnnnnnnnnnnnnnnnnnnnnnnnnn.nn
(PID.TID 0000.0001) //     21 mmm.mmmmmmmmmmmmmmmmmmmmmmmmmmmmmmmmmmmmmmmmmmmmmmmmm.mm
(PID.TID 0000.0001) //     20 mmm.mmmmmmmmmmmmmmmmmmmmmmmmmmmmmmmmmmmmmmmmmmmmmmmmm.mm
(PID.TID 0000.0001) //     19 lll.lllllllllllllllllllllllllllllllllllllllllllllllll.ll
(PID.TID 0000.0001) //     18 kkk.kkkkkkkkkkkkkkkkkkkkkkkkkkkkkkkkkkkkkkkkkkkkkkkkk.kk
(PID.TID 0000.0001) //     17 kkk.kkkkkkkkkkkkkkkkkkkkkkkkkkkkkkkkkkkkkkkkkkkkkkkkk.kk
(PID.TID 0000.0001) //     16 jjj.jjjjjjjjjjjjjjjjjjjjjjjjjjjjjjjjjjjjjjjjjjjjjjjjj.jj
(PID.TID 0000.0001) //     15 iii.iiiiiiiiiiiiiiiiiiiiiiiiiiiiiiiiiiiiiiiiiiiiiiiii.ii
(PID.TID 0000.0001) //     14 hhh.hhhhhhhhhhhhhhhhhhhhhhhhhhhhhhhhhhhhhhhhhhhhhhhhh.hh
(PID.TID 0000.0001) //     13 hhh.hhhhhhhhhhhhhhhhhhhhhhhhhhhhhhhhhhhhhhhhhhhhhhhhh.hh
(PID.TID 0000.0001) //     12 ggg.ggggggggggggggggggggggggggggggggggggggggggggggggg.gg
(PID.TID 0000.0001) //     11 fff.fffffffffffffffffffffffffffffffffffffffffffffffff.ff
(PID.TID 0000.0001) //     10 fff.fffffffffffffffffffffffffffffffffffffffffffffffff.ff
(PID.TID 0000.0001) //      9 eee.eeeeeeeeeeeeeeeeeeeeeeeeeeeeeeeeeeeeeeeeeeeeeeeee.ee
(PID.TID 0000.0001) //      8 ddd.ddddddddddddddddddddddddddddddddddddddddddddddddd.dd
(PID.TID 0000.0001) //      7 ddd.ddddddddddddddddddddddddddddddddddddddddddddddddd.dd
(PID.TID 0000.0001) //      6 ccc.ccccccccccccccccccccccccccccccccccccccccccccccccc.cc
(PID.TID 0000.0001) //      5 bbb.bbbbbbbbbbbbbbbbbbbbbbbbbbbbbbbbbbbbbbbbbbbbbbbbb.bb
(PID.TID 0000.0001) //      4 aaa.aaaaaaaaaaaaaaaaaaaaaaaaaaaaaaaaaaaaaaaaaaaaaaaaa.aa
(PID.TID 0000.0001) //      3 aaa.aaaaaaaaaaaaaaaaaaaaaaaaaaaaaaaaaaaaaaaaaaaaaaaaa.aa
(PID.TID 0000.0001) //      2 ---.-------------------------------------------------.--
(PID.TID 0000.0001) //      1 ........................................................
(PID.TID 0000.0001) //      0 ........................................................
(PID.TID 0000.0001) //     -1 ........................................................
(PID.TID 0000.0001) //     -2 ........................................................
(PID.TID 0000.0001) // =======================================================
(PID.TID 0000.0001) // END OF FIELD                                          =
(PID.TID 0000.0001) // =======================================================
(PID.TID 0000.0001) 
(PID.TID 0000.0001) // =======================================================
(PID.TID 0000.0001) // Field hFacC at iteration          0
(PID.TID 0000.0001) // CMIN =          1.000000000000000E+00
(PID.TID 0000.0001) // CMAX =          1.000000000000000E+00
(PID.TID 0000.0001) // CINT =          0.000000000000000E+00
(PID.TID 0000.0001) // SYMBOLS (CMIN->CMAX): -abcdefghijklmnopqrstuvwxyz+
(PID.TID 0000.0001) //                  0.0: .
(PID.TID 0000.0001) // RANGE I (Lo:Hi:Step):(    -2:    53:     1)
(PID.TID 0000.0001) // RANGE J (Lo:Hi:Step):(   103:    -2:    -1)
(PID.TID 0000.0001) // RANGE K (Lo:Hi:Step):(   1:   1:   1)
(PID.TID 0000.0001) // =======================================================
(PID.TID 0000.0001) // =======================================================
(PID.TID 0000.0001) // END OF FIELD                                          =
(PID.TID 0000.0001) // =======================================================
(PID.TID 0000.0001) 
(PID.TID 0000.0001) // =======================================================
(PID.TID 0000.0001) // Field hFacW at iteration          0
(PID.TID 0000.0001) // CMIN =          1.000000000000000E+00
(PID.TID 0000.0001) // CMAX =          1.000000000000000E+00
(PID.TID 0000.0001) // CINT =          0.000000000000000E+00
(PID.TID 0000.0001) // SYMBOLS (CMIN->CMAX): -abcdefghijklmnopqrstuvwxyz+
(PID.TID 0000.0001) //                  0.0: .
(PID.TID 0000.0001) // RANGE I (Lo:Hi:Step):(    -2:    53:     1)
(PID.TID 0000.0001) // RANGE J (Lo:Hi:Step):(   103:    -2:    -1)
(PID.TID 0000.0001) // RANGE K (Lo:Hi:Step):(   1:   1:   1)
(PID.TID 0000.0001) // =======================================================
(PID.TID 0000.0001) // =======================================================
(PID.TID 0000.0001) // END OF FIELD                                          =
(PID.TID 0000.0001) // =======================================================
(PID.TID 0000.0001) 
(PID.TID 0000.0001) // =======================================================
(PID.TID 0000.0001) // Field hFacS at iteration          0
(PID.TID 0000.0001) // CMIN =          1.000000000000000E+00
(PID.TID 0000.0001) // CMAX =          1.000000000000000E+00
(PID.TID 0000.0001) // CINT =          0.000000000000000E+00
(PID.TID 0000.0001) // SYMBOLS (CMIN->CMAX): -abcdefghijklmnopqrstuvwxyz+
(PID.TID 0000.0001) //                  0.0: .
(PID.TID 0000.0001) // RANGE I (Lo:Hi:Step):(    -2:    53:     1)
(PID.TID 0000.0001) // RANGE J (Lo:Hi:Step):(   103:    -2:    -1)
(PID.TID 0000.0001) // RANGE K (Lo:Hi:Step):(   1:   1:   1)
(PID.TID 0000.0001) // =======================================================
(PID.TID 0000.0001) // =======================================================
(PID.TID 0000.0001) // END OF FIELD                                          =
(PID.TID 0000.0001) // =======================================================
(PID.TID 0000.0001) 
(PID.TID 0000.0001) GAD_INIT_FIXED: GAD_OlMinSize=  1  0  1
(PID.TID 0000.0001) 
(PID.TID 0000.0001) // ===================================
(PID.TID 0000.0001) // GAD parameters :
(PID.TID 0000.0001) // ===================================
(PID.TID 0000.0001) tempAdvScheme =   /* Temp. Horiz.Advection scheme selector */
(PID.TID 0000.0001)                       2
(PID.TID 0000.0001)     ;
(PID.TID 0000.0001) tempVertAdvScheme =   /* Temp. Vert. Advection scheme selector */
(PID.TID 0000.0001)                       2
(PID.TID 0000.0001)     ;
(PID.TID 0000.0001) tempMultiDimAdvec =   /* use Muti-Dim Advec method for Temp */
(PID.TID 0000.0001)                   F
(PID.TID 0000.0001)     ;
(PID.TID 0000.0001) tempSOM_Advection = /* use 2nd Order Moment Advection for Temp */
(PID.TID 0000.0001)                   F
(PID.TID 0000.0001)     ;
(PID.TID 0000.0001) AdamsBashforthGt = /* apply Adams-Bashforth extrapolation on Gt */
(PID.TID 0000.0001)                   T
(PID.TID 0000.0001)     ;
(PID.TID 0000.0001) AdamsBashforth_T = /* apply Adams-Bashforth extrapolation on Temp */
(PID.TID 0000.0001)                   F
(PID.TID 0000.0001)     ;
(PID.TID 0000.0001) saltAdvScheme =   /* Salt. Horiz.advection scheme selector */
(PID.TID 0000.0001)                       2
(PID.TID 0000.0001)     ;
(PID.TID 0000.0001) saltVertAdvScheme =   /* Salt. Vert. Advection scheme selector */
(PID.TID 0000.0001)                       2
(PID.TID 0000.0001)     ;
(PID.TID 0000.0001) saltMultiDimAdvec =   /* use Muti-Dim Advec method for Salt */
(PID.TID 0000.0001)                   F
(PID.TID 0000.0001)     ;
(PID.TID 0000.0001) saltSOM_Advection = /* use 2nd Order Moment Advection for Salt */
(PID.TID 0000.0001)                   F
(PID.TID 0000.0001)     ;
(PID.TID 0000.0001) AdamsBashforthGs = /* apply Adams-Bashforth extrapolation on Gs */
(PID.TID 0000.0001)                   T
(PID.TID 0000.0001)     ;
(PID.TID 0000.0001) AdamsBashforth_S = /* apply Adams-Bashforth extrapolation on Salt */
(PID.TID 0000.0001)                   F
(PID.TID 0000.0001)     ;
(PID.TID 0000.0001) // ===================================
(PID.TID 0000.0001)  MDS_READ_FIELD: opening global file: frontcircum.xuyun
(PID.TID 0000.0001)  MDS_READ_FIELD: opening global file: frontdepth.xuyun
(PID.TID 0000.0001) ------------------------------------------------------------
(PID.TID 0000.0001) DIAGNOSTICS_SET_LEVELS: done
(PID.TID 0000.0001)  Total Nb of available Diagnostics: ndiagt=   198
(PID.TID 0000.0001)  write list of available Diagnostics to file: available_diagnostics.log
(PID.TID 0000.0001) SETDIAG: Allocate  1 x  1 Levels for Diagnostic #   189 SHIfwFlx
(PID.TID 0000.0001) SETDIAG: Allocate  1 x  1 Levels for Diagnostic #   190 SHIhtFlx
(PID.TID 0000.0001) SETDIAG: Allocate 30 x  1 Levels for Diagnostic #   197 ICFfwFlx
(PID.TID 0000.0001) SETDIAG: Allocate 30 x  1 Levels for Diagnostic #   198 ICFhtFlx
(PID.TID 0000.0001)   space allocated for all diagnostics:      62 levels
(PID.TID 0000.0001) DIAGNOSTICS_SET_POINTERS: Set levels for Outp.Stream: shelficeDiag
(PID.TID 0000.0001)  Levels:       1.
(PID.TID 0000.0001) DIAGNOSTICS_SET_POINTERS: Set levels for Outp.Stream: icefrontDiag
(PID.TID 0000.0001)  Levels:       1.   2.   3.   4.   5.   6.   7.   8.   9.  10.  11.  12.  13.  14.  15.  16.  17.  18.  19.  20.
(PID.TID 0000.0001)  Levels:      21.  22.  23.  24.  25.  26.  27.  28.  29.  30.
(PID.TID 0000.0001) DIAGNOSTICS_SET_POINTERS: done
(PID.TID 0000.0001) ------------------------------------------------------------
(PID.TID 0000.0001) DIAGSTATS_SET_REGIONS: define no region
(PID.TID 0000.0001) ------------------------------------------------------------
(PID.TID 0000.0001)   space allocated for all stats-diags:       0 levels
(PID.TID 0000.0001) DIAGSTATS_SET_POINTERS: done
(PID.TID 0000.0001) ------------------------------------------------------------
(PID.TID 0000.0001) %MON fCori_max                    =  -1.3709057042516E-04
(PID.TID 0000.0001) %MON fCori_min                    =  -1.4360464034757E-04
(PID.TID 0000.0001) %MON fCori_mean                   =  -1.4069429304699E-04
(PID.TID 0000.0001) %MON fCori_sd                     =   1.9069739624987E-06
(PID.TID 0000.0001) %MON fCoriG_max                   =  -1.3713394327439E-04
(PID.TID 0000.0001) %MON fCoriG_min                   =  -1.4362679550910E-04
(PID.TID 0000.0001) %MON fCoriG_mean                  =  -1.4072713798624E-04
(PID.TID 0000.0001) %MON fCoriG_sd                    =   1.9008093726821E-06
(PID.TID 0000.0001) %MON fCoriCos_max                 =   4.9761447480159E-05
(PID.TID 0000.0001) %MON fCoriCos_min                 =   2.5450607565678E-05
(PID.TID 0000.0001) %MON fCoriCos_mean                =   3.7698922201606E-05
(PID.TID 0000.0001) %MON fCoriCos_sd                  =   7.0920218535054E-06
(PID.TID 0000.0001) INI_CG2D: CG2D normalisation factor =  8.6553958581495505E-04
(PID.TID 0000.0001) 
(PID.TID 0000.0001) // =======================================================
(PID.TID 0000.0001) // Model configuration
(PID.TID 0000.0001) // =======================================================
(PID.TID 0000.0001) //
(PID.TID 0000.0001) // "Physical" paramters ( PARM01 in namelist )
(PID.TID 0000.0001) //
(PID.TID 0000.0001) buoyancyRelation = /* Type of relation to get Buoyancy */
(PID.TID 0000.0001)               'OCEANIC'
(PID.TID 0000.0001)     ;
(PID.TID 0000.0001) fluidIsAir   =  /* fluid major constituent is Air */
(PID.TID 0000.0001)                   F
(PID.TID 0000.0001)     ;
(PID.TID 0000.0001) fluidIsWater =  /* fluid major constituent is Water */
(PID.TID 0000.0001)                   T
(PID.TID 0000.0001)     ;
(PID.TID 0000.0001) usingPCoords =  /* use p (or p*) vertical coordinate */
(PID.TID 0000.0001)                   F
(PID.TID 0000.0001)     ;
(PID.TID 0000.0001) usingZCoords =  /* use z (or z*) vertical coordinate */
(PID.TID 0000.0001)                   T
(PID.TID 0000.0001)     ;
(PID.TID 0000.0001) tRef =   /* Reference temperature profile ( oC or K ) */
(PID.TID 0000.0001)    30 @ -1.900000000000000E+00              /* K =  1: 30 */
(PID.TID 0000.0001)     ;
(PID.TID 0000.0001) sRef =   /* Reference salinity profile ( psu ) */
(PID.TID 0000.0001)    30 @  3.440000000000000E+01              /* K =  1: 30 */
(PID.TID 0000.0001)     ;
(PID.TID 0000.0001) viscAh  =   /* Lateral eddy viscosity ( m^2/s ) */
(PID.TID 0000.0001)                 6.000000000000000E+02
(PID.TID 0000.0001)     ;
(PID.TID 0000.0001) viscAhMax = /* Maximum lateral eddy viscosity ( m^2/s ) */
(PID.TID 0000.0001)                 1.000000000000000E+21
(PID.TID 0000.0001)     ;
(PID.TID 0000.0001) viscAhGrid = /* Grid dependent lateral eddy viscosity ( non-dim. ) */
(PID.TID 0000.0001)                 0.000000000000000E+00
(PID.TID 0000.0001)     ;
(PID.TID 0000.0001) useFullLeith = /* Use Full Form of Leith Viscosity on/off flag*/
(PID.TID 0000.0001)                   F
(PID.TID 0000.0001)     ;
(PID.TID 0000.0001) useStrainTensionVisc= /* Use StrainTension Form of Viscous Operator flag*/
(PID.TID 0000.0001)                   F
(PID.TID 0000.0001)     ;
(PID.TID 0000.0001) useAreaViscLength = /* Use area for visc length instead of geom. mean*/
(PID.TID 0000.0001)                   F
(PID.TID 0000.0001)     ;
(PID.TID 0000.0001) viscC2leith = /* Leith harmonic visc. factor (on grad(vort),non-dim.) */
(PID.TID 0000.0001)                 0.000000000000000E+00
(PID.TID 0000.0001)     ;
(PID.TID 0000.0001) viscC2leithD = /* Leith harmonic viscosity factor (on grad(div),non-dim.)*/
(PID.TID 0000.0001)                 0.000000000000000E+00
(PID.TID 0000.0001)     ;
(PID.TID 0000.0001) viscC2smag = /* Smagorinsky harmonic viscosity factor (non-dim.) */
(PID.TID 0000.0001)                 0.000000000000000E+00
(PID.TID 0000.0001)     ;
(PID.TID 0000.0001) viscA4  =   /* Lateral biharmonic viscosity ( m^4/s ) */
(PID.TID 0000.0001)                 0.000000000000000E+00
(PID.TID 0000.0001)     ;
(PID.TID 0000.0001) viscA4Max = /* Maximum biharmonic viscosity ( m^2/s ) */
(PID.TID 0000.0001)                 1.000000000000000E+21
(PID.TID 0000.0001)     ;
(PID.TID 0000.0001) viscA4Grid = /* Grid dependent biharmonic viscosity ( non-dim. ) */
(PID.TID 0000.0001)                 0.000000000000000E+00
(PID.TID 0000.0001)     ;
(PID.TID 0000.0001) viscC4leith = /* Leith biharm viscosity factor (on grad(vort), non-dim.)*/
(PID.TID 0000.0001)                 0.000000000000000E+00
(PID.TID 0000.0001)     ;
(PID.TID 0000.0001) viscC4leithD = /* Leith biharm viscosity factor (on grad(div), non-dim.) */
(PID.TID 0000.0001)                 0.000000000000000E+00
(PID.TID 0000.0001)     ;
(PID.TID 0000.0001) viscC4Smag = /* Smagorinsky biharm viscosity factor (non-dim) */
(PID.TID 0000.0001)                 0.000000000000000E+00
(PID.TID 0000.0001)     ;
(PID.TID 0000.0001) no_slip_sides =  /* Viscous BCs: No-slip sides */
(PID.TID 0000.0001)                   F
(PID.TID 0000.0001)     ;
(PID.TID 0000.0001) sideDragFactor = /* side-drag scaling factor (non-dim) */
(PID.TID 0000.0001)                 2.000000000000000E+00
(PID.TID 0000.0001)     ;
(PID.TID 0000.0001) viscArNr = /* vertical profile of vertical viscosity ( m^2/s )*/
(PID.TID 0000.0001)    30 @  1.000000000000000E-03              /* K =  1: 30 */
(PID.TID 0000.0001)     ;
(PID.TID 0000.0001) no_slip_bottom =  /* Viscous BCs: No-slip bottom */
(PID.TID 0000.0001)                   F
(PID.TID 0000.0001)     ;
(PID.TID 0000.0001) bottomDragLinear = /* linear bottom-drag coefficient ( m/s ) */
(PID.TID 0000.0001)                 0.000000000000000E+00
(PID.TID 0000.0001)     ;
(PID.TID 0000.0001) bottomDragQuadratic = /* quadratic bottom-drag coefficient (-) */
(PID.TID 0000.0001)                 2.500000000000000E-03
(PID.TID 0000.0001)     ;
(PID.TID 0000.0001) diffKhT =   /* Laplacian diffusion of heat laterally ( m^2/s ) */
(PID.TID 0000.0001)                 1.000000000000000E+02
(PID.TID 0000.0001)     ;
(PID.TID 0000.0001) diffK4T =   /* Biharmonic diffusion of heat laterally ( m^4/s ) */
(PID.TID 0000.0001)                 0.000000000000000E+00
(PID.TID 0000.0001)     ;
(PID.TID 0000.0001) diffKhS =   /* Laplacian diffusion of salt laterally ( m^2/s ) */
(PID.TID 0000.0001)                 1.000000000000000E+02
(PID.TID 0000.0001)     ;
(PID.TID 0000.0001) diffK4S =   /* Biharmonic diffusion of salt laterally ( m^4/s ) */
(PID.TID 0000.0001)                 0.000000000000000E+00
(PID.TID 0000.0001)     ;
(PID.TID 0000.0001) diffKrNrT = /* vertical profile of vertical diffusion of Temp ( m^2/s )*/
(PID.TID 0000.0001)    30 @  5.000000000000000E-05              /* K =  1: 30 */
(PID.TID 0000.0001)     ;
(PID.TID 0000.0001) diffKrNrS = /* vertical profile of vertical diffusion of Salt ( m^2/s )*/
(PID.TID 0000.0001)    30 @  5.000000000000000E-05              /* K =  1: 30 */
(PID.TID 0000.0001)     ;
(PID.TID 0000.0001) diffKrBL79surf = /* Surface diffusion for Bryan and Lewis 79 ( m^2/s ) */
(PID.TID 0000.0001)                 0.000000000000000E+00
(PID.TID 0000.0001)     ;
(PID.TID 0000.0001) diffKrBL79deep = /* Deep diffusion for Bryan and Lewis 1979 ( m^2/s ) */
(PID.TID 0000.0001)                 0.000000000000000E+00
(PID.TID 0000.0001)     ;
(PID.TID 0000.0001) diffKrBL79scl = /* Depth scale for Bryan and Lewis 1979 ( m ) */
(PID.TID 0000.0001)                 2.000000000000000E+02
(PID.TID 0000.0001)     ;
(PID.TID 0000.0001) diffKrBL79Ho = /* Turning depth for Bryan and Lewis 1979 ( m ) */
(PID.TID 0000.0001)                -2.000000000000000E+03
(PID.TID 0000.0001)     ;
(PID.TID 0000.0001) ivdc_kappa = /* Implicit Vertical Diffusivity for Convection ( m^2/s) */
(PID.TID 0000.0001)                 0.000000000000000E+00
(PID.TID 0000.0001)     ;
(PID.TID 0000.0001) hMixCriteria=  /* Criteria for mixed-layer diagnostic */
(PID.TID 0000.0001)                -8.000000000000000E-01
(PID.TID 0000.0001)     ;
(PID.TID 0000.0001) dRhoSmall =  /* Parameter for mixed-layer diagnostic */
(PID.TID 0000.0001)                 1.000000000000000E-06
(PID.TID 0000.0001)     ;
(PID.TID 0000.0001) hMixSmooth=  /* Smoothing parameter for mixed-layer diagnostic */
(PID.TID 0000.0001)                 0.000000000000000E+00
(PID.TID 0000.0001)     ;
(PID.TID 0000.0001) eosType =  /* Type of Equation of State */
(PID.TID 0000.0001)               'JMD95Z'
(PID.TID 0000.0001)     ;
(PID.TID 0000.0001) celsius2K = /* 0 degree Celsius converted to Kelvin ( K ) */
(PID.TID 0000.0001)                 2.731500000000000E+02
(PID.TID 0000.0001)     ;
(PID.TID 0000.0001) rhoConst  = /* Reference density (Boussinesq)  ( kg/m^3 ) */
(PID.TID 0000.0001)                 1.030000000000000E+03
(PID.TID 0000.0001)     ;
(PID.TID 0000.0001) rhoFacC = /* normalized Reference density @ cell-Center (-) */
(PID.TID 0000.0001)    30 @  1.000000000000000E+00              /* K =  1: 30 */
(PID.TID 0000.0001)     ;
(PID.TID 0000.0001) rhoFacF = /* normalized Reference density @ W-Interface (-) */
(PID.TID 0000.0001)    31 @  1.000000000000000E+00              /* K =  1: 31 */
(PID.TID 0000.0001)     ;
(PID.TID 0000.0001) rhoConstFresh = /* Fresh-water reference density ( kg/m^3 ) */
(PID.TID 0000.0001)                 1.030000000000000E+03
(PID.TID 0000.0001)     ;
(PID.TID 0000.0001) gravity =   /* Gravitational acceleration ( m/s^2 ) */
(PID.TID 0000.0001)                 9.810000000000000E+00
(PID.TID 0000.0001)     ;
(PID.TID 0000.0001) gBaro =   /* Barotropic gravity ( m/s^2 ) */
(PID.TID 0000.0001)                 9.810000000000000E+00
(PID.TID 0000.0001)     ;
(PID.TID 0000.0001) rotationPeriod =   /* Rotation Period ( s ) */
(PID.TID 0000.0001)                 8.616400000000000E+04
(PID.TID 0000.0001)     ;
(PID.TID 0000.0001) omega =   /* Angular velocity ( rad/s ) */
(PID.TID 0000.0001)                 7.292123516990375E-05
(PID.TID 0000.0001)     ;
(PID.TID 0000.0001) f0 =   /* Reference coriolis parameter ( 1/s ) */
(PID.TID 0000.0001)                 1.000000000000000E-04
(PID.TID 0000.0001)     ;
(PID.TID 0000.0001) beta =   /* Beta ( 1/(m.s) ) */
(PID.TID 0000.0001)                 9.999999999999999E-12
(PID.TID 0000.0001)     ;
(PID.TID 0000.0001) fPrime =   /* Second coriolis parameter ( 1/s ) */
(PID.TID 0000.0001)                 0.000000000000000E+00
(PID.TID 0000.0001)     ;
(PID.TID 0000.0001) rigidLid =   /* Rigid lid on/off flag */
(PID.TID 0000.0001)                   F
(PID.TID 0000.0001)     ;
(PID.TID 0000.0001) implicitFreeSurface =   /* Implicit free surface on/off flag */
(PID.TID 0000.0001)                   T
(PID.TID 0000.0001)     ;
(PID.TID 0000.0001) freeSurfFac =   /* Implicit free surface factor */
(PID.TID 0000.0001)                 1.000000000000000E+00
(PID.TID 0000.0001)     ;
(PID.TID 0000.0001) implicSurfPress =  /* Surface Pressure implicit factor (0-1)*/
(PID.TID 0000.0001)                 1.000000000000000E+00
(PID.TID 0000.0001)     ;
(PID.TID 0000.0001) implicDiv2Dflow =  /* Barot. Flow Div. implicit factor (0-1)*/
(PID.TID 0000.0001)                 1.000000000000000E+00
(PID.TID 0000.0001)     ;
(PID.TID 0000.0001) uniformLin_PhiSurf = /* use uniform Bo_surf on/off flag*/
(PID.TID 0000.0001)                   T
(PID.TID 0000.0001)     ;
(PID.TID 0000.0001) uniformFreeSurfLev = /* free-surface level-index is uniform */
(PID.TID 0000.0001)                   F
(PID.TID 0000.0001)     ;
(PID.TID 0000.0001) hFacMin =   /* minimum partial cell factor (hFac) */
(PID.TID 0000.0001)                 5.000000000000000E-02
(PID.TID 0000.0001)     ;
(PID.TID 0000.0001) hFacMinDr = /* minimum partial cell thickness ( m) */
(PID.TID 0000.0001)                 5.000000000000000E-02
(PID.TID 0000.0001)     ;
(PID.TID 0000.0001) exactConserv =  /* Exact Volume Conservation on/off flag*/
(PID.TID 0000.0001)                   T
(PID.TID 0000.0001)     ;
(PID.TID 0000.0001) linFSConserveTr = /* Tracer correction for Lin Free Surface on/off flag*/
(PID.TID 0000.0001)                   F
(PID.TID 0000.0001)     ;
(PID.TID 0000.0001) nonlinFreeSurf = /* Non-linear Free Surf. options (-1,0,1,2,3)*/
(PID.TID 0000.0001)                       0
(PID.TID 0000.0001)      -1,0= Off ; 1,2,3= On, 2=+rescale gU,gV, 3=+update cg2d solv.
(PID.TID 0000.0001)     ;
(PID.TID 0000.0001) hFacInf =   /* lower threshold for hFac (nonlinFreeSurf only)*/
(PID.TID 0000.0001)                 2.000000000000000E-01
(PID.TID 0000.0001)     ;
(PID.TID 0000.0001) hFacSup =   /* upper threshold for hFac (nonlinFreeSurf only)*/
(PID.TID 0000.0001)                 2.000000000000000E+00
(PID.TID 0000.0001)     ;
(PID.TID 0000.0001) select_rStar = /* r* Vertical coord. options (=0 r coord.; >0 uses r*)*/
(PID.TID 0000.0001)                       0
(PID.TID 0000.0001)     ;
(PID.TID 0000.0001) useRealFreshWaterFlux = /* Real Fresh Water Flux on/off flag*/
(PID.TID 0000.0001)                   F
(PID.TID 0000.0001)     ;
(PID.TID 0000.0001) temp_EvPrRn = /* Temp. of Evap/Prec/R (UNSET=use local T)(oC)*/
(PID.TID 0000.0001)                 1.234567000000000E+05
(PID.TID 0000.0001)     ;
(PID.TID 0000.0001) salt_EvPrRn = /* Salin. of Evap/Prec/R (UNSET=use local S)(psu)*/
(PID.TID 0000.0001)                 0.000000000000000E+00
(PID.TID 0000.0001)     ;
(PID.TID 0000.0001) selectAddFluid = /* option for mass source/sink of fluid (=0: off) */
(PID.TID 0000.0001)                       0
(PID.TID 0000.0001)     ;
(PID.TID 0000.0001) temp_addMass = /* Temp. of addMass array (UNSET=use local T)(oC)*/
(PID.TID 0000.0001)                 1.234567000000000E+05
(PID.TID 0000.0001)     ;
(PID.TID 0000.0001) salt_addMass = /* Salin. of addMass array (UNSET=use local S)(psu)*/
(PID.TID 0000.0001)                 0.000000000000000E+00
(PID.TID 0000.0001)     ;
(PID.TID 0000.0001) convertFW2Salt = /* convert F.W. Flux to Salt Flux (-1=use local S)(psu)*/
(PID.TID 0000.0001)                 3.340000000000000E+01
(PID.TID 0000.0001)     ;
(PID.TID 0000.0001) use3Dsolver = /* use 3-D pressure solver on/off flag */
(PID.TID 0000.0001)                   F
(PID.TID 0000.0001)     ;
(PID.TID 0000.0001) nonHydrostatic =  /* Non-Hydrostatic on/off flag */
(PID.TID 0000.0001)                   F
(PID.TID 0000.0001)     ;
(PID.TID 0000.0001) nh_Am2 = /* Non-Hydrostatic terms scaling factor */
(PID.TID 0000.0001)                 1.000000000000000E+00
(PID.TID 0000.0001)     ;
(PID.TID 0000.0001) implicitNHPress = /* Non-Hyd Pressure implicit factor (0-1)*/
(PID.TID 0000.0001)                 1.000000000000000E+00
(PID.TID 0000.0001)     ;
(PID.TID 0000.0001) selectNHfreeSurf = /* Non-Hyd (free-)Surface option */
(PID.TID 0000.0001)                       0
(PID.TID 0000.0001)     ;
(PID.TID 0000.0001) quasiHydrostatic = /* Quasi-Hydrostatic on/off flag */
(PID.TID 0000.0001)                   F
(PID.TID 0000.0001)     ;
(PID.TID 0000.0001) calc_wVelocity = /* vertical velocity calculation on/off flag */
(PID.TID 0000.0001)                   T
(PID.TID 0000.0001)     ;
(PID.TID 0000.0001) momStepping =  /* Momentum equation on/off flag */
(PID.TID 0000.0001)                   T
(PID.TID 0000.0001)     ;
(PID.TID 0000.0001) vectorInvariantMomentum= /* Vector-Invariant Momentum on/off */
(PID.TID 0000.0001)                   F
(PID.TID 0000.0001)     ;
(PID.TID 0000.0001) momAdvection =  /* Momentum advection on/off flag */
(PID.TID 0000.0001)                   T
(PID.TID 0000.0001)     ;
(PID.TID 0000.0001) momViscosity =  /* Momentum viscosity on/off flag */
(PID.TID 0000.0001)                   T
(PID.TID 0000.0001)     ;
(PID.TID 0000.0001) momImplVertAdv= /* Momentum implicit vert. advection on/off*/
(PID.TID 0000.0001)                   F
(PID.TID 0000.0001)     ;
(PID.TID 0000.0001) implicitViscosity = /* Implicit viscosity on/off flag */
(PID.TID 0000.0001)                   F
(PID.TID 0000.0001)     ;
(PID.TID 0000.0001) metricTerms =  /* metric-Terms on/off flag */
(PID.TID 0000.0001)                   T
(PID.TID 0000.0001)     ;
(PID.TID 0000.0001) useNHMTerms = /* Non-Hydrostatic Metric-Terms on/off */
(PID.TID 0000.0001)                   F
(PID.TID 0000.0001)     ;
(PID.TID 0000.0001) selectCoriMap = /* Coriolis Map options (0,1,2,3)*/
(PID.TID 0000.0001)                       2
(PID.TID 0000.0001)     0= f-Plane ; 1= Beta-Plane ; 2= Spherical ; 3= read from file
(PID.TID 0000.0001)     ;
(PID.TID 0000.0001) use3dCoriolis = /* 3-D Coriolis on/off flag */
(PID.TID 0000.0001)                   F
(PID.TID 0000.0001)     ;
(PID.TID 0000.0001) useCoriolis =  /* Coriolis on/off flag */
(PID.TID 0000.0001)                   T
(PID.TID 0000.0001)     ;
(PID.TID 0000.0001) useCDscheme =  /* CD scheme on/off flag */
(PID.TID 0000.0001)                   T
(PID.TID 0000.0001)     ;
(PID.TID 0000.0001) useEnergyConservingCoriolis= /* Flx-Form Coriolis scheme flag */
(PID.TID 0000.0001)                   F
(PID.TID 0000.0001)     ;
(PID.TID 0000.0001) useJamartWetPoints= /* Coriolis WetPoints method flag */
(PID.TID 0000.0001)                   F
(PID.TID 0000.0001)     ;
(PID.TID 0000.0001) useJamartMomAdv= /* V.I Non-linear terms Jamart flag */
(PID.TID 0000.0001)                   F
(PID.TID 0000.0001)     ;
(PID.TID 0000.0001) useAbsVorticity= /* V.I Works with f+zeta in Coriolis */
(PID.TID 0000.0001)                   F
(PID.TID 0000.0001)     ;
(PID.TID 0000.0001) selectVortScheme= /* V.I Scheme selector for Vorticity-Term */
(PID.TID 0000.0001)               123456789
(PID.TID 0000.0001)    = 0 : enstrophy (Shallow-Water Eq.) conserving scheme by Sadourny, JAS 75
(PID.TID 0000.0001)    = 1 : same as 0 with modified hFac
(PID.TID 0000.0001)    = 2 : energy conserving scheme (used by Sadourny in JAS 75 paper)
(PID.TID 0000.0001)    = 3 : energy (general) and enstrophy (2D, nonDiv.) conserving scheme
(PID.TID 0000.0001)          from Sadourny (Burridge & Haseler, ECMWF Rep.4, 1977)
(PID.TID 0000.0001)     ;
(PID.TID 0000.0001) upwindVorticity= /* V.I Upwind bias vorticity flag */
(PID.TID 0000.0001)                   F
(PID.TID 0000.0001)     ;
(PID.TID 0000.0001) highOrderVorticity= /* V.I High order vort. advect. flag */
(PID.TID 0000.0001)                   F
(PID.TID 0000.0001)     ;
(PID.TID 0000.0001) upwindShear= /* V.I Upwind vertical Shear advection flag */
(PID.TID 0000.0001)                   F
(PID.TID 0000.0001)     ;
(PID.TID 0000.0001) selectKEscheme= /* V.I Kinetic Energy scheme selector */
(PID.TID 0000.0001)                       0
(PID.TID 0000.0001)     ;
(PID.TID 0000.0001) momForcing =  /* Momentum forcing on/off flag */
(PID.TID 0000.0001)                   T
(PID.TID 0000.0001)     ;
(PID.TID 0000.0001) momPressureForcing =  /* Momentum pressure term on/off flag */
(PID.TID 0000.0001)                   T
(PID.TID 0000.0001)     ;
(PID.TID 0000.0001) implicitIntGravWave= /* Implicit Internal Gravity Wave flag */
(PID.TID 0000.0001)                   F
(PID.TID 0000.0001)     ;
(PID.TID 0000.0001) staggerTimeStep =    /* Stagger time stepping on/off flag */
(PID.TID 0000.0001)                   F
(PID.TID 0000.0001)     ;
(PID.TID 0000.0001) doResetHFactors = /* reset thickness factors @ each time-step */
(PID.TID 0000.0001)                   F
(PID.TID 0000.0001)     ;
(PID.TID 0000.0001) multiDimAdvection =  /* enable/disable Multi-Dim Advection */
(PID.TID 0000.0001)                   T
(PID.TID 0000.0001)     ;
(PID.TID 0000.0001) useMultiDimAdvec =   /* Multi-Dim Advection is/is-not used */
(PID.TID 0000.0001)                   F
(PID.TID 0000.0001)     ;
(PID.TID 0000.0001) implicitDiffusion = /* Implicit Diffusion on/off flag */
(PID.TID 0000.0001)                   F
(PID.TID 0000.0001)     ;
(PID.TID 0000.0001) tempStepping =  /* Temperature equation on/off flag */
(PID.TID 0000.0001)                   T
(PID.TID 0000.0001)     ;
(PID.TID 0000.0001) tempAdvection=  /* Temperature advection on/off flag */
(PID.TID 0000.0001)                   T
(PID.TID 0000.0001)     ;
(PID.TID 0000.0001) tempImplVertAdv = /* Temp. implicit vert. advection on/off */
(PID.TID 0000.0001)                   F
(PID.TID 0000.0001)     ;
(PID.TID 0000.0001) tempForcing  =  /* Temperature forcing on/off flag */
(PID.TID 0000.0001)                   T
(PID.TID 0000.0001)     ;
(PID.TID 0000.0001) tempIsActiveTr = /* Temp. is a dynamically Active Tracer */
(PID.TID 0000.0001)                   T
(PID.TID 0000.0001)     ;
(PID.TID 0000.0001) saltStepping =  /* Salinity equation on/off flag */
(PID.TID 0000.0001)                   T
(PID.TID 0000.0001)     ;
(PID.TID 0000.0001) saltAdvection=  /* Salinity advection on/off flag */
(PID.TID 0000.0001)                   T
(PID.TID 0000.0001)     ;
(PID.TID 0000.0001) saltImplVertAdv = /* Sali. implicit vert. advection on/off */
(PID.TID 0000.0001)                   F
(PID.TID 0000.0001)     ;
(PID.TID 0000.0001) saltForcing  =  /* Salinity forcing on/off flag */
(PID.TID 0000.0001)                   T
(PID.TID 0000.0001)     ;
(PID.TID 0000.0001) saltIsActiveTr = /* Salt  is a dynamically Active Tracer */
(PID.TID 0000.0001)                   T
(PID.TID 0000.0001)     ;
(PID.TID 0000.0001)  readBinaryPrec = /* Precision used for reading binary files */
(PID.TID 0000.0001)                      64
(PID.TID 0000.0001)     ;
(PID.TID 0000.0001) writeBinaryPrec = /* Precision used for writing binary files */
(PID.TID 0000.0001)                      32
(PID.TID 0000.0001)     ;
(PID.TID 0000.0001)  globalFiles = /* write "global" (=not per tile) files */
(PID.TID 0000.0001)                   F
(PID.TID 0000.0001)     ;
(PID.TID 0000.0001)  useSingleCpuIO = /* only master MPI process does I/O */
(PID.TID 0000.0001)                   F
(PID.TID 0000.0001)     ;
(PID.TID 0000.0001) /* debLev[*]  : level of debug & auxiliary message printing */
(PID.TID 0000.0001) debLevZero =  0 ; /* level of disabled aux. msg printing */
(PID.TID 0000.0001)    debLevA =  1 ; /* level of minimum  aux. msg printing */
(PID.TID 0000.0001)    debLevB =  2 ; /* level of low aux. print (report read-file opening)*/
(PID.TID 0000.0001)    debLevC =  3 ; /* level of moderate debug prt (most pkgs debug msg) */
(PID.TID 0000.0001)    debLevD =  4 ; /* level of enhanced debug prt (add DEBUG_STATS prt) */
(PID.TID 0000.0001)    debLevE =  5 ; /* level of extensive debug printing */
(PID.TID 0000.0001) debugLevel =  /* select debug printing level */
(PID.TID 0000.0001)                       2
(PID.TID 0000.0001)     ;
(PID.TID 0000.0001) //
(PID.TID 0000.0001) // Elliptic solver(s) paramters ( PARM02 in namelist )
(PID.TID 0000.0001) //
(PID.TID 0000.0001) cg2dMaxIters =   /* Upper limit on 2d con. grad iterations  */
(PID.TID 0000.0001)                    1000
(PID.TID 0000.0001)     ;
(PID.TID 0000.0001) cg2dChkResFreq =   /* 2d con. grad convergence test frequency */
(PID.TID 0000.0001)                       1
(PID.TID 0000.0001)     ;
(PID.TID 0000.0001) cg2dTargetResidual =   /* 2d con. grad target residual  */
(PID.TID 0000.0001)                 1.000000000000000E-13
(PID.TID 0000.0001)     ;
(PID.TID 0000.0001) cg2dTargetResWunit =   /* CG2d target residual [W units] */
(PID.TID 0000.0001)                -1.000000000000000E+00
(PID.TID 0000.0001)     ;
(PID.TID 0000.0001) cg2dPreCondFreq =   /* Freq. for updating cg2d preconditioner */
(PID.TID 0000.0001)                       1
(PID.TID 0000.0001)     ;
(PID.TID 0000.0001) useSRCGSolver =  /* use single reduction CG solver(s) */
(PID.TID 0000.0001)                   F
(PID.TID 0000.0001)     ;
(PID.TID 0000.0001) printResidualFreq = /* Freq. for printing CG residual */
(PID.TID 0000.0001)                       0
(PID.TID 0000.0001)     ;
(PID.TID 0000.0001) //
(PID.TID 0000.0001) // Time stepping paramters ( PARM03 in namelist )
(PID.TID 0000.0001) //
(PID.TID 0000.0001) deltaTmom =   /* Momentum equation timestep ( s ) */
(PID.TID 0000.0001)                 1.800000000000000E+03
(PID.TID 0000.0001)     ;
(PID.TID 0000.0001) deltaTfreesurf = /* FreeSurface equation timestep ( s ) */
(PID.TID 0000.0001)                 1.800000000000000E+03
(PID.TID 0000.0001)     ;
(PID.TID 0000.0001) dTtracerLev =  /* Tracer equation timestep ( s ) */
(PID.TID 0000.0001)    30 @  1.800000000000000E+03              /* K =  1: 30 */
(PID.TID 0000.0001)     ;
(PID.TID 0000.0001) deltaTClock  =   /* Model clock timestep ( s ) */
(PID.TID 0000.0001)                 1.800000000000000E+03
(PID.TID 0000.0001)     ;
(PID.TID 0000.0001) cAdjFreq =   /* Convective adjustment interval ( s ) */
(PID.TID 0000.0001)                 1.800000000000000E+03
(PID.TID 0000.0001)     ;
(PID.TID 0000.0001) momForcingOutAB = /* =1: take Momentum Forcing out of Adams-Bash. stepping */
(PID.TID 0000.0001)                       0
(PID.TID 0000.0001)     ;
(PID.TID 0000.0001) tracForcingOutAB = /* =1: take T,S,pTr Forcing out of Adams-Bash. stepping */
(PID.TID 0000.0001)                       0
(PID.TID 0000.0001)     ;
(PID.TID 0000.0001) momDissip_In_AB = /* put Dissipation Tendency in Adams-Bash. stepping */
(PID.TID 0000.0001)                   T
(PID.TID 0000.0001)     ;
(PID.TID 0000.0001) doAB_onGtGs = /* apply AB on Tendencies (rather than on T,S)*/
(PID.TID 0000.0001)                   T
(PID.TID 0000.0001)     ;
(PID.TID 0000.0001) abEps =   /* Adams-Bashforth-2 stabilizing weight */
(PID.TID 0000.0001)                 1.000000000000000E-01
(PID.TID 0000.0001)     ;
(PID.TID 0000.0001) tauCD =   /* CD coupling time-scale ( s ) */
(PID.TID 0000.0001)                 4.000000000000000E+05
(PID.TID 0000.0001)     ;
(PID.TID 0000.0001) rCD =   /* Normalised CD coupling parameter */
(PID.TID 0000.0001)                 9.955000000000001E-01
(PID.TID 0000.0001)     ;
(PID.TID 0000.0001) epsAB_CD = /* AB-2 stabilizing weight for CD-scheme*/
(PID.TID 0000.0001)                 1.000000000000000E-01
(PID.TID 0000.0001)     ;
(PID.TID 0000.0001) pickupStrictlyMatch= /* stop if pickup do not strictly match */
(PID.TID 0000.0001)                   T
(PID.TID 0000.0001)     ;
(PID.TID 0000.0001) nIter0   =   /* Run starting timestep number */
(PID.TID 0000.0001)                       0
(PID.TID 0000.0001)     ;
(PID.TID 0000.0001) nTimeSteps = /* Number of timesteps */
(PID.TID 0000.0001)                      20
(PID.TID 0000.0001)     ;
(PID.TID 0000.0001) nEndIter =   /* Run ending timestep number */
(PID.TID 0000.0001)                      20
(PID.TID 0000.0001)     ;
(PID.TID 0000.0001) baseTime =   /* Model base time ( s ) */
(PID.TID 0000.0001)                 0.000000000000000E+00
(PID.TID 0000.0001)     ;
(PID.TID 0000.0001) startTime =  /* Run start time ( s ) */
(PID.TID 0000.0001)                 0.000000000000000E+00
(PID.TID 0000.0001)     ;
(PID.TID 0000.0001) endTime  =   /* Integration ending time ( s ) */
(PID.TID 0000.0001)                 3.600000000000000E+04
(PID.TID 0000.0001)     ;
(PID.TID 0000.0001) pChkPtFreq = /* Permanent restart/pickup file interval ( s ) */
(PID.TID 0000.0001)                 0.000000000000000E+00
(PID.TID 0000.0001)     ;
(PID.TID 0000.0001) chkPtFreq  = /* Rolling restart/pickup file interval ( s ) */
(PID.TID 0000.0001)                 0.000000000000000E+00
(PID.TID 0000.0001)     ;
(PID.TID 0000.0001) pickup_write_mdsio =   /* Model IO flag. */
(PID.TID 0000.0001)                   T
(PID.TID 0000.0001)     ;
(PID.TID 0000.0001) pickup_read_mdsio =   /* Model IO flag. */
(PID.TID 0000.0001)                   T
(PID.TID 0000.0001)     ;
(PID.TID 0000.0001) pickup_write_mnc =   /* Model IO flag. */
(PID.TID 0000.0001)                   F
(PID.TID 0000.0001)     ;
(PID.TID 0000.0001) pickup_read_mnc =   /* Model IO flag. */
(PID.TID 0000.0001)                   F
(PID.TID 0000.0001)     ;
(PID.TID 0000.0001) pickup_write_immed =   /* Model IO flag. */
(PID.TID 0000.0001)                   F
(PID.TID 0000.0001)     ;
(PID.TID 0000.0001) writePickupAtEnd =   /* Model IO flag. */
(PID.TID 0000.0001)                   T
(PID.TID 0000.0001)     ;
(PID.TID 0000.0001) dumpFreq =   /* Model state write out interval ( s ). */
(PID.TID 0000.0001)                 0.000000000000000E+00
(PID.TID 0000.0001)     ;
(PID.TID 0000.0001) dumpInitAndLast= /* write out Initial & Last iter. model state */
(PID.TID 0000.0001)                   T
(PID.TID 0000.0001)     ;
(PID.TID 0000.0001) snapshot_mdsio =   /* Model IO flag. */
(PID.TID 0000.0001)                   T
(PID.TID 0000.0001)     ;
(PID.TID 0000.0001) snapshot_mnc =   /* Model IO flag. */
(PID.TID 0000.0001)                   F
(PID.TID 0000.0001)     ;
(PID.TID 0000.0001) monitorFreq =   /* Monitor output interval ( s ). */
(PID.TID 0000.0001)                 1.000000000000000E+00
(PID.TID 0000.0001)     ;
(PID.TID 0000.0001) monitorSelect = /* select group of variables to monitor */
(PID.TID 0000.0001)                       2
(PID.TID 0000.0001)     ;
(PID.TID 0000.0001) monitor_stdio =   /* Model IO flag. */
(PID.TID 0000.0001)                   T
(PID.TID 0000.0001)     ;
(PID.TID 0000.0001) monitor_mnc =   /* Model IO flag. */
(PID.TID 0000.0001)                   F
(PID.TID 0000.0001)     ;
(PID.TID 0000.0001) externForcingPeriod =   /* forcing period (s) */
(PID.TID 0000.0001)                 0.000000000000000E+00
(PID.TID 0000.0001)     ;
(PID.TID 0000.0001) externForcingCycle =   /* period of the cyle (s). */
(PID.TID 0000.0001)                 0.000000000000000E+00
(PID.TID 0000.0001)     ;
(PID.TID 0000.0001) tauThetaClimRelax =   /* relaxation time scale (s) */
(PID.TID 0000.0001)                 0.000000000000000E+00
(PID.TID 0000.0001)     ;
(PID.TID 0000.0001) tauSaltClimRelax =   /* relaxation time scale (s) */
(PID.TID 0000.0001)                 0.000000000000000E+00
(PID.TID 0000.0001)     ;
(PID.TID 0000.0001) latBandClimRelax =   /* max. Lat. where relaxation */
(PID.TID 0000.0001)                 1.800000000000000E+02
(PID.TID 0000.0001)     ;
(PID.TID 0000.0001) //
(PID.TID 0000.0001) // Gridding paramters ( PARM04 in namelist )
(PID.TID 0000.0001) //
(PID.TID 0000.0001) usingCartesianGrid = /* Cartesian coordinates flag ( True/False ) */
(PID.TID 0000.0001)                   F
(PID.TID 0000.0001)     ;
(PID.TID 0000.0001) usingCylindricalGrid = /* Cylindrical coordinates flag ( True/False ) */
(PID.TID 0000.0001)                   F
(PID.TID 0000.0001)     ;
(PID.TID 0000.0001) usingSphericalPolarGrid = /* Spherical coordinates flag ( True/False ) */
(PID.TID 0000.0001)                   T
(PID.TID 0000.0001)     ;
(PID.TID 0000.0001) usingCurvilinearGrid = /* Curvilinear coordinates flag ( True/False ) */
(PID.TID 0000.0001)                   F
(PID.TID 0000.0001)     ;
(PID.TID 0000.0001) selectSigmaCoord = /* Hybrid-Sigma Vert. Coordinate option */
(PID.TID 0000.0001)                       0
(PID.TID 0000.0001)     ;
(PID.TID 0000.0001) Ro_SeaLevel = /* r(1) ( units of r ==  m ) */
(PID.TID 0000.0001)                 0.000000000000000E+00
(PID.TID 0000.0001)     ;
(PID.TID 0000.0001) rSigmaBnd = /* r/sigma transition ( units of r ==  m ) */
(PID.TID 0000.0001)                 1.234567000000000E+05
(PID.TID 0000.0001)     ;
(PID.TID 0000.0001) rkSign =   /* index orientation relative to vertical coordinate */
(PID.TID 0000.0001)                -1.000000000000000E+00
(PID.TID 0000.0001)     ;
(PID.TID 0000.0001) gravitySign = /* gravity orientation relative to vertical coordinate */
(PID.TID 0000.0001)                -1.000000000000000E+00
(PID.TID 0000.0001)     ;
(PID.TID 0000.0001) mass2rUnit = /* convert mass per unit area [kg/m2] to r-units [m] */
(PID.TID 0000.0001)                 9.708737864077669E-04
(PID.TID 0000.0001)     ;
(PID.TID 0000.0001) rUnit2mass = /* convert r-units [m] to mass per unit area [kg/m2] */
(PID.TID 0000.0001)                 1.030000000000000E+03
(PID.TID 0000.0001)     ;
(PID.TID 0000.0001) drC =   /* C spacing ( units of r ) */
(PID.TID 0000.0001)                 1.500000000000000E+01,      /* K =  1 */
(PID.TID 0000.0001)    29 @  3.000000000000000E+01              /* K =  2: 30 */
(PID.TID 0000.0001)     ;
(PID.TID 0000.0001) drF =   /* W spacing ( units of r ) */
(PID.TID 0000.0001)    30 @  3.000000000000000E+01              /* K =  1: 30 */
(PID.TID 0000.0001)     ;
(PID.TID 0000.0001) delX = /* U spacing ( m - cartesian, degrees - spherical ) */
(PID.TID 0000.0001)    50 @  3.000000000000000E-01              /* I =  1: 50 */
(PID.TID 0000.0001)     ;
(PID.TID 0000.0001) delY = /* V spacing ( m - cartesian, degrees - spherical ) */
(PID.TID 0000.0001)   100 @  1.000000000000000E-01              /* J =  1:100 */
(PID.TID 0000.0001)     ;
(PID.TID 0000.0001) xgOrigin = /* X-axis origin of West  edge (cartesian: m, lat-lon: deg.) */
(PID.TID 0000.0001)                 0.000000000000000E+00
(PID.TID 0000.0001)     ;
(PID.TID 0000.0001) ygOrigin = /* Y-axis origin of South edge (cartesian: m, lat-lon: deg.) */
(PID.TID 0000.0001)                -8.000000000000000E+01
(PID.TID 0000.0001)     ;
(PID.TID 0000.0001) rSphere =  /* Radius ( ignored - cartesian, m - spherical ) */
(PID.TID 0000.0001)                 6.370000000000000E+06
(PID.TID 0000.0001)     ;
(PID.TID 0000.0001) deepAtmosphere = /* Deep/Shallow Atmosphere flag (True/False) */
(PID.TID 0000.0001)                   F
(PID.TID 0000.0001)     ;
(PID.TID 0000.0001) xC =  /* xC(:,1,:,1) : P-point X coord ( deg. or m if cartesian) */
(PID.TID 0000.0001)                 1.500000000000001E-01,      /* I =  1 */
(PID.TID 0000.0001)                 4.500000000000001E-01,      /* I =  2 */
(PID.TID 0000.0001)                 7.500000000000002E-01,      /* I =  3 */
(PID.TID 0000.0001)                 1.050000000000000E+00,      /* I =  4 */
(PID.TID 0000.0001)                 1.350000000000000E+00,      /* I =  5 */
(PID.TID 0000.0001)                 1.650000000000000E+00,      /* I =  6 */
(PID.TID 0000.0001)                 1.950000000000000E+00,      /* I =  7 */
(PID.TID 0000.0001)                 2.250000000000000E+00,      /* I =  8 */
(PID.TID 0000.0001)                 2.550000000000000E+00,      /* I =  9 */
(PID.TID 0000.0001)                 2.850000000000000E+00,      /* I = 10 */
(PID.TID 0000.0001)                 3.149999999999999E+00,      /* I = 11 */
(PID.TID 0000.0001)                 3.449999999999999E+00,      /* I = 12 */
(PID.TID 0000.0001)                 3.749999999999999E+00,      /* I = 13 */
(PID.TID 0000.0001)                 4.049999999999999E+00,      /* I = 14 */
(PID.TID 0000.0001)                 4.350000000000000E+00,      /* I = 15 */
(PID.TID 0000.0001)                 4.649999999999999E+00,      /* I = 16 */
(PID.TID 0000.0001)                 4.949999999999999E+00,      /* I = 17 */
(PID.TID 0000.0001)                 5.249999999999998E+00,      /* I = 18 */
(PID.TID 0000.0001)                 5.549999999999999E+00,      /* I = 19 */
(PID.TID 0000.0001)                 5.849999999999998E+00,      /* I = 20 */
(PID.TID 0000.0001)                 6.149999999999999E+00,      /* I = 21 */
(PID.TID 0000.0001)                 6.449999999999998E+00,      /* I = 22 */
(PID.TID 0000.0001)                 6.749999999999998E+00,      /* I = 23 */
(PID.TID 0000.0001)                 7.049999999999997E+00,      /* I = 24 */
(PID.TID 0000.0001)                 7.349999999999997E+00,      /* I = 25 */
(PID.TID 0000.0001)                 7.649999999999997E+00,      /* I = 26 */
(PID.TID 0000.0001)                 7.949999999999998E+00,      /* I = 27 */
(PID.TID 0000.0001)                 8.249999999999998E+00,      /* I = 28 */
(PID.TID 0000.0001)                 8.549999999999999E+00,      /* I = 29 */
(PID.TID 0000.0001)                 8.850000000000000E+00,      /* I = 30 */
(PID.TID 0000.0001)                 9.150000000000000E+00,      /* I = 31 */
(PID.TID 0000.0001)                 9.450000000000001E+00,      /* I = 32 */
(PID.TID 0000.0001)                 9.750000000000002E+00,      /* I = 33 */
(PID.TID 0000.0001)                 1.005000000000000E+01,      /* I = 34 */
(PID.TID 0000.0001)                 1.035000000000000E+01,      /* I = 35 */
(PID.TID 0000.0001)                 1.065000000000000E+01,      /* I = 36 */
(PID.TID 0000.0001)                 1.095000000000001E+01,      /* I = 37 */
(PID.TID 0000.0001)                 1.125000000000001E+01,      /* I = 38 */
(PID.TID 0000.0001)                 1.155000000000000E+01,      /* I = 39 */
(PID.TID 0000.0001)                 1.185000000000001E+01,      /* I = 40 */
(PID.TID 0000.0001)                 1.215000000000001E+01,      /* I = 41 */
(PID.TID 0000.0001)                 1.245000000000001E+01,      /* I = 42 */
(PID.TID 0000.0001)                 1.275000000000001E+01,      /* I = 43 */
(PID.TID 0000.0001)                 1.305000000000001E+01,      /* I = 44 */
(PID.TID 0000.0001)                 1.335000000000001E+01,      /* I = 45 */
(PID.TID 0000.0001)                 1.365000000000001E+01,      /* I = 46 */
(PID.TID 0000.0001)                 1.395000000000001E+01,      /* I = 47 */
(PID.TID 0000.0001)                 1.425000000000001E+01,      /* I = 48 */
(PID.TID 0000.0001)                 1.455000000000001E+01,      /* I = 49 */
(PID.TID 0000.0001)                 1.485000000000001E+01       /* I = 50 */
(PID.TID 0000.0001)     ;
(PID.TID 0000.0001) yC =  /* yC(1,:,1,:) : P-point Y coord ( deg. or m if cartesian) */
(PID.TID 0000.0001)                -7.995000000000000E+01,      /* J =  1 */
(PID.TID 0000.0001)                -7.985000000000001E+01,      /* J =  2 */
(PID.TID 0000.0001)                -7.975000000000001E+01,      /* J =  3 */
(PID.TID 0000.0001)      . . .
(PID.TID 0000.0001)                -7.775000000000013E+01,      /* J = 23 */
(PID.TID 0000.0001)                -7.765000000000013E+01,      /* J = 24 */
(PID.TID 0000.0001)                -7.755000000000014E+01,      /* J = 25 */
(PID.TID 0000.0001)                -7.745000000000014E+01,      /* J = 26 */
(PID.TID 0000.0001)                -7.735000000000015E+01,      /* J = 27 */
(PID.TID 0000.0001)                -7.725000000000016E+01,      /* J = 28 */
(PID.TID 0000.0001)      . . .
(PID.TID 0000.0001)                -7.525000000000027E+01,      /* J = 48 */
(PID.TID 0000.0001)                -7.515000000000028E+01,      /* J = 49 */
(PID.TID 0000.0001)                -7.505000000000028E+01,      /* J = 50 */
(PID.TID 0000.0001)                -7.495000000000029E+01,      /* J = 51 */
(PID.TID 0000.0001)                -7.485000000000029E+01,      /* J = 52 */
(PID.TID 0000.0001)                -7.475000000000030E+01,      /* J = 53 */
(PID.TID 0000.0001)      . . .
(PID.TID 0000.0001)                -7.275000000000041E+01,      /* J = 73 */
(PID.TID 0000.0001)                -7.265000000000042E+01,      /* J = 74 */
(PID.TID 0000.0001)                -7.255000000000042E+01,      /* J = 75 */
(PID.TID 0000.0001)                -7.245000000000043E+01,      /* J = 76 */
(PID.TID 0000.0001)                -7.235000000000043E+01,      /* J = 77 */
(PID.TID 0000.0001)                -7.225000000000044E+01,      /* J = 78 */
(PID.TID 0000.0001)      . . .
(PID.TID 0000.0001)                -7.025000000000055E+01,      /* J = 98 */
(PID.TID 0000.0001)                -7.015000000000056E+01,      /* J = 99 */
(PID.TID 0000.0001)                -7.005000000000057E+01       /* J =100 */
(PID.TID 0000.0001)     ;
(PID.TID 0000.0001) rcoord = /* P-point R coordinate (  units of r ) */
(PID.TID 0000.0001)                -1.500000000000000E+01,      /* K =  1 */
(PID.TID 0000.0001)                -4.500000000000000E+01,      /* K =  2 */
(PID.TID 0000.0001)                -7.500000000000000E+01,      /* K =  3 */
(PID.TID 0000.0001)                -1.050000000000000E+02,      /* K =  4 */
(PID.TID 0000.0001)                -1.350000000000000E+02,      /* K =  5 */
(PID.TID 0000.0001)                -1.650000000000000E+02,      /* K =  6 */
(PID.TID 0000.0001)                -1.950000000000000E+02,      /* K =  7 */
(PID.TID 0000.0001)                -2.250000000000000E+02,      /* K =  8 */
(PID.TID 0000.0001)                -2.550000000000000E+02,      /* K =  9 */
(PID.TID 0000.0001)                -2.850000000000000E+02,      /* K = 10 */
(PID.TID 0000.0001)                -3.150000000000000E+02,      /* K = 11 */
(PID.TID 0000.0001)                -3.450000000000000E+02,      /* K = 12 */
(PID.TID 0000.0001)                -3.750000000000000E+02,      /* K = 13 */
(PID.TID 0000.0001)                -4.050000000000000E+02,      /* K = 14 */
(PID.TID 0000.0001)                -4.350000000000000E+02,      /* K = 15 */
(PID.TID 0000.0001)                -4.650000000000000E+02,      /* K = 16 */
(PID.TID 0000.0001)                -4.950000000000000E+02,      /* K = 17 */
(PID.TID 0000.0001)                -5.250000000000000E+02,      /* K = 18 */
(PID.TID 0000.0001)                -5.550000000000000E+02,      /* K = 19 */
(PID.TID 0000.0001)                -5.850000000000000E+02,      /* K = 20 */
(PID.TID 0000.0001)                -6.150000000000000E+02,      /* K = 21 */
(PID.TID 0000.0001)                -6.450000000000000E+02,      /* K = 22 */
(PID.TID 0000.0001)                -6.750000000000000E+02,      /* K = 23 */
(PID.TID 0000.0001)                -7.050000000000000E+02,      /* K = 24 */
(PID.TID 0000.0001)                -7.350000000000000E+02,      /* K = 25 */
(PID.TID 0000.0001)                -7.650000000000000E+02,      /* K = 26 */
(PID.TID 0000.0001)                -7.950000000000000E+02,      /* K = 27 */
(PID.TID 0000.0001)                -8.250000000000000E+02,      /* K = 28 */
(PID.TID 0000.0001)                -8.550000000000000E+02,      /* K = 29 */
(PID.TID 0000.0001)                -8.850000000000000E+02       /* K = 30 */
(PID.TID 0000.0001)     ;
(PID.TID 0000.0001) rF =   /* W-Interf. R coordinate (  units of r ) */
(PID.TID 0000.0001)                 0.000000000000000E+00,      /* K =  1 */
(PID.TID 0000.0001)                -3.000000000000000E+01,      /* K =  2 */
(PID.TID 0000.0001)                -6.000000000000000E+01,      /* K =  3 */
(PID.TID 0000.0001)                -9.000000000000000E+01,      /* K =  4 */
(PID.TID 0000.0001)                -1.200000000000000E+02,      /* K =  5 */
(PID.TID 0000.0001)                -1.500000000000000E+02,      /* K =  6 */
(PID.TID 0000.0001)                -1.800000000000000E+02,      /* K =  7 */
(PID.TID 0000.0001)                -2.100000000000000E+02,      /* K =  8 */
(PID.TID 0000.0001)                -2.400000000000000E+02,      /* K =  9 */
(PID.TID 0000.0001)                -2.700000000000000E+02,      /* K = 10 */
(PID.TID 0000.0001)                -3.000000000000000E+02,      /* K = 11 */
(PID.TID 0000.0001)                -3.300000000000000E+02,      /* K = 12 */
(PID.TID 0000.0001)                -3.600000000000000E+02,      /* K = 13 */
(PID.TID 0000.0001)                -3.900000000000000E+02,      /* K = 14 */
(PID.TID 0000.0001)                -4.200000000000000E+02,      /* K = 15 */
(PID.TID 0000.0001)                -4.500000000000000E+02,      /* K = 16 */
(PID.TID 0000.0001)                -4.800000000000000E+02,      /* K = 17 */
(PID.TID 0000.0001)                -5.100000000000000E+02,      /* K = 18 */
(PID.TID 0000.0001)                -5.400000000000000E+02,      /* K = 19 */
(PID.TID 0000.0001)                -5.700000000000000E+02,      /* K = 20 */
(PID.TID 0000.0001)                -6.000000000000000E+02,      /* K = 21 */
(PID.TID 0000.0001)                -6.300000000000000E+02,      /* K = 22 */
(PID.TID 0000.0001)                -6.600000000000000E+02,      /* K = 23 */
(PID.TID 0000.0001)                -6.900000000000000E+02,      /* K = 24 */
(PID.TID 0000.0001)                -7.200000000000000E+02,      /* K = 25 */
(PID.TID 0000.0001)                -7.500000000000000E+02,      /* K = 26 */
(PID.TID 0000.0001)                -7.800000000000000E+02,      /* K = 27 */
(PID.TID 0000.0001)                -8.100000000000000E+02,      /* K = 28 */
(PID.TID 0000.0001)                -8.400000000000000E+02,      /* K = 29 */
(PID.TID 0000.0001)                -8.700000000000000E+02,      /* K = 30 */
(PID.TID 0000.0001)                -9.000000000000000E+02       /* K = 31 */
(PID.TID 0000.0001)     ;
(PID.TID 0000.0001) deepFacC = /* deep-model grid factor @ cell-Center (-) */
(PID.TID 0000.0001)    30 @  1.000000000000000E+00              /* K =  1: 30 */
(PID.TID 0000.0001)     ;
(PID.TID 0000.0001) deepFacF = /* deep-model grid factor @ W-Interface (-) */
(PID.TID 0000.0001)    31 @  1.000000000000000E+00              /* K =  1: 31 */
(PID.TID 0000.0001)     ;
(PID.TID 0000.0001) rVel2wUnit = /* convert units: rVel -> wSpeed (=1 if z-coord)*/
(PID.TID 0000.0001)    31 @  1.000000000000000E+00              /* K =  1: 31 */
(PID.TID 0000.0001)     ;
(PID.TID 0000.0001) wUnit2rVel = /* convert units: wSpeed -> rVel (=1 if z-coord)*/
(PID.TID 0000.0001)    31 @  1.000000000000000E+00              /* K =  1: 31 */
(PID.TID 0000.0001)     ;
(PID.TID 0000.0001) dBdrRef = /* Vertical grad. of reference buoyancy [(m/s/r)^2] */
(PID.TID 0000.0001)    30 @  0.000000000000000E+00              /* K =  1: 30 */
(PID.TID 0000.0001)     ;
(PID.TID 0000.0001) rotateGrid = /* use rotated grid ( True/False ) */
(PID.TID 0000.0001)                   F
(PID.TID 0000.0001)     ;
(PID.TID 0000.0001) phiEuler = /* Euler angle, rotation about original z-coordinate [rad] */
(PID.TID 0000.0001)                 0.000000000000000E+00
(PID.TID 0000.0001)     ;
(PID.TID 0000.0001) thetaEuler = /* Euler angle, rotation about new x-coordinate [rad] */
(PID.TID 0000.0001)                 0.000000000000000E+00
(PID.TID 0000.0001)     ;
(PID.TID 0000.0001) psiEuler = /* Euler angle, rotation about new z-coordinate [rad] */
(PID.TID 0000.0001)                 0.000000000000000E+00
(PID.TID 0000.0001)     ;
(PID.TID 0000.0001) dxF =  /* dxF(:,1,:,1) ( units: m ) */
(PID.TID 0000.0001)    50 @  5.820391490558872E+03              /* I =  1: 50 */
(PID.TID 0000.0001)     ;
(PID.TID 0000.0001) dxF =  /* dxF(1,:,1,:) ( units: m ) */
(PID.TID 0000.0001)                 5.820391490558872E+03,      /* J =  1 */
(PID.TID 0000.0001)                 5.877701765291692E+03,      /* J =  2 */
(PID.TID 0000.0001)                 5.934994135525598E+03,      /* J =  3 */
(PID.TID 0000.0001)      . . .
(PID.TID 0000.0001)                 7.076813247621209E+03,      /* J = 23 */
(PID.TID 0000.0001)                 7.133689397375063E+03,      /* J = 24 */
(PID.TID 0000.0001)                 7.190543816673855E+03,      /* J = 25 */
(PID.TID 0000.0001)                 7.247376332329164E+03,      /* J = 26 */
(PID.TID 0000.0001)                 7.304186771219292E+03,      /* J = 27 */
(PID.TID 0000.0001)                 7.360974960289787E+03,      /* J = 28 */
(PID.TID 0000.0001)      . . .
(PID.TID 0000.0001)                 8.491800393599013E+03,      /* J = 48 */
(PID.TID 0000.0001)                 8.548081485571185E+03,      /* J = 49 */
(PID.TID 0000.0001)                 8.604336538604706E+03,      /* J = 50 */
(PID.TID 0000.0001)                 8.660565381336924E+03,      /* J = 51 */
(PID.TID 0000.0001)                 8.716767842485036E+03,      /* J = 52 */
(PID.TID 0000.0001)                 8.772943750846600E+03,      /* J = 53 */
(PID.TID 0000.0001)      . . .
(PID.TID 0000.0001)                 9.890622914885218E+03,      /* J = 73 */
(PID.TID 0000.0001)                 9.946201814818334E+03,      /* J = 74 */
(PID.TID 0000.0001)                 1.000175041689580E+04,      /* J = 75 */
(PID.TID 0000.0001)                 1.005726855190695E+04,      /* J = 76 */
(PID.TID 0000.0001)                 1.011275605073392E+04,      /* J = 77 */
(PID.TID 0000.0001)                 1.016821274435215E+04,      /* J = 78 */
(PID.TID 0000.0001)      . . .
(PID.TID 0000.0001)                 1.127061807330668E+04,      /* J = 98 */
(PID.TID 0000.0001)                 1.132538898360582E+04,      /* J = 99 */
(PID.TID 0000.0001)                 1.138012539480601E+04       /* J =100 */
(PID.TID 0000.0001)     ;
(PID.TID 0000.0001) dyF =  /* dyF(:,1,:,1) ( units: m ) */
(PID.TID 0000.0001)    50 @  1.111774733520388E+04              /* I =  1: 50 */
(PID.TID 0000.0001)     ;
(PID.TID 0000.0001) dyF =  /* dyF(1,:,1,:) ( units: m ) */
(PID.TID 0000.0001)   100 @  1.111774733520388E+04              /* J =  1:100 */
(PID.TID 0000.0001)     ;
(PID.TID 0000.0001) dxG =  /* dxG(:,1,:,1) ( units: m ) */
(PID.TID 0000.0001)    50 @  5.791729693558576E+03              /* I =  1: 50 */
(PID.TID 0000.0001)     ;
(PID.TID 0000.0001) dxG =  /* dxG(1,:,1,:) ( units: m ) */
(PID.TID 0000.0001)                 5.791729693558576E+03,      /* J =  1 */
(PID.TID 0000.0001)                 5.849048855077854E+03,      /* J =  2 */
(PID.TID 0000.0001)                 5.906350199379949E+03,      /* J =  3 */
(PID.TID 0000.0001)      . . .
(PID.TID 0000.0001)                 7.048367077963129E+03,      /* J = 23 */
(PID.TID 0000.0001)                 7.105254027978149E+03,      /* J = 24 */
(PID.TID 0000.0001)                 7.162119334157175E+03,      /* J = 25 */
(PID.TID 0000.0001)                 7.218962823278620E+03,      /* J = 26 */
(PID.TID 0000.0001)                 7.275784322187360E+03,      /* J = 27 */
(PID.TID 0000.0001)                 7.332583657795253E+03,      /* J = 28 */
(PID.TID 0000.0001)      . . .
(PID.TID 0000.0001)                 8.463650136583461E+03,      /* J = 48 */
(PID.TID 0000.0001)                 8.519944183739159E+03,      /* J = 49 */
(PID.TID 0000.0001)                 8.576212277667308E+03,      /* J = 50 */
(PID.TID 0000.0001)                 8.632454246965530E+03,      /* J = 51 */
(PID.TID 0000.0001)                 8.688669920311038E+03,      /* J = 52 */
(PID.TID 0000.0001)                 8.744859126461139E+03,      /* J = 53 */
(PID.TID 0000.0001)      . . .
(PID.TID 0000.0001)                 9.862822156126382E+03,      /* J = 73 */
(PID.TID 0000.0001)                 9.918416141504455E+03,      /* J = 74 */
(PID.TID 0000.0001)                 9.973979913666863E+03,      /* J = 75 */
(PID.TID 0000.0001)                 1.002951330335672E+04,      /* J = 76 */
(PID.TID 0000.0001)                 1.008501614140969E+04,      /* J = 77 */
(PID.TID 0000.0001)                 1.014048825875450E+04,      /* J = 78 */
(PID.TID 0000.0001)      . . .
(PID.TID 0000.0001)                 1.124321973312895E+04,      /* J = 98 */
(PID.TID 0000.0001)                 1.129800783041847E+04,      /* J = 99 */
(PID.TID 0000.0001)                 1.135276151201679E+04       /* J =100 */
(PID.TID 0000.0001)     ;
(PID.TID 0000.0001) dyG =  /* dyG(:,1,:,1) ( units: m ) */
(PID.TID 0000.0001)    50 @  1.111774733520388E+04              /* I =  1: 50 */
(PID.TID 0000.0001)     ;
(PID.TID 0000.0001) dyG =  /* dyG(1,:,1,:) ( units: m ) */
(PID.TID 0000.0001)   100 @  1.111774733520388E+04              /* J =  1:100 */
(PID.TID 0000.0001)     ;
(PID.TID 0000.0001) dxC =  /* dxC(:,1,:,1) ( units: m ) */
(PID.TID 0000.0001)    50 @  5.820391490558872E+03              /* I =  1: 50 */
(PID.TID 0000.0001)     ;
(PID.TID 0000.0001) dxC =  /* dxC(1,:,1,:) ( units: m ) */
(PID.TID 0000.0001)                 5.820391490558872E+03,      /* J =  1 */
(PID.TID 0000.0001)                 5.877701765291692E+03,      /* J =  2 */
(PID.TID 0000.0001)                 5.934994135525598E+03,      /* J =  3 */
(PID.TID 0000.0001)      . . .
(PID.TID 0000.0001)                 7.076813247621209E+03,      /* J = 23 */
(PID.TID 0000.0001)                 7.133689397375063E+03,      /* J = 24 */
(PID.TID 0000.0001)                 7.190543816673855E+03,      /* J = 25 */
(PID.TID 0000.0001)                 7.247376332329164E+03,      /* J = 26 */
(PID.TID 0000.0001)                 7.304186771219292E+03,      /* J = 27 */
(PID.TID 0000.0001)                 7.360974960289787E+03,      /* J = 28 */
(PID.TID 0000.0001)      . . .
(PID.TID 0000.0001)                 8.491800393599013E+03,      /* J = 48 */
(PID.TID 0000.0001)                 8.548081485571185E+03,      /* J = 49 */
(PID.TID 0000.0001)                 8.604336538604706E+03,      /* J = 50 */
(PID.TID 0000.0001)                 8.660565381336924E+03,      /* J = 51 */
(PID.TID 0000.0001)                 8.716767842485036E+03,      /* J = 52 */
(PID.TID 0000.0001)                 8.772943750846600E+03,      /* J = 53 */
(PID.TID 0000.0001)      . . .
(PID.TID 0000.0001)                 9.890622914885218E+03,      /* J = 73 */
(PID.TID 0000.0001)                 9.946201814818334E+03,      /* J = 74 */
(PID.TID 0000.0001)                 1.000175041689580E+04,      /* J = 75 */
(PID.TID 0000.0001)                 1.005726855190695E+04,      /* J = 76 */
(PID.TID 0000.0001)                 1.011275605073392E+04,      /* J = 77 */
(PID.TID 0000.0001)                 1.016821274435215E+04,      /* J = 78 */
(PID.TID 0000.0001)      . . .
(PID.TID 0000.0001)                 1.127061807330668E+04,      /* J = 98 */
(PID.TID 0000.0001)                 1.132538898360582E+04,      /* J = 99 */
(PID.TID 0000.0001)                 1.138012539480601E+04       /* J =100 */
(PID.TID 0000.0001)     ;
(PID.TID 0000.0001) dyC =  /* dyC(:,1,:,1) ( units: m ) */
(PID.TID 0000.0001)    50 @  1.111774733520388E+04              /* I =  1: 50 */
(PID.TID 0000.0001)     ;
(PID.TID 0000.0001) dyC =  /* dyC(1,:,1,:) ( units: m ) */
(PID.TID 0000.0001)   100 @  1.111774733520388E+04              /* J =  1:100 */
(PID.TID 0000.0001)     ;
(PID.TID 0000.0001) dxV =  /* dxV(:,1,:,1) ( units: m ) */
(PID.TID 0000.0001)    50 @  5.791729693558576E+03              /* I =  1: 50 */
(PID.TID 0000.0001)     ;
(PID.TID 0000.0001) dxV =  /* dxV(1,:,1,:) ( units: m ) */
(PID.TID 0000.0001)                 5.791729693558576E+03,      /* J =  1 */
(PID.TID 0000.0001)                 5.849048855077854E+03,      /* J =  2 */
(PID.TID 0000.0001)                 5.906350199379949E+03,      /* J =  3 */
(PID.TID 0000.0001)      . . .
(PID.TID 0000.0001)                 7.048367077963129E+03,      /* J = 23 */
(PID.TID 0000.0001)                 7.105254027978149E+03,      /* J = 24 */
(PID.TID 0000.0001)                 7.162119334157175E+03,      /* J = 25 */
(PID.TID 0000.0001)                 7.218962823278620E+03,      /* J = 26 */
(PID.TID 0000.0001)                 7.275784322187360E+03,      /* J = 27 */
(PID.TID 0000.0001)                 7.332583657795253E+03,      /* J = 28 */
(PID.TID 0000.0001)      . . .
(PID.TID 0000.0001)                 8.463650136583461E+03,      /* J = 48 */
(PID.TID 0000.0001)                 8.519944183739159E+03,      /* J = 49 */
(PID.TID 0000.0001)                 8.576212277667308E+03,      /* J = 50 */
(PID.TID 0000.0001)                 8.632454246965530E+03,      /* J = 51 */
(PID.TID 0000.0001)                 8.688669920311038E+03,      /* J = 52 */
(PID.TID 0000.0001)                 8.744859126461139E+03,      /* J = 53 */
(PID.TID 0000.0001)      . . .
(PID.TID 0000.0001)                 9.862822156126382E+03,      /* J = 73 */
(PID.TID 0000.0001)                 9.918416141504455E+03,      /* J = 74 */
(PID.TID 0000.0001)                 9.973979913666863E+03,      /* J = 75 */
(PID.TID 0000.0001)                 1.002951330335672E+04,      /* J = 76 */
(PID.TID 0000.0001)                 1.008501614140969E+04,      /* J = 77 */
(PID.TID 0000.0001)                 1.014048825875450E+04,      /* J = 78 */
(PID.TID 0000.0001)      . . .
(PID.TID 0000.0001)                 1.124321973312895E+04,      /* J = 98 */
(PID.TID 0000.0001)                 1.129800783041847E+04,      /* J = 99 */
(PID.TID 0000.0001)                 1.135276151201679E+04       /* J =100 */
(PID.TID 0000.0001)     ;
(PID.TID 0000.0001) dyU =  /* dyU(:,1,:,1) ( units: m ) */
(PID.TID 0000.0001)    50 @  1.111774733520388E+04              /* I =  1: 50 */
(PID.TID 0000.0001)     ;
(PID.TID 0000.0001) dyU =  /* dyU(1,:,1,:) ( units: m ) */
(PID.TID 0000.0001)   100 @  1.111774733520388E+04              /* J =  1:100 */
(PID.TID 0000.0001)     ;
(PID.TID 0000.0001) rA  =  /* rA (:,1,:,1) ( units: m^2 ) */
(PID.TID 0000.0001)    50 @  6.470963377080289E+07              /* I =  1: 50 */
(PID.TID 0000.0001)     ;
(PID.TID 0000.0001) rA  =  /* rA (1,:,1,:) ( units: m^2 ) */
(PID.TID 0000.0001)                 6.470963377080289E+07,      /* J =  1 */
(PID.TID 0000.0001)                 6.534679484410104E+07,      /* J =  2 */
(PID.TID 0000.0001)                 6.598375685977945E+07,      /* J =  3 */
(PID.TID 0000.0001)      . . .
(PID.TID 0000.0001)                 7.867821163932665E+07,      /* J = 23 */
(PID.TID 0000.0001)                 7.931054622142966E+07,      /* J = 24 */
(PID.TID 0000.0001)                 7.994263920984067E+07,      /* J = 25 */
(PID.TID 0000.0001)                 8.057448867913349E+07,      /* J = 26 */
(PID.TID 0000.0001)                 8.120609270456599E+07,      /* J = 27 */
(PID.TID 0000.0001)                 8.183744936212724E+07,      /* J = 28 */
(PID.TID 0000.0001)      . . .
(PID.TID 0000.0001)                 9.440967921416211E+07,      /* J = 48 */
(PID.TID 0000.0001)                 9.503539809503193E+07,      /* J = 49 */
(PID.TID 0000.0001)                 9.566082748163140E+07,      /* J = 50 */
(PID.TID 0000.0001)                 9.628596546870193E+07,      /* J = 51 */
(PID.TID 0000.0001)                 9.691081015209354E+07,      /* J = 52 */
(PID.TID 0000.0001)                 9.753535962826957E+07,      /* J = 53 */
(PID.TID 0000.0001)      . . .
(PID.TID 0000.0001)                 1.099614325987181E+08,      /* J = 73 */
(PID.TID 0000.0001)                 1.105793446869293E+08,      /* J = 74 */
(PID.TID 0000.0001)                 1.111969199312560E+08,      /* J = 75 */
(PID.TID 0000.0001)                 1.118141564504991E+08,      /* J = 76 */
(PID.TID 0000.0001)                 1.124310523644033E+08,      /* J = 77 */
(PID.TID 0000.0001)                 1.130476057938687E+08,      /* J = 78 */
(PID.TID 0000.0001)      . . .
(PID.TID 0000.0001)                 1.253038681465364E+08,      /* J = 98 */
(PID.TID 0000.0001)                 1.259127972112936E+08,      /* J = 99 */
(PID.TID 0000.0001)                 1.265213427237870E+08       /* J =100 */
(PID.TID 0000.0001)     ;
(PID.TID 0000.0001) rAw =  /* rAw(:,1,:,1) ( units: m^2 ) */
(PID.TID 0000.0001)    50 @  6.470963377080289E+07              /* I =  1: 50 */
(PID.TID 0000.0001)     ;
(PID.TID 0000.0001) rAw =  /* rAw(1,:,1,:) ( units: m^2 ) */
(PID.TID 0000.0001)                 6.470963377080289E+07,      /* J =  1 */
(PID.TID 0000.0001)                 6.534679484410104E+07,      /* J =  2 */
(PID.TID 0000.0001)                 6.598375685977945E+07,      /* J =  3 */
(PID.TID 0000.0001)      . . .
(PID.TID 0000.0001)                 7.867821163932665E+07,      /* J = 23 */
(PID.TID 0000.0001)                 7.931054622142966E+07,      /* J = 24 */
(PID.TID 0000.0001)                 7.994263920984067E+07,      /* J = 25 */
(PID.TID 0000.0001)                 8.057448867913349E+07,      /* J = 26 */
(PID.TID 0000.0001)                 8.120609270456599E+07,      /* J = 27 */
(PID.TID 0000.0001)                 8.183744936212724E+07,      /* J = 28 */
(PID.TID 0000.0001)      . . .
(PID.TID 0000.0001)                 9.440967921416211E+07,      /* J = 48 */
(PID.TID 0000.0001)                 9.503539809503193E+07,      /* J = 49 */
(PID.TID 0000.0001)                 9.566082748163140E+07,      /* J = 50 */
(PID.TID 0000.0001)                 9.628596546870193E+07,      /* J = 51 */
(PID.TID 0000.0001)                 9.691081015209354E+07,      /* J = 52 */
(PID.TID 0000.0001)                 9.753535962826957E+07,      /* J = 53 */
(PID.TID 0000.0001)      . . .
(PID.TID 0000.0001)                 1.099614325987181E+08,      /* J = 73 */
(PID.TID 0000.0001)                 1.105793446869293E+08,      /* J = 74 */
(PID.TID 0000.0001)                 1.111969199312560E+08,      /* J = 75 */
(PID.TID 0000.0001)                 1.118141564504991E+08,      /* J = 76 */
(PID.TID 0000.0001)                 1.124310523644033E+08,      /* J = 77 */
(PID.TID 0000.0001)                 1.130476057938687E+08,      /* J = 78 */
(PID.TID 0000.0001)      . . .
(PID.TID 0000.0001)                 1.253038681465364E+08,      /* J = 98 */
(PID.TID 0000.0001)                 1.259127972112936E+08,      /* J = 99 */
(PID.TID 0000.0001)                 1.265213427237870E+08       /* J =100 */
(PID.TID 0000.0001)     ;
(PID.TID 0000.0001) rAs =  /* rAs(:,1,:,1) ( units: m^2 ) */
(PID.TID 0000.0001)    50 @  6.439097919401864E+07              /* I =  1: 50 */
(PID.TID 0000.0001)     ;
(PID.TID 0000.0001) rAs =  /* rAs(1,:,1,:) ( units: m^2 ) */
(PID.TID 0000.0001)                 6.439097919401864E+07,      /* J =  1 */
(PID.TID 0000.0001)                 6.502823906837179E+07,      /* J =  2 */
(PID.TID 0000.0001)                 6.566530085543716E+07,      /* J =  3 */
(PID.TID 0000.0001)      . . .
(PID.TID 0000.0001)                 7.836195435256335E+07,      /* J = 23 */
(PID.TID 0000.0001)                 7.899440900921808E+07,      /* J = 24 */
(PID.TID 0000.0001)                 7.962662303520055E+07,      /* J = 25 */
(PID.TID 0000.0001)                 8.025859450470714E+07,      /* J = 26 */
(PID.TID 0000.0001)                 8.089032149259475E+07,      /* J = 27 */
(PID.TID 0000.0001)                 8.152180207452223E+07,      /* J = 28 */
(PID.TID 0000.0001)      . . .
(PID.TID 0000.0001)                 9.409671180895932E+07,      /* J = 48 */
(PID.TID 0000.0001)                 9.472257472228888E+07,      /* J = 49 */
(PID.TID 0000.0001)                 9.534814909420149E+07,      /* J = 50 */
(PID.TID 0000.0001)                 9.597343301913190E+07,      /* J = 51 */
(PID.TID 0000.0001)                 9.659842459236403E+07,      /* J = 52 */
(PID.TID 0000.0001)                 9.722312190998378E+07,      /* J = 53 */
(PID.TID 0000.0001)      . . .
(PID.TID 0000.0001)                 1.096523508263446E+08,      /* J = 73 */
(PID.TID 0000.0001)                 1.102704306306916E+08,      /* J = 74 */
(PID.TID 0000.0001)                 1.108881745321664E+08,      /* J = 75 */
(PID.TID 0000.0001)                 1.115055806490511E+08,      /* J = 76 */
(PID.TID 0000.0001)                 1.121226471005947E+08,      /* J = 77 */
(PID.TID 0000.0001)                 1.127393720071080E+08,      /* J = 78 */
(PID.TID 0000.0001)      . . .
(PID.TID 0000.0001)                 1.249992603617116E+08,      /* J = 98 */
(PID.TID 0000.0001)                 1.256083805070198E+08,      /* J = 99 */
(PID.TID 0000.0001)                 1.262171180274426E+08       /* J =100 */
(PID.TID 0000.0001)     ;
(PID.TID 0000.0001) globalArea = /* Integrated horizontal Area (m^2) */
(PID.TID 0000.0001)                 4.665024516720103E+11
(PID.TID 0000.0001)     ;
(PID.TID 0000.0001) // =======================================================
(PID.TID 0000.0001) // End of Model config. summary
(PID.TID 0000.0001) // =======================================================
(PID.TID 0000.0001) 
(PID.TID 0000.0001) == Packages configuration : Check & print summary ==
(PID.TID 0000.0001) 
(PID.TID 0000.0001) SHELFICE_CHECK: #define ALLOW_SHELFICE
(PID.TID 0000.0001) ICEFRONT_CHECK: #define ALLOW_ICEFRONT
(PID.TID 0000.0001) GAD_CHECK: #define ALLOW_GENERIC_ADVDIFF
(PID.TID 0000.0001) // =======================================================
(PID.TID 0000.0001) // CONFIG_CHECK : Normal End
(PID.TID 0000.0001) // =======================================================
(PID.TID 0000.0001) 
(PID.TID 0000.0001) Start initial hydrostatic pressure computation
(PID.TID 0000.0001) Pressure is predetermined for buoyancyRelation OCEANIC
(PID.TID 0000.0001) 
(PID.TID 0000.0001)  write diagnostics summary to file ioUnit:      6
Iter.Nb:         0 ; Time(s):  0.0000000000000E+00
------------------------------------------------------------------------
2D/3D diagnostics: Number of lists:     2
------------------------------------------------------------------------
listId=    1 ; file name: shelficeDiag
 nFlds, nActive,       freq     &     phase        , nLev               
    2  |    2  |     18000.000000         0.000000 |   1
 levels:   1
 diag# | name   |   ipt  |  iMate | kLev|   count |   mate.C|           
   189 |SHIfwFlx|      1 |      0 |   1 |       0 |
   190 |SHIhtFlx|      2 |      0 |   1 |       0 |
------------------------------------------------------------------------
listId=    2 ; file name: icefrontDiag
 nFlds, nActive,       freq     &     phase        , nLev               
    2  |    2  |     18000.000000         0.000000 |  30
 levels:   1   2   3   4   5   6   7   8   9  10  11  12  13  14  15  16  17  18  19  20  21  22  23  24  25
 levels:  26  27  28  29  30
 diag# | name   |   ipt  |  iMate | kLev|   count |   mate.C|           
   197 |ICFfwFlx|      3 |      0 |  30 |       0 |
   198 |ICFhtFlx|     33 |      0 |  30 |       0 |
------------------------------------------------------------------------
Global & Regional Statistics diagnostics: Number of lists:     0
------------------------------------------------------------------------
(PID.TID 0000.0001)  MDS_READ_FIELD: opening global file: phi0surf.exp1.jmd95z
(PID.TID 0000.0001) // =======================================================
(PID.TID 0000.0001) // Model current state
(PID.TID 0000.0001) // =======================================================
(PID.TID 0000.0001) 
(PID.TID 0000.0001) // =======================================================
(PID.TID 0000.0001) // Begin MONITOR dynamic field statistics
(PID.TID 0000.0001) // =======================================================
(PID.TID 0000.0001) %MON time_tsnumber                =                     0
(PID.TID 0000.0001) %MON time_secondsf                =   0.0000000000000E+00
(PID.TID 0000.0001) %MON dynstat_eta_max              =   0.0000000000000E+00
(PID.TID 0000.0001) %MON dynstat_eta_min              =   0.0000000000000E+00
(PID.TID 0000.0001) %MON dynstat_eta_mean             =   0.0000000000000E+00
(PID.TID 0000.0001) %MON dynstat_eta_sd               =   0.0000000000000E+00
(PID.TID 0000.0001) %MON dynstat_eta_del2             =   0.0000000000000E+00
(PID.TID 0000.0001) %MON dynstat_uvel_max             =   0.0000000000000E+00
(PID.TID 0000.0001) %MON dynstat_uvel_min             =   0.0000000000000E+00
(PID.TID 0000.0001) %MON dynstat_uvel_mean            =   0.0000000000000E+00
(PID.TID 0000.0001) %MON dynstat_uvel_sd              =   0.0000000000000E+00
(PID.TID 0000.0001) %MON dynstat_uvel_del2            =   0.0000000000000E+00
(PID.TID 0000.0001) %MON dynstat_vvel_max             =   0.0000000000000E+00
(PID.TID 0000.0001) %MON dynstat_vvel_min             =   0.0000000000000E+00
(PID.TID 0000.0001) %MON dynstat_vvel_mean            =   0.0000000000000E+00
(PID.TID 0000.0001) %MON dynstat_vvel_sd              =   0.0000000000000E+00
(PID.TID 0000.0001) %MON dynstat_vvel_del2            =   0.0000000000000E+00
(PID.TID 0000.0001) %MON dynstat_wvel_max             =   0.0000000000000E+00
(PID.TID 0000.0001) %MON dynstat_wvel_min             =   0.0000000000000E+00
(PID.TID 0000.0001) %MON dynstat_wvel_mean            =   0.0000000000000E+00
(PID.TID 0000.0001) %MON dynstat_wvel_sd              =   0.0000000000000E+00
(PID.TID 0000.0001) %MON dynstat_wvel_del2            =   0.0000000000000E+00
(PID.TID 0000.0001) %MON dynstat_theta_max            =  -1.9000000000000E+00
(PID.TID 0000.0001) %MON dynstat_theta_min            =  -1.9000000000000E+00
(PID.TID 0000.0001) %MON dynstat_theta_mean           =  -1.9000000000001E+00
(PID.TID 0000.0001) %MON dynstat_theta_sd             =   5.0626169922908E-14
(PID.TID 0000.0001) %MON dynstat_theta_del2           =   0.0000000000000E+00
(PID.TID 0000.0001) %MON dynstat_salt_max             =   3.4400000000000E+01
(PID.TID 0000.0001) %MON dynstat_salt_min             =   3.4400000000000E+01
(PID.TID 0000.0001) %MON dynstat_salt_mean            =   3.4400000000003E+01
(PID.TID 0000.0001) %MON dynstat_salt_sd              =   3.3608671401455E-12
(PID.TID 0000.0001) %MON dynstat_salt_del2            =   0.0000000000000E+00
(PID.TID 0000.0001) %MON advcfl_uvel_max              =   0.0000000000000E+00
(PID.TID 0000.0001) %MON advcfl_vvel_max              =   0.0000000000000E+00
(PID.TID 0000.0001) %MON advcfl_wvel_max              =   0.0000000000000E+00
(PID.TID 0000.0001) %MON advcfl_W_hf_max              =   0.0000000000000E+00
(PID.TID 0000.0001) %MON pe_b_mean                    =   0.0000000000000E+00
(PID.TID 0000.0001) %MON ke_max                       =   0.0000000000000E+00
(PID.TID 0000.0001) %MON ke_mean                      =   0.0000000000000E+00
(PID.TID 0000.0001) %MON ke_vol                       =   3.4703745874271E+14
(PID.TID 0000.0001) %MON vort_r_min                   =   0.0000000000000E+00
(PID.TID 0000.0001) %MON vort_r_max                   =   0.0000000000000E+00
(PID.TID 0000.0001) %MON vort_a_mean                  =  -1.3992981969633E-04
(PID.TID 0000.0001) %MON vort_a_sd                    =   1.7365065466767E-06
(PID.TID 0000.0001) %MON vort_p_mean                  =  -1.4746660593271E-04
(PID.TID 0000.0001) %MON vort_p_sd                    =   7.7973631850191E-05
(PID.TID 0000.0001) %MON surfExpan_theta_mean         =   0.0000000000000E+00
(PID.TID 0000.0001) %MON surfExpan_salt_mean          =   0.0000000000000E+00
(PID.TID 0000.0001) // =======================================================
(PID.TID 0000.0001) // End MONITOR dynamic field statistics
(PID.TID 0000.0001) // =======================================================
(PID.TID 0000.0001) SOLVE_FOR_PRESSURE: putPmEinXvector =    F
(PID.TID 0000.0001) SOLVE_FOR_PRESSURE: zeroPsNH=    F , zeroMeanPnh=    F
(PID.TID 0000.0001) SOLVE_FOR_PRESSURE: oldFreeSurfTerm =    F
 cg2d: Sum(rhs),rhsMax =   7.10542735760100E-15  2.38990812331932E-13
(PID.TID 0000.0001)                    cg2d_init_res =    8.49111263799137E+00
(PID.TID 0000.0001)                       cg2d_iters =   215
(PID.TID 0000.0001)                         cg2d_res =    8.86718616081882E-14
(PID.TID 0000.0001) // =======================================================
(PID.TID 0000.0001) // Begin MONITOR dynamic field statistics
(PID.TID 0000.0001) // =======================================================
(PID.TID 0000.0001) %MON time_tsnumber                =                     1
(PID.TID 0000.0001) %MON time_secondsf                =   1.8000000000000E+03
(PID.TID 0000.0001) %MON dynstat_eta_max              =   3.1036857598518E-14
(PID.TID 0000.0001) %MON dynstat_eta_min              =  -3.4812753914262E-14
(PID.TID 0000.0001) %MON dynstat_eta_mean             =  -5.9497169877991E-30
(PID.TID 0000.0001) %MON dynstat_eta_sd               =   1.0479681544293E-14
(PID.TID 0000.0001) %MON dynstat_eta_del2             =   8.9903581898044E-17
(PID.TID 0000.0001) %MON dynstat_uvel_max             =   8.6011557715738E-15
(PID.TID 0000.0001) %MON dynstat_uvel_min             =  -4.2133745576537E-15
(PID.TID 0000.0001) %MON dynstat_uvel_mean            =   1.4274186700969E-16
(PID.TID 0000.0001) %MON dynstat_uvel_sd              =   1.1486393664338E-15
(PID.TID 0000.0001) %MON dynstat_uvel_del2            =   5.2621196388025E-18
(PID.TID 0000.0001) %MON dynstat_vvel_max             =   1.7355311849203E-15
(PID.TID 0000.0001) %MON dynstat_vvel_min             =  -7.7554935535682E-15
(PID.TID 0000.0001) %MON dynstat_vvel_mean            =  -1.4632900644946E-15
(PID.TID 0000.0001) %MON dynstat_vvel_sd              =   1.3722239451161E-15
(PID.TID 0000.0001) %MON dynstat_vvel_del2            =   7.9304009891642E-19
(PID.TID 0000.0001) %MON dynstat_wvel_max             =   1.0805019741595E-16
(PID.TID 0000.0001) %MON dynstat_wvel_min             =  -2.1843531534202E-16
(PID.TID 0000.0001) %MON dynstat_wvel_mean            =  -1.2630605078337E-18
(PID.TID 0000.0001) %MON dynstat_wvel_sd              =   5.3311364310466E-18
(PID.TID 0000.0001) %MON dynstat_wvel_del2            =   3.2531472677908E-20
(PID.TID 0000.0001) %MON dynstat_theta_max            =  -1.9000000000000E+00
(PID.TID 0000.0001) %MON dynstat_theta_min            =  -1.9006851721692E+00
(PID.TID 0000.0001) %MON dynstat_theta_mean           =  -1.9000057696355E+00
(PID.TID 0000.0001) %MON dynstat_theta_sd             =   4.4667251429065E-05
(PID.TID 0000.0001) %MON dynstat_theta_del2           =   5.2801656006866E-08
(PID.TID 0000.0001) %MON dynstat_salt_max             =   3.4400000000000E+01
(PID.TID 0000.0001) %MON dynstat_salt_min             =   3.4399720387688E+01
(PID.TID 0000.0001) %MON dynstat_salt_mean            =   3.4399997656733E+01
(PID.TID 0000.0001) %MON dynstat_salt_sd              =   1.8183084584172E-05
(PID.TID 0000.0001) %MON dynstat_salt_del2            =   2.1472109078898E-08
(PID.TID 0000.0001) %MON advcfl_uvel_max              =   1.7976584486645E-15
(PID.TID 0000.0001) %MON advcfl_vvel_max              =   1.2556400119132E-15
(PID.TID 0000.0001) %MON advcfl_wvel_max              =   1.3106118920521E-14
(PID.TID 0000.0001) %MON advcfl_W_hf_max              =   1.3449961336468E-14
(PID.TID 0000.0001) %MON pe_b_mean                    =  -2.4577164654124E-17
(PID.TID 0000.0001) %MON ke_max                       =   4.3469974070280E-29
(PID.TID 0000.0001) %MON ke_mean                      =   2.6420474756167E-30
(PID.TID 0000.0001) %MON ke_vol                       =   3.4703745874271E+14
(PID.TID 0000.0001) %MON vort_r_min                   =  -8.0600750178762E-19
(PID.TID 0000.0001) %MON vort_r_max                   =   9.0430300543315E-19
(PID.TID 0000.0001) %MON vort_a_mean                  =  -1.3992981969633E-04
(PID.TID 0000.0001) %MON vort_a_sd                    =   1.7365065466786E-06
(PID.TID 0000.0001) %MON vort_p_mean                  =  -1.4746660593271E-04
(PID.TID 0000.0001) %MON vort_p_sd                    =   7.7973631850191E-05
(PID.TID 0000.0001) %MON surfExpan_theta_mean         =  -9.4951279349125E-22
(PID.TID 0000.0001) %MON surfExpan_salt_mean          =  -3.8639575401301E-22
(PID.TID 0000.0001) // =======================================================
(PID.TID 0000.0001) // End MONITOR dynamic field statistics
(PID.TID 0000.0001) // =======================================================
 cg2d: Sum(rhs),rhsMax =  -9.23705556488130E-14  1.14919194043876E-05
(PID.TID 0000.0001)                    cg2d_init_res =    8.47085361727938E+00
(PID.TID 0000.0001)                       cg2d_iters =   214
(PID.TID 0000.0001)                         cg2d_res =    9.45686424959870E-14
(PID.TID 0000.0001) // =======================================================
(PID.TID 0000.0001) // Begin MONITOR dynamic field statistics
(PID.TID 0000.0001) // =======================================================
(PID.TID 0000.0001) %MON time_tsnumber                =                     2
(PID.TID 0000.0001) %MON time_secondsf                =   3.6000000000000E+03
(PID.TID 0000.0001) %MON dynstat_eta_max              =   1.4822123469223E-06
(PID.TID 0000.0001) %MON dynstat_eta_min              =  -1.5661653788520E-06
(PID.TID 0000.0001) %MON dynstat_eta_mean             =   5.3237166423027E-22
(PID.TID 0000.0001) %MON dynstat_eta_sd               =   4.7015694383842E-07
(PID.TID 0000.0001) %MON dynstat_eta_del2             =   4.3623913119703E-09
(PID.TID 0000.0001) %MON dynstat_uvel_max             =   4.3488096545868E-07
(PID.TID 0000.0001) %MON dynstat_uvel_min             =  -1.4123867175532E-06
(PID.TID 0000.0001) %MON dynstat_uvel_mean            =   3.6005090988113E-09
(PID.TID 0000.0001) %MON dynstat_uvel_sd              =   1.0156716742972E-07
(PID.TID 0000.0001) %MON dynstat_uvel_del2            =   3.1584213819290E-10
(PID.TID 0000.0001) %MON dynstat_vvel_max             =   5.6018517026968E-06
(PID.TID 0000.0001) %MON dynstat_vvel_min             =  -7.1990211399848E-07
(PID.TID 0000.0001) %MON dynstat_vvel_mean            =  -5.0831987356399E-08
(PID.TID 0000.0001) %MON dynstat_vvel_sd              =   3.1596188889654E-07
(PID.TID 0000.0001) %MON dynstat_vvel_del2            =   8.6172813427605E-10
(PID.TID 0000.0001) %MON dynstat_wvel_max             =   1.2936074341526E-08
(PID.TID 0000.0001) %MON dynstat_wvel_min             =  -1.7883662362467E-08
(PID.TID 0000.0001) %MON dynstat_wvel_mean            =  -4.0776787610578E-11
(PID.TID 0000.0001) %MON dynstat_wvel_sd              =   1.0613205869772E-09
(PID.TID 0000.0001) %MON dynstat_wvel_del2            =   1.0249988707763E-11
(PID.TID 0000.0001) %MON dynstat_theta_max            =  -1.9000000000000E+00
(PID.TID 0000.0001) %MON dynstat_theta_min            =  -1.9013688224855E+00
(PID.TID 0000.0001) %MON dynstat_theta_mean           =  -1.9000115286763E+00
(PID.TID 0000.0001) %MON dynstat_theta_sd             =   8.9223620669769E-05
(PID.TID 0000.0001) %MON dynstat_theta_del2           =   1.0525267221053E-07
(PID.TID 0000.0001) %MON dynstat_salt_max             =   3.4400000000000E+01
(PID.TID 0000.0001) %MON dynstat_salt_min             =   3.4399441399459E+01
(PID.TID 0000.0001) %MON dynstat_salt_mean            =   3.4399995317807E+01
(PID.TID 0000.0001) %MON dynstat_salt_sd              =   3.6320751221825E-05
(PID.TID 0000.0001) %MON dynstat_salt_del2            =   4.2801372487846E-08
(PID.TID 0000.0001) %MON advcfl_uvel_max              =   4.2024726183531E-07
(PID.TID 0000.0001) %MON advcfl_vvel_max              =   9.0695828577844E-07
(PID.TID 0000.0001) %MON advcfl_wvel_max              =   1.0730197417480E-06
(PID.TID 0000.0001) %MON advcfl_W_hf_max              =   1.2006273614178E-06
(PID.TID 0000.0001) %MON pe_b_mean                    =  -1.0885060781507E-09
(PID.TID 0000.0001) %MON ke_max                       =   9.2639069750274E-12
(PID.TID 0000.0001) %MON ke_mean                      =   5.5598525569946E-14
(PID.TID 0000.0001) %MON ke_vol                       =   3.4703745874271E+14
(PID.TID 0000.0001) %MON vort_r_min                   =  -9.4774889943542E-10
(PID.TID 0000.0001) %MON vort_r_max                   =   9.3444745754502E-10
(PID.TID 0000.0001) %MON vort_a_mean                  =  -1.3992981969617E-04
(PID.TID 0000.0001) %MON vort_a_sd                    =   1.7365065489508E-06
(PID.TID 0000.0001) %MON vort_p_mean                  =  -1.4746660593254E-04
(PID.TID 0000.0001) %MON vort_p_sd                    =   7.7973619317436E-05
(PID.TID 0000.0001) %MON surfExpan_theta_mean         =  -5.9370798806763E-14
(PID.TID 0000.0001) %MON surfExpan_salt_mean          =  -2.4071712195423E-14
(PID.TID 0000.0001) // =======================================================
(PID.TID 0000.0001) // End MONITOR dynamic field statistics
(PID.TID 0000.0001) // =======================================================
 cg2d: Sum(rhs),rhsMax =  -7.10542735760100E-14  1.80607703370093E-05
(PID.TID 0000.0001)                    cg2d_init_res =    3.35462872546289E+00
(PID.TID 0000.0001)                       cg2d_iters =   214
(PID.TID 0000.0001)                         cg2d_res =    9.22414381077295E-14
(PID.TID 0000.0001) // =======================================================
(PID.TID 0000.0001) // Begin MONITOR dynamic field statistics
(PID.TID 0000.0001) // =======================================================
(PID.TID 0000.0001) %MON time_tsnumber                =                     3
(PID.TID 0000.0001) %MON time_secondsf                =   5.4000000000000E+03
(PID.TID 0000.0001) %MON dynstat_eta_max              =   2.4480894872576E-06
(PID.TID 0000.0001) %MON dynstat_eta_min              =  -2.8663664177597E-06
(PID.TID 0000.0001) %MON dynstat_eta_mean             =   2.2625795729786E-21
(PID.TID 0000.0001) %MON dynstat_eta_sd               =   1.1670528620482E-06
(PID.TID 0000.0001) %MON dynstat_eta_del2             =   7.0899701415586E-09
(PID.TID 0000.0001) %MON dynstat_uvel_max             =   8.7572447971110E-07
(PID.TID 0000.0001) %MON dynstat_uvel_min             =  -4.8276725598265E-06
(PID.TID 0000.0001) %MON dynstat_uvel_mean            =   9.0696583549771E-09
(PID.TID 0000.0001) %MON dynstat_uvel_sd              =   3.1709061671295E-07
(PID.TID 0000.0001) %MON dynstat_uvel_del2            =   8.1429370741415E-10
(PID.TID 0000.0001) %MON dynstat_vvel_max             =   1.3884377169421E-05
(PID.TID 0000.0001) %MON dynstat_vvel_min             =  -1.8802447165750E-06
(PID.TID 0000.0001) %MON dynstat_vvel_mean            =  -1.1980489548329E-07
(PID.TID 0000.0001) %MON dynstat_vvel_sd              =   7.8804678654170E-07
(PID.TID 0000.0001) %MON dynstat_vvel_del2            =   2.1172888058846E-09
(PID.TID 0000.0001) %MON dynstat_wvel_max             =   3.5582035228865E-08
(PID.TID 0000.0001) %MON dynstat_wvel_min             =  -3.9574328209094E-08
(PID.TID 0000.0001) %MON dynstat_wvel_mean            =  -8.3650533978862E-11
(PID.TID 0000.0001) %MON dynstat_wvel_sd              =   2.5576912365841E-09
(PID.TID 0000.0001) %MON dynstat_wvel_del2            =   2.4648704816476E-11
(PID.TID 0000.0001) %MON dynstat_theta_max            =  -1.9000000000000E+00
(PID.TID 0000.0001) %MON dynstat_theta_min            =  -1.9020515257543E+00
(PID.TID 0000.0001) %MON dynstat_theta_mean           =  -1.9000172811233E+00
(PID.TID 0000.0001) %MON dynstat_theta_sd             =   1.3371104435602E-04
(PID.TID 0000.0001) %MON dynstat_theta_del2           =   1.5748848769951E-07
(PID.TID 0000.0001) %MON dynstat_salt_max             =   3.4400000000000E+01
(PID.TID 0000.0001) %MON dynstat_salt_min             =   3.4399162799589E+01
(PID.TID 0000.0001) %MON dynstat_salt_mean            =   3.4399992981584E+01
(PID.TID 0000.0001) %MON dynstat_salt_sd              =   5.4430177670086E-05
(PID.TID 0000.0001) %MON dynstat_salt_del2            =   6.4042819433887E-08
(PID.TID 0000.0001) %MON advcfl_uvel_max              =   1.4364452377598E-06
(PID.TID 0000.0001) %MON advcfl_vvel_max              =   2.2479265044837E-06
(PID.TID 0000.0001) %MON advcfl_wvel_max              =   2.3744596925457E-06
(PID.TID 0000.0001) %MON advcfl_W_hf_max              =   2.9697846828652E-06
(PID.TID 0000.0001) %MON pe_b_mean                    =  -3.0805245956211E-09
(PID.TID 0000.0001) %MON ke_max                       =   6.2616630787327E-11
(PID.TID 0000.0001) %MON ke_mean                      =   3.6282632102570E-13
(PID.TID 0000.0001) %MON ke_vol                       =   3.4703745874271E+14
(PID.TID 0000.0001) %MON vort_r_min                   =  -2.3507544359864E-09
(PID.TID 0000.0001) %MON vort_r_max                   =   2.3163570121955E-09
(PID.TID 0000.0001) %MON vort_a_mean                  =  -1.3992981969459E-04
(PID.TID 0000.0001) %MON vort_a_sd                    =   1.7365065521185E-06
(PID.TID 0000.0001) %MON vort_p_mean                  =  -1.4746660593088E-04
(PID.TID 0000.0001) %MON vort_p_sd                    =   7.7973587781463E-05
(PID.TID 0000.0001) %MON surfExpan_theta_mean         =  -1.8393799452574E-13
(PID.TID 0000.0001) %MON surfExpan_salt_mean          =  -7.4735497436585E-14
(PID.TID 0000.0001) // =======================================================
(PID.TID 0000.0001) // End MONITOR dynamic field statistics
(PID.TID 0000.0001) // =======================================================
 cg2d: Sum(rhs),rhsMax =  -1.91846538655227E-13  2.46127441337738E-05
(PID.TID 0000.0001)                    cg2d_init_res =    2.43567198981363E+00
(PID.TID 0000.0001)                       cg2d_iters =   212
(PID.TID 0000.0001)                         cg2d_res =    9.99869454945644E-14
(PID.TID 0000.0001) // =======================================================
(PID.TID 0000.0001) // Begin MONITOR dynamic field statistics
(PID.TID 0000.0001) // =======================================================
(PID.TID 0000.0001) %MON time_tsnumber                =                     4
(PID.TID 0000.0001) %MON time_secondsf                =   7.2000000000000E+03
(PID.TID 0000.0001) %MON dynstat_eta_max              =   4.0726250780974E-06
(PID.TID 0000.0001) %MON dynstat_eta_min              =  -4.1736209024050E-06
(PID.TID 0000.0001) %MON dynstat_eta_mean             =   1.8633008248059E-21
(PID.TID 0000.0001) %MON dynstat_eta_sd               =   2.1117795834070E-06
(PID.TID 0000.0001) %MON dynstat_eta_del2             =   9.7863175173603E-09
(PID.TID 0000.0001) %MON dynstat_uvel_max             =   1.5278723352137E-06
(PID.TID 0000.0001) %MON dynstat_uvel_min             =  -1.0730030763506E-05
(PID.TID 0000.0001) %MON dynstat_uvel_mean            =   1.2990633762023E-08
(PID.TID 0000.0001) %MON dynstat_uvel_sd              =   6.9137929407297E-07
(PID.TID 0000.0001) %MON dynstat_uvel_del2            =   1.6400579065133E-09
(PID.TID 0000.0001) %MON dynstat_vvel_max             =   2.4214961219220E-05
(PID.TID 0000.0001) %MON dynstat_vvel_min             =  -3.3791107293785E-06
(PID.TID 0000.0001) %MON dynstat_vvel_mean            =  -1.9270765905730E-07
(PID.TID 0000.0001) %MON dynstat_vvel_sd              =   1.3797507714391E-06
(PID.TID 0000.0001) %MON dynstat_vvel_del2            =   3.6654043394322E-09
(PID.TID 0000.0001) %MON dynstat_wvel_max             =   6.8403079649453E-08
(PID.TID 0000.0001) %MON dynstat_wvel_min             =  -6.9454612617771E-08
(PID.TID 0000.0001) %MON dynstat_wvel_mean            =  -1.2732641864541E-10
(PID.TID 0000.0001) %MON dynstat_wvel_sd              =   4.4858460030390E-09
(PID.TID 0000.0001) %MON dynstat_wvel_del2            =   4.2453124530199E-11
(PID.TID 0000.0001) %MON dynstat_theta_max            =  -1.9000000000000E+00
(PID.TID 0000.0001) %MON dynstat_theta_min            =  -1.9027332830324E+00
(PID.TID 0000.0001) %MON dynstat_theta_mean           =  -1.9000230269844E+00
(PID.TID 0000.0001) %MON dynstat_theta_sd             =   1.7812962449592E-04
(PID.TID 0000.0001) %MON dynstat_theta_del2           =   2.0950964328933E-07
(PID.TID 0000.0001) %MON dynstat_salt_max             =   3.4400000000000E+01
(PID.TID 0000.0001) %MON dynstat_salt_min             =   3.4398884587641E+01
(PID.TID 0000.0001) %MON dynstat_salt_mean            =   3.4399990648062E+01
(PID.TID 0000.0001) %MON dynstat_salt_sd              =   7.2511405860287E-05
(PID.TID 0000.0001) %MON dynstat_salt_del2            =   8.5196710186076E-08
(PID.TID 0000.0001) %MON advcfl_uvel_max              =   3.1926567927399E-06
(PID.TID 0000.0001) %MON advcfl_vvel_max              =   3.9204821696730E-06
(PID.TID 0000.0001) %MON advcfl_wvel_max              =   4.1672767570663E-06
(PID.TID 0000.0001) %MON advcfl_W_hf_max              =   5.7409975668937E-06
(PID.TID 0000.0001) %MON pe_b_mean                    =  -5.9200354003253E-09
(PID.TID 0000.0001) %MON ke_max                       =   2.1300796284791E-10
(PID.TID 0000.0001) %MON ke_mean                      =   1.1919651746899E-12
(PID.TID 0000.0001) %MON ke_vol                       =   3.4703745874271E+14
(PID.TID 0000.0001) %MON vort_r_min                   =  -4.0998185808930E-09
(PID.TID 0000.0001) %MON vort_r_max                   =   4.0371173795607E-09
(PID.TID 0000.0001) %MON vort_a_mean                  =  -1.3992981968933E-04
(PID.TID 0000.0001) %MON vort_a_sd                    =   1.7365065500721E-06
(PID.TID 0000.0001) %MON vort_p_mean                  =  -1.4746660592534E-04
(PID.TID 0000.0001) %MON vort_p_sd                    =   7.7973532384625E-05
(PID.TID 0000.0001) %MON surfExpan_theta_mean         =  -3.7527295258328E-13
(PID.TID 0000.0001) %MON surfExpan_salt_mean          =  -1.5260088948328E-13
(PID.TID 0000.0001) // =======================================================
(PID.TID 0000.0001) // End MONITOR dynamic field statistics
(PID.TID 0000.0001) // =======================================================
 cg2d: Sum(rhs),rhsMax =  -7.10542735760100E-15  3.11180646001653E-05
(PID.TID 0000.0001)                    cg2d_init_res =    1.91879096482288E+00
(PID.TID 0000.0001)                       cg2d_iters =   212
(PID.TID 0000.0001)                         cg2d_res =    7.28460128461415E-14
(PID.TID 0000.0001) // =======================================================
(PID.TID 0000.0001) // Begin MONITOR dynamic field statistics
(PID.TID 0000.0001) // =======================================================
(PID.TID 0000.0001) %MON time_tsnumber                =                     5
(PID.TID 0000.0001) %MON time_secondsf                =   9.0000000000000E+03
(PID.TID 0000.0001) %MON dynstat_eta_max              =   6.3117295334294E-06
(PID.TID 0000.0001) %MON dynstat_eta_min              =  -5.3860799163452E-06
(PID.TID 0000.0001) %MON dynstat_eta_mean             =   3.7266016496119E-21
(PID.TID 0000.0001) %MON dynstat_eta_sd               =   3.2809849399355E-06
(PID.TID 0000.0001) %MON dynstat_eta_del2             =   1.2472759639487E-08
(PID.TID 0000.0001) %MON dynstat_uvel_max             =   2.7918112584453E-06
(PID.TID 0000.0001) %MON dynstat_uvel_min             =  -1.9426999643328E-05
(PID.TID 0000.0001) %MON dynstat_uvel_mean            =   1.3413035416284E-08
(PID.TID 0000.0001) %MON dynstat_uvel_sd              =   1.2454999121268E-06
(PID.TID 0000.0001) %MON dynstat_uvel_del2            =   2.8364367165776E-09
(PID.TID 0000.0001) %MON dynstat_vvel_max             =   3.5818788023829E-05
(PID.TID 0000.0001) %MON dynstat_vvel_min             =  -5.1027524396937E-06
(PID.TID 0000.0001) %MON dynstat_vvel_mean            =  -2.5677387590133E-07
(PID.TID 0000.0001) %MON dynstat_vvel_sd              =   2.0471522814027E-06
(PID.TID 0000.0001) %MON dynstat_vvel_del2            =   5.3861375994243E-09
(PID.TID 0000.0001) %MON dynstat_wvel_max             =   1.1719097322617E-07
(PID.TID 0000.0001) %MON dynstat_wvel_min             =  -1.1721955770887E-07
(PID.TID 0000.0001) %MON dynstat_wvel_mean            =  -1.6509134973090E-10
(PID.TID 0000.0001) %MON dynstat_wvel_sd              =   6.7415592053258E-09
(PID.TID 0000.0001) %MON dynstat_wvel_del2            =   6.2284755605160E-11
(PID.TID 0000.0001) %MON dynstat_theta_max            =  -1.9000000000000E+00
(PID.TID 0000.0001) %MON dynstat_theta_min            =  -1.9034140960019E+00
(PID.TID 0000.0001) %MON dynstat_theta_mean           =  -1.9000287662710E+00
(PID.TID 0000.0001) %MON dynstat_theta_sd             =   2.2247950764590E-04
(PID.TID 0000.0001) %MON dynstat_theta_del2           =   2.6131717010947E-07
(PID.TID 0000.0001) %MON dynstat_salt_max             =   3.4400000000000E+01
(PID.TID 0000.0001) %MON dynstat_salt_min             =   3.4398606762921E+01
(PID.TID 0000.0001) %MON dynstat_salt_mean            =   3.4399988317235E+01
(PID.TID 0000.0001) %MON dynstat_salt_sd              =   9.0564495980340E-05
(PID.TID 0000.0001) %MON dynstat_salt_del2            =   1.0626346778828E-07
(PID.TID 0000.0001) %MON advcfl_uvel_max              =   5.7803881219779E-06
(PID.TID 0000.0001) %MON advcfl_vvel_max              =   5.7991800406130E-06
(PID.TID 0000.0001) %MON advcfl_wvel_max              =   7.0331734625321E-06
(PID.TID 0000.0001) %MON advcfl_W_hf_max              =   9.5114932845091E-06
(PID.TID 0000.0001) %MON pe_b_mean                    =  -9.4672699751716E-09
(PID.TID 0000.0001) %MON ke_max                       =   5.2968245462481E-10
(PID.TID 0000.0001) %MON ke_mean                      =   2.8604951619562E-12
(PID.TID 0000.0001) %MON ke_vol                       =   3.4703745874271E+14
(PID.TID 0000.0001) %MON vort_r_min                   =  -6.0644545888681E-09
(PID.TID 0000.0001) %MON vort_r_max                   =   5.9662123476696E-09
(PID.TID 0000.0001) %MON vort_a_mean                  =  -1.3992981967855E-04
(PID.TID 0000.0001) %MON vort_a_sd                    =   1.7365065466443E-06
(PID.TID 0000.0001) %MON vort_p_mean                  =  -1.4746660591397E-04
(PID.TID 0000.0001) %MON vort_p_sd                    =   7.7973450096299E-05
(PID.TID 0000.0001) %MON surfExpan_theta_mean         =  -6.0998170800384E-13
(PID.TID 0000.0001) %MON surfExpan_salt_mean          =  -2.4813632786055E-13
(PID.TID 0000.0001) // =======================================================
(PID.TID 0000.0001) // End MONITOR dynamic field statistics
(PID.TID 0000.0001) // =======================================================
 cg2d: Sum(rhs),rhsMax =  -1.35003119794419E-13  3.75161310619441E-05
(PID.TID 0000.0001)                    cg2d_init_res =    1.58330889182158E+00
(PID.TID 0000.0001)                       cg2d_iters =   211
(PID.TID 0000.0001)                         cg2d_res =    8.57467135604753E-14
(PID.TID 0000.0001) // =======================================================
(PID.TID 0000.0001) // Begin MONITOR dynamic field statistics
(PID.TID 0000.0001) // =======================================================
(PID.TID 0000.0001) %MON time_tsnumber                =                     6
(PID.TID 0000.0001) %MON time_secondsf                =   1.0800000000000E+04
(PID.TID 0000.0001) %MON dynstat_eta_max              =   8.6893059605174E-06
(PID.TID 0000.0001) %MON dynstat_eta_min              =  -6.4499775638534E-06
(PID.TID 0000.0001) %MON dynstat_eta_mean             =   1.5971149926908E-21
(PID.TID 0000.0001) %MON dynstat_eta_sd               =   4.6253271669696E-06
(PID.TID 0000.0001) %MON dynstat_eta_del2             =   1.5145880883818E-08
(PID.TID 0000.0001) %MON dynstat_uvel_max             =   4.4858582564327E-06
(PID.TID 0000.0001) %MON dynstat_uvel_min             =  -3.1016938256128E-05
(PID.TID 0000.0001) %MON dynstat_uvel_mean            =   1.0197340863684E-08
(PID.TID 0000.0001) %MON dynstat_uvel_sd              =   1.9869168879535E-06
(PID.TID 0000.0001) %MON dynstat_uvel_del2            =   4.4156265936273E-09
(PID.TID 0000.0001) %MON dynstat_vvel_max             =   4.7895599133805E-05
(PID.TID 0000.0001) %MON dynstat_vvel_min             =  -6.9295844743097E-06
(PID.TID 0000.0001) %MON dynstat_vvel_mean            =  -3.0306272042958E-07
(PID.TID 0000.0001) %MON dynstat_vvel_sd              =   2.7432291268842E-06
(PID.TID 0000.0001) %MON dynstat_vvel_del2            =   7.1586771708134E-09
(PID.TID 0000.0001) %MON dynstat_wvel_max             =   1.7894684470972E-07
(PID.TID 0000.0001) %MON dynstat_wvel_min             =  -1.7713075778551E-07
(PID.TID 0000.0001) %MON dynstat_wvel_mean            =  -1.9228148227980E-10
(PID.TID 0000.0001) %MON dynstat_wvel_sd              =   9.2300591609762E-09
(PID.TID 0000.0001) %MON dynstat_wvel_del2            =   8.2814664491624E-11
(PID.TID 0000.0001) %MON dynstat_theta_max            =  -1.9000000000000E+00
(PID.TID 0000.0001) %MON dynstat_theta_min            =  -1.9040939664861E+00
(PID.TID 0000.0001) %MON dynstat_theta_mean           =  -1.9000344989945E+00
(PID.TID 0000.0001) %MON dynstat_theta_sd             =   2.6676084048510E-04
(PID.TID 0000.0001) %MON dynstat_theta_del2           =   3.1291210933446E-07
(PID.TID 0000.0001) %MON dynstat_salt_max             =   3.4400000000000E+01
(PID.TID 0000.0001) %MON dynstat_salt_min             =   3.4398329324678E+01
(PID.TID 0000.0001) %MON dynstat_salt_mean            =   3.4399985989099E+01
(PID.TID 0000.0001) %MON dynstat_salt_sd              =   1.0858950826712E-04
(PID.TID 0000.0001) %MON dynstat_salt_del2            =   1.2724351726034E-07
(PID.TID 0000.0001) %MON advcfl_uvel_max              =   9.2289053774407E-06
(PID.TID 0000.0001) %MON advcfl_vvel_max              =   7.7544556322000E-06
(PID.TID 0000.0001) %MON advcfl_wvel_max              =   1.0736810682583E-05
(PID.TID 0000.0001) %MON advcfl_W_hf_max              =   1.4112001309814E-05
(PID.TID 0000.0001) %MON pe_b_mean                    =  -1.3524740429663E-08
(PID.TID 0000.0001) %MON ke_max                       =   1.0915729970316E-09
(PID.TID 0000.0001) %MON ke_mean                      =   5.6925502771771E-12
(PID.TID 0000.0001) %MON ke_vol                       =   3.4703745874271E+14
(PID.TID 0000.0001) %MON vort_r_min                   =  -8.1091712472335E-09
(PID.TID 0000.0001) %MON vort_r_max                   =   7.9679616878371E-09
(PID.TID 0000.0001) %MON vort_a_mean                  =  -1.3992981966250E-04
(PID.TID 0000.0001) %MON vort_a_sd                    =   1.7365065397372E-06
(PID.TID 0000.0001) %MON vort_p_mean                  =  -1.4746660589706E-04
(PID.TID 0000.0001) %MON vort_p_sd                    =   7.7973339888382E-05
(PID.TID 0000.0001) %MON surfExpan_theta_mean         =  -8.5339973794668E-13
(PID.TID 0000.0001) %MON surfExpan_salt_mean          =  -3.4721545190081E-13
(PID.TID 0000.0001) // =======================================================
(PID.TID 0000.0001) // End MONITOR dynamic field statistics
(PID.TID 0000.0001) // =======================================================
 cg2d: Sum(rhs),rhsMax =  -2.84217094304040E-14  4.37902207864329E-05
(PID.TID 0000.0001)                    cg2d_init_res =    1.34930011300956E+00
(PID.TID 0000.0001)                       cg2d_iters =   209
(PID.TID 0000.0001)                         cg2d_res =    9.53673895439164E-14
(PID.TID 0000.0001) // =======================================================
(PID.TID 0000.0001) // Begin MONITOR dynamic field statistics
(PID.TID 0000.0001) // =======================================================
(PID.TID 0000.0001) %MON time_tsnumber                =                     7
(PID.TID 0000.0001) %MON time_secondsf                =   1.2600000000000E+04
(PID.TID 0000.0001) %MON dynstat_eta_max              =   1.1164065313587E-05
(PID.TID 0000.0001) %MON dynstat_eta_min              =  -7.3848087349637E-06
(PID.TID 0000.0001) %MON dynstat_eta_mean             =  -2.6618583211513E-21
(PID.TID 0000.0001) %MON dynstat_eta_sd               =   6.0693394245298E-06
(PID.TID 0000.0001) %MON dynstat_eta_del2             =   1.7804962873244E-08
(PID.TID 0000.0001) %MON dynstat_uvel_max             =   6.6339773059570E-06
(PID.TID 0000.0001) %MON dynstat_uvel_min             =  -4.5390999480227E-05
(PID.TID 0000.0001) %MON dynstat_uvel_mean            =   4.5654772360413E-09
(PID.TID 0000.0001) %MON dynstat_uvel_sd              =   2.9102230556424E-06
(PID.TID 0000.0001) %MON dynstat_uvel_del2            =   6.3630204815386E-09
(PID.TID 0000.0001) %MON dynstat_vvel_max             =   5.9667481140571E-05
(PID.TID 0000.0001) %MON dynstat_vvel_min             =  -8.7416106182548E-06
(PID.TID 0000.0001) %MON dynstat_vvel_mean            =  -3.2711044703657E-07
(PID.TID 0000.0001) %MON dynstat_vvel_sd              =   3.4213601443820E-06
(PID.TID 0000.0001) %MON dynstat_vvel_del2            =   8.8689600530843E-09
(PID.TID 0000.0001) %MON dynstat_wvel_max             =   2.5245893716994E-07
(PID.TID 0000.0001) %MON dynstat_wvel_min             =  -2.4792211798411E-07
(PID.TID 0000.0001) %MON dynstat_wvel_mean            =  -2.0625972647357E-10
(PID.TID 0000.0001) %MON dynstat_wvel_sd              =   1.1862608619751E-08
(PID.TID 0000.0001) %MON dynstat_wvel_del2            =   1.0280176232822E-10
(PID.TID 0000.0001) %MON dynstat_theta_max            =  -1.9000000000000E+00
(PID.TID 0000.0001) %MON dynstat_theta_min            =  -1.9047728964870E+00
(PID.TID 0000.0001) %MON dynstat_theta_mean           =  -1.9000402251665E+00
(PID.TID 0000.0001) %MON dynstat_theta_sd             =   3.1097376984561E-04
(PID.TID 0000.0001) %MON dynstat_theta_del2           =   3.6429321238531E-07
(PID.TID 0000.0001) %MON dynstat_salt_max             =   3.4400000000000E+01
(PID.TID 0000.0001) %MON dynstat_salt_min             =   3.4398052272088E+01
(PID.TID 0000.0001) %MON dynstat_salt_mean            =   3.4399983663650E+01
(PID.TID 0000.0001) %MON dynstat_salt_sd              =   1.2658650302199E-04
(PID.TID 0000.0001) %MON dynstat_salt_del2            =   1.4813643967099E-07
(PID.TID 0000.0001) %MON advcfl_uvel_max              =   1.3505821745888E-05
(PID.TID 0000.0001) %MON advcfl_vvel_max              =   9.6603621952215E-06
(PID.TID 0000.0001) %MON advcfl_wvel_max              =   1.5147536230196E-05
(PID.TID 0000.0001) %MON advcfl_W_hf_max              =   1.9414515157595E-05
(PID.TID 0000.0001) %MON pe_b_mean                    =  -1.7854412453221E-08
(PID.TID 0000.0001) %MON ke_max                       =   1.9775531875392E-09
(PID.TID 0000.0001) %MON ke_mean                      =   9.9775460115404E-12
(PID.TID 0000.0001) %MON ke_vol                       =   3.4703745874271E+14
(PID.TID 0000.0001) %MON vort_r_min                   =  -1.0102260566952E-08
(PID.TID 0000.0001) %MON vort_r_max                   =   9.9109950941233E-09
(PID.TID 0000.0001) %MON vort_a_mean                  =  -1.3992981964355E-04
(PID.TID 0000.0001) %MON vort_a_sd                    =   1.7365065225297E-06
(PID.TID 0000.0001) %MON vort_p_mean                  =  -1.4746660587709E-04
(PID.TID 0000.0001) %MON vort_p_sd                    =   7.7973202684566E-05
(PID.TID 0000.0001) %MON surfExpan_theta_mean         =  -1.0677679849475E-12
(PID.TID 0000.0001) %MON surfExpan_salt_mean          =  -4.3445271859457E-13
(PID.TID 0000.0001) // =======================================================
(PID.TID 0000.0001) // End MONITOR dynamic field statistics
(PID.TID 0000.0001) // =======================================================
 cg2d: Sum(rhs),rhsMax =  -4.97379915032070E-14  4.99334828221299E-05
(PID.TID 0000.0001)                    cg2d_init_res =    1.17691224204354E+00
(PID.TID 0000.0001)                       cg2d_iters =   208
(PID.TID 0000.0001)                         cg2d_res =    8.30089625619616E-14
(PID.TID 0000.0001) // =======================================================
(PID.TID 0000.0001) // Begin MONITOR dynamic field statistics
(PID.TID 0000.0001) // =======================================================
(PID.TID 0000.0001) %MON time_tsnumber                =                     8
(PID.TID 0000.0001) %MON time_secondsf                =   1.4400000000000E+04
(PID.TID 0000.0001) %MON dynstat_eta_max              =   1.3606679050891E-05
(PID.TID 0000.0001) %MON dynstat_eta_min              =  -8.1934627762717E-06
(PID.TID 0000.0001) %MON dynstat_eta_mean             =   8.5179466276843E-21
(PID.TID 0000.0001) %MON dynstat_eta_sd               =   7.5260071155552E-06
(PID.TID 0000.0001) %MON dynstat_eta_del2             =   2.0449175570203E-08
(PID.TID 0000.0001) %MON dynstat_uvel_max             =   9.1742109495327E-06
(PID.TID 0000.0001) %MON dynstat_uvel_min             =  -6.2256452032155E-05
(PID.TID 0000.0001) %MON dynstat_uvel_mean            =  -1.7633977547791E-09
(PID.TID 0000.0001) %MON dynstat_uvel_sd              =   3.9982412598444E-06
(PID.TID 0000.0001) %MON dynstat_uvel_del2            =   8.6408304957415E-09
(PID.TID 0000.0001) %MON dynstat_vvel_max             =   7.0426681910223E-05
(PID.TID 0000.0001) %MON dynstat_vvel_min             =  -1.0433352798847E-05
(PID.TID 0000.0001) %MON dynstat_vvel_mean            =  -3.2845489856622E-07
(PID.TID 0000.0001) %MON dynstat_vvel_sd              =   4.0384677995458E-06
(PID.TID 0000.0001) %MON dynstat_vvel_del2            =   1.0416723104833E-08
(PID.TID 0000.0001) %MON dynstat_wvel_max             =   3.3587348561031E-07
(PID.TID 0000.0001) %MON dynstat_wvel_min             =  -3.2770747813687E-07
(PID.TID 0000.0001) %MON dynstat_wvel_mean            =  -2.0646191252614E-10
(PID.TID 0000.0001) %MON dynstat_wvel_sd              =   1.4560326905430E-08
(PID.TID 0000.0001) %MON dynstat_wvel_del2            =   1.2117380730100E-10
(PID.TID 0000.0001) %MON dynstat_theta_max            =  -1.9000000000000E+00
(PID.TID 0000.0001) %MON dynstat_theta_min            =  -1.9054508882035E+00
(PID.TID 0000.0001) %MON dynstat_theta_mean           =  -1.9000459447986E+00
(PID.TID 0000.0001) %MON dynstat_theta_sd             =   3.5511844227943E-04
(PID.TID 0000.0001) %MON dynstat_theta_del2           =   4.1546506108486E-07
(PID.TID 0000.0001) %MON dynstat_salt_max             =   3.4400000000000E+01
(PID.TID 0000.0001) %MON dynstat_salt_min             =   3.4397775604247E+01
(PID.TID 0000.0001) %MON dynstat_salt_mean            =   3.4399981340882E+01
(PID.TID 0000.0001) %MON dynstat_salt_sd              =   1.4455554044035E-04
(PID.TID 0000.0001) %MON dynstat_salt_del2            =   1.6894387165336E-07
(PID.TID 0000.0001) %MON advcfl_uvel_max              =   1.8524036776145E-05
(PID.TID 0000.0001) %MON advcfl_vvel_max              =   1.1402312322479E-05
(PID.TID 0000.0001) %MON advcfl_wvel_max              =   2.0152409136619E-05
(PID.TID 0000.0001) %MON advcfl_W_hf_max              =   2.5258748864594E-05
(PID.TID 0000.0001) %MON pe_b_mean                    =  -2.2203617760316E-08
(PID.TID 0000.0001) %MON ke_max                       =   3.2548878922675E-09
(PID.TID 0000.0001) %MON ke_mean                      =   1.5931254854562E-11
(PID.TID 0000.0001) %MON ke_vol                       =   3.4703745874271E+14
(PID.TID 0000.0001) %MON vort_r_min                   =  -1.1923893516583E-08
(PID.TID 0000.0001) %MON vort_r_max                   =   1.1676657289096E-08
(PID.TID 0000.0001) %MON vort_a_mean                  =  -1.3992981962502E-04
(PID.TID 0000.0001) %MON vort_a_sd                    =   1.7365064843790E-06
(PID.TID 0000.0001) %MON vort_p_mean                  =  -1.4746660585757E-04
(PID.TID 0000.0001) %MON vort_p_sd                    =   7.7973041153562E-05
(PID.TID 0000.0001) %MON surfExpan_theta_mean         =  -1.2202454660410E-12
(PID.TID 0000.0001) %MON surfExpan_salt_mean          =  -4.9647090493059E-13
(PID.TID 0000.0001) // =======================================================
(PID.TID 0000.0001) // End MONITOR dynamic field statistics
(PID.TID 0000.0001) // =======================================================
 cg2d: Sum(rhs),rhsMax =   3.55271367880050E-14  5.59479168268999E-05
(PID.TID 0000.0001)                    cg2d_init_res =    1.04469797345500E+00
(PID.TID 0000.0001)                       cg2d_iters =   208
(PID.TID 0000.0001)                         cg2d_res =    8.02547591649810E-14
(PID.TID 0000.0001) // =======================================================
(PID.TID 0000.0001) // Begin MONITOR dynamic field statistics
(PID.TID 0000.0001) // =======================================================
(PID.TID 0000.0001) %MON time_tsnumber                =                     9
(PID.TID 0000.0001) %MON time_secondsf                =   1.6200000000000E+04
(PID.TID 0000.0001) %MON dynstat_eta_max              =   1.6328098031045E-05
(PID.TID 0000.0001) %MON dynstat_eta_min              =  -8.8464748952143E-06
(PID.TID 0000.0001) %MON dynstat_eta_mean             =  -2.1294866569211E-21
(PID.TID 0000.0001) %MON dynstat_eta_sd               =   8.9137871783846E-06
(PID.TID 0000.0001) %MON dynstat_eta_del2             =   2.3077856773395E-08
(PID.TID 0000.0001) %MON dynstat_uvel_max             =   1.2044752782046E-05
(PID.TID 0000.0001) %MON dynstat_uvel_min             =  -8.1172341344966E-05
(PID.TID 0000.0001) %MON dynstat_uvel_mean            =  -7.3170175849741E-09
(PID.TID 0000.0001) %MON dynstat_uvel_sd              =   5.2237876982445E-06
(PID.TID 0000.0001) %MON dynstat_uvel_del2            =   1.1192471730829E-08
(PID.TID 0000.0001) %MON dynstat_vvel_max             =   7.9577149469952E-05
(PID.TID 0000.0001) %MON dynstat_vvel_min             =  -1.1916963490483E-05
(PID.TID 0000.0001) %MON dynstat_vvel_mean            =  -3.0975582685349E-07
(PID.TID 0000.0001) %MON dynstat_vvel_sd              =   4.5576497935128E-06
(PID.TID 0000.0001) %MON dynstat_vvel_del2            =   1.1720288638992E-08
(PID.TID 0000.0001) %MON dynstat_wvel_max             =   4.2683441210261E-07
(PID.TID 0000.0001) %MON dynstat_wvel_min             =  -4.1414289199361E-07
(PID.TID 0000.0001) %MON dynstat_wvel_mean            =  -1.9427103559229E-10
(PID.TID 0000.0001) %MON dynstat_wvel_sd              =   1.7256098781843E-08
(PID.TID 0000.0001) %MON dynstat_wvel_del2            =   1.3708360789579E-10
(PID.TID 0000.0001) %MON dynstat_theta_max            =  -1.9000000000000E+00
(PID.TID 0000.0001) %MON dynstat_theta_min            =  -1.9061279440275E+00
(PID.TID 0000.0001) %MON dynstat_theta_mean           =  -1.9000516579023E+00
(PID.TID 0000.0001) %MON dynstat_theta_sd             =   3.9919500429717E-04
(PID.TID 0000.0001) %MON dynstat_theta_del2           =   4.6642988574449E-07
(PID.TID 0000.0001) %MON dynstat_salt_max             =   3.4400000000000E+01
(PID.TID 0000.0001) %MON dynstat_salt_min             =   3.4397499320172E+01
(PID.TID 0000.0001) %MON dynstat_salt_mean            =   3.4399979020791E+01
(PID.TID 0000.0001) %MON dynstat_salt_sd              =   1.6249668068807E-04
(PID.TID 0000.0001) %MON dynstat_salt_del2            =   1.8966686081164E-07
(PID.TID 0000.0001) %MON advcfl_uvel_max              =   2.4152347061206E-05
(PID.TID 0000.0001) %MON advcfl_vvel_max              =   1.2883803231645E-05
(PID.TID 0000.0001) %MON advcfl_wvel_max              =   2.5610064726157E-05
(PID.TID 0000.0001) %MON advcfl_W_hf_max              =   3.1461835212649E-05
(PID.TID 0000.0001) %MON pe_b_mean                    =  -2.6338622284016E-08
(PID.TID 0000.0001) %MON ke_max                       =   4.9680535077956E-09
(PID.TID 0000.0001) %MON ke_mean                      =   2.3663424424030E-11
(PID.TID 0000.0001) %MON ke_vol                       =   3.4703745874271E+14
(PID.TID 0000.0001) %MON vort_r_min                   =  -1.3473152942837E-08
(PID.TID 0000.0001) %MON vort_r_max                   =   1.3165975910886E-08
(PID.TID 0000.0001) %MON vort_a_mean                  =  -1.3992981960984E-04
(PID.TID 0000.0001) %MON vort_a_sd                    =   1.7365064189765E-06
(PID.TID 0000.0001) %MON vort_p_mean                  =  -1.4746660584157E-04
(PID.TID 0000.0001) %MON vort_p_sd                    =   7.7972859404113E-05
(PID.TID 0000.0001) %MON surfExpan_theta_mean         =  -1.2896370671603E-12
(PID.TID 0000.0001) %MON surfExpan_salt_mean          =  -5.2464086887290E-13
(PID.TID 0000.0001) // =======================================================
(PID.TID 0000.0001) // End MONITOR dynamic field statistics
(PID.TID 0000.0001) // =======================================================
 cg2d: Sum(rhs),rhsMax =  -6.39488462184090E-14  6.18440359402859E-05
(PID.TID 0000.0001)                    cg2d_init_res =    9.39959978376946E-01
(PID.TID 0000.0001)                       cg2d_iters =   208
(PID.TID 0000.0001)                         cg2d_res =    8.94917648478150E-14
(PID.TID 0000.0001) // =======================================================
(PID.TID 0000.0001) // Begin MONITOR dynamic field statistics
(PID.TID 0000.0001) // =======================================================
(PID.TID 0000.0001) %MON time_tsnumber                =                    10
(PID.TID 0000.0001) %MON time_secondsf                =   1.8000000000000E+04
(PID.TID 0000.0001) %MON dynstat_eta_max              =   1.8901256142892E-05
(PID.TID 0000.0001) %MON dynstat_eta_min              =  -9.4627366883475E-06
(PID.TID 0000.0001) %MON dynstat_eta_mean             =  -8.5179466276843E-21
(PID.TID 0000.0001) %MON dynstat_eta_sd               =   1.0169090282762E-05
(PID.TID 0000.0001) %MON dynstat_eta_del2             =   2.5690448804424E-08
(PID.TID 0000.0001) %MON dynstat_uvel_max             =   1.5164967619176E-05
(PID.TID 0000.0001) %MON dynstat_uvel_min             =  -1.0159031974530E-04
(PID.TID 0000.0001) %MON dynstat_uvel_mean            =  -1.1213888738611E-08
(PID.TID 0000.0001) %MON dynstat_uvel_sd              =   6.5519667762751E-06
(PID.TID 0000.0001) %MON dynstat_uvel_del2            =   1.3947698738093E-08
(PID.TID 0000.0001) %MON dynstat_vvel_max             =   8.6666783575860E-05
(PID.TID 0000.0001) %MON dynstat_vvel_min             =  -1.3124989776424E-05
(PID.TID 0000.0001) %MON dynstat_vvel_mean            =  -2.7584849582176E-07
(PID.TID 0000.0001) %MON dynstat_vvel_sd              =   4.9502558363998E-06
(PID.TID 0000.0001) %MON dynstat_vvel_del2            =   1.2720038904706E-08
(PID.TID 0000.0001) %MON dynstat_wvel_max             =   5.2265714651096E-07
(PID.TID 0000.0001) %MON dynstat_wvel_min             =  -5.0460521096066E-07
(PID.TID 0000.0001) %MON dynstat_wvel_mean            =  -1.7260284200384E-10
(PID.TID 0000.0001) %MON dynstat_wvel_sd              =   1.9895372956970E-08
(PID.TID 0000.0001) %MON dynstat_wvel_del2            =   1.4994930895690E-10
(PID.TID 0000.0001) %MON dynstat_theta_max            =  -1.9000000000000E+00
(PID.TID 0000.0001) %MON dynstat_theta_min            =  -1.9068040665189E+00
(PID.TID 0000.0001) %MON dynstat_theta_mean           =  -1.9000573644894E+00
(PID.TID 0000.0001) %MON dynstat_theta_sd             =   4.4320360223194E-04
(PID.TID 0000.0001) %MON dynstat_theta_del2           =   5.1718823853572E-07
(PID.TID 0000.0001) %MON dynstat_salt_max             =   3.4400000000000E+01
(PID.TID 0000.0001) %MON dynstat_salt_min             =   3.4397223418810E+01
(PID.TID 0000.0001) %MON dynstat_salt_mean            =   3.4399976703372E+01
(PID.TID 0000.0001) %MON dynstat_salt_sd              =   1.8040998385749E-04
(PID.TID 0000.0001) %MON dynstat_salt_del2            =   2.1030561974099E-07
(PID.TID 0000.0001) %MON advcfl_uvel_max              =   3.0227595014415E-05
(PID.TID 0000.0001) %MON advcfl_vvel_max              =   1.4031638400576E-05
(PID.TID 0000.0001) %MON advcfl_wvel_max              =   3.1359428790658E-05
(PID.TID 0000.0001) %MON advcfl_W_hf_max              =   3.7830280584373E-05
(PID.TID 0000.0001) %MON pe_b_mean                    =  -3.0075695846117E-08
(PID.TID 0000.0001) %MON ke_max                       =   7.1302214530290E-09
(PID.TID 0000.0001) %MON ke_mean                      =   3.3156290962601E-11
(PID.TID 0000.0001) %MON ke_vol                       =   3.4703745874271E+14
(PID.TID 0000.0001) %MON vort_r_min                   =  -1.4673494061536E-08
(PID.TID 0000.0001) %MON vort_r_max                   =   1.4304870814998E-08
(PID.TID 0000.0001) %MON vort_a_mean                  =  -1.3992981959988E-04
(PID.TID 0000.0001) %MON vort_a_sd                    =   1.7365063228486E-06
(PID.TID 0000.0001) %MON vort_p_mean                  =  -1.4746660583107E-04
(PID.TID 0000.0001) %MON vort_p_sd                    =   7.7972662623190E-05
(PID.TID 0000.0001) %MON surfExpan_theta_mean         =  -1.2703438573874E-12
(PID.TID 0000.0001) %MON surfExpan_salt_mean          =  -5.1668795052249E-13
(PID.TID 0000.0001) // =======================================================
(PID.TID 0000.0001) // End MONITOR dynamic field statistics
(PID.TID 0000.0001) // =======================================================
 Computing Diagnostic #    189  SHIfwFlx     Counter:      10   Parms: SM      L1      
 Computing Diagnostic #    190  SHIhtFlx     Counter:      10   Parms: SM      L1      
 Computing Diagnostic #    197  ICFfwFlx     Counter:      10   Parms: SM      MR      
 Computing Diagnostic #    198  ICFhtFlx     Counter:      10   Parms: SM      MR      
 cg2d: Sum(rhs),rhsMax =   2.84217094304040E-14  6.76385102260866E-05
(PID.TID 0000.0001)                    cg2d_init_res =    8.54708157477946E-01
(PID.TID 0000.0001)                       cg2d_iters =   208
(PID.TID 0000.0001)                         cg2d_res =    8.87647397129505E-14
(PID.TID 0000.0001) // =======================================================
(PID.TID 0000.0001) // Begin MONITOR dynamic field statistics
(PID.TID 0000.0001) // =======================================================
(PID.TID 0000.0001) %MON time_tsnumber                =                    11
(PID.TID 0000.0001) %MON time_secondsf                =   1.9800000000000E+04
(PID.TID 0000.0001) %MON dynstat_eta_max              =   2.1178629686616E-05
(PID.TID 0000.0001) %MON dynstat_eta_min              =  -1.0222592315519E-05
(PID.TID 0000.0001) %MON dynstat_eta_mean             =  -2.1294866569211E-21
(PID.TID 0000.0001) %MON dynstat_eta_sd               =   1.1253269147670E-05
(PID.TID 0000.0001) %MON dynstat_eta_del2             =   2.8286481793228E-08
(PID.TID 0000.0001) %MON dynstat_uvel_max             =   1.8441435720559E-05
(PID.TID 0000.0001) %MON dynstat_uvel_min             =  -1.2289714670170E-04
(PID.TID 0000.0001) %MON dynstat_uvel_mean            =  -1.3139565181077E-08
(PID.TID 0000.0001) %MON dynstat_uvel_sd              =   7.9428358527597E-06
(PID.TID 0000.0001) %MON dynstat_uvel_del2            =   1.6828219766339E-08
(PID.TID 0000.0001) %MON dynstat_vvel_max             =   9.1408082817522E-05
(PID.TID 0000.0001) %MON dynstat_vvel_min             =  -1.4012123865978E-05
(PID.TID 0000.0001) %MON dynstat_vvel_mean            =  -2.3279908534868E-07
(PID.TID 0000.0001) %MON dynstat_vvel_sd              =   5.1973410928589E-06
(PID.TID 0000.0001) %MON dynstat_vvel_del2            =   1.3380563862043E-08
(PID.TID 0000.0001) %MON dynstat_wvel_max             =   6.2052480274379E-07
(PID.TID 0000.0001) %MON dynstat_wvel_min             =  -5.9637933660904E-07
(PID.TID 0000.0001) %MON dynstat_wvel_mean            =  -1.4528892120984E-10
(PID.TID 0000.0001) %MON dynstat_wvel_sd              =   2.2435876686649E-08
(PID.TID 0000.0001) %MON dynstat_wvel_del2            =   1.5947577818857E-10
(PID.TID 0000.0001) %MON dynstat_theta_max            =  -1.9000000000000E+00
(PID.TID 0000.0001) %MON dynstat_theta_min            =  -1.9074792583622E+00
(PID.TID 0000.0001) %MON dynstat_theta_mean           =  -1.9000630645715E+00
(PID.TID 0000.0001) %MON dynstat_theta_sd             =   4.8714438192928E-04
(PID.TID 0000.0001) %MON dynstat_theta_del2           =   5.6774099078442E-07
(PID.TID 0000.0001) %MON dynstat_salt_max             =   3.4400000000000E+01
(PID.TID 0000.0001) %MON dynstat_salt_min             =   3.4396947899059E+01
(PID.TID 0000.0001) %MON dynstat_salt_mean            =   3.4399974388620E+01
(PID.TID 0000.0001) %MON dynstat_salt_sd              =   1.9829550984207E-04
(PID.TID 0000.0001) %MON dynstat_salt_del2            =   2.3086050024130E-07
(PID.TID 0000.0001) %MON advcfl_uvel_max              =   3.6567314565400E-05
(PID.TID 0000.0001) %MON advcfl_vvel_max              =   1.4799270401707E-05
(PID.TID 0000.0001) %MON advcfl_wvel_max              =   3.7231488164627E-05
(PID.TID 0000.0001) %MON advcfl_W_hf_max              =   4.4173451028111E-05
(PID.TID 0000.0001) %MON pe_b_mean                    =  -3.3301453706163E-08
(PID.TID 0000.0001) %MON ke_max                       =   9.7184800894715E-09
(PID.TID 0000.0001) %MON ke_mean                      =   4.4257274857416E-11
(PID.TID 0000.0001) %MON ke_vol                       =   3.4703745874271E+14
(PID.TID 0000.0001) %MON vort_r_min                   =  -1.5476240204821E-08
(PID.TID 0000.0001) %MON vort_r_max                   =   1.5047383037657E-08
(PID.TID 0000.0001) %MON vort_a_mean                  =  -1.3992981959591E-04
(PID.TID 0000.0001) %MON vort_a_sd                    =   1.7365061980264E-06
(PID.TID 0000.0001) %MON vort_p_mean                  =  -1.4746660582688E-04
(PID.TID 0000.0001) %MON vort_p_sd                    =   7.7972456684004E-05
(PID.TID 0000.0001) %MON surfExpan_theta_mean         =  -1.1728760611652E-12
(PID.TID 0000.0001) %MON surfExpan_salt_mean          =  -4.7689877296707E-13
(PID.TID 0000.0001) // =======================================================
(PID.TID 0000.0001) // End MONITOR dynamic field statistics
(PID.TID 0000.0001) // =======================================================
 cg2d: Sum(rhs),rhsMax =  -7.81597009336110E-14  7.33511539928581E-05
(PID.TID 0000.0001)                    cg2d_init_res =    7.83741953002158E-01
(PID.TID 0000.0001)                       cg2d_iters =   208
(PID.TID 0000.0001)                         cg2d_res =    7.79159631669866E-14
(PID.TID 0000.0001) // =======================================================
(PID.TID 0000.0001) // Begin MONITOR dynamic field statistics
(PID.TID 0000.0001) // =======================================================
(PID.TID 0000.0001) %MON time_tsnumber                =                    12
(PID.TID 0000.0001) %MON time_secondsf                =   2.1600000000000E+04
(PID.TID 0000.0001) %MON dynstat_eta_max              =   2.3114644061929E-05
(PID.TID 0000.0001) %MON dynstat_eta_min              =  -1.0875365485452E-05
(PID.TID 0000.0001) %MON dynstat_eta_mean             =   1.3841663269987E-20
(PID.TID 0000.0001) %MON dynstat_eta_sd               =   1.2154506501218E-05
(PID.TID 0000.0001) %MON dynstat_eta_del2             =   3.0865706892425E-08
(PID.TID 0000.0001) %MON dynstat_uvel_max             =   2.1774757795865E-05
(PID.TID 0000.0001) %MON dynstat_uvel_min             =  -1.4445840838624E-04
(PID.TID 0000.0001) %MON dynstat_uvel_mean            =  -1.3151467649653E-08
(PID.TID 0000.0001) %MON dynstat_uvel_sd              =   9.3542627731279E-06
(PID.TID 0000.0001) %MON dynstat_uvel_del2            =   1.9753408588849E-08
(PID.TID 0000.0001) %MON dynstat_vvel_max             =   9.3686339916566E-05
(PID.TID 0000.0001) %MON dynstat_vvel_min             =  -1.4556184422205E-05
(PID.TID 0000.0001) %MON dynstat_vvel_mean            =  -1.8697869456474E-07
(PID.TID 0000.0001) %MON dynstat_vvel_sd              =   5.2904385099877E-06
(PID.TID 0000.0001) %MON dynstat_vvel_del2            =   1.3690994775567E-08
(PID.TID 0000.0001) %MON dynstat_wvel_max             =   7.1768478225143E-07
(PID.TID 0000.0001) %MON dynstat_wvel_min             =  -6.8684142072867E-07
(PID.TID 0000.0001) %MON dynstat_wvel_mean            =  -1.1640321073094E-10
(PID.TID 0000.0001) %MON dynstat_wvel_sd              =   2.4846325706085E-08
(PID.TID 0000.0001) %MON dynstat_wvel_del2            =   1.6565374488692E-10
(PID.TID 0000.0001) %MON dynstat_theta_max            =  -1.9000000000000E+00
(PID.TID 0000.0001) %MON dynstat_theta_min            =  -1.9081535223100E+00
(PID.TID 0000.0001) %MON dynstat_theta_mean           =  -1.9000687581601E+00
(PID.TID 0000.0001) %MON dynstat_theta_sd             =   5.3101748851807E-04
(PID.TID 0000.0001) %MON dynstat_theta_del2           =   6.1808909798259E-07
(PID.TID 0000.0001) %MON dynstat_salt_max             =   3.4400000000000E+01
(PID.TID 0000.0001) %MON dynstat_salt_min             =   3.4396672759790E+01
(PID.TID 0000.0001) %MON dynstat_salt_mean            =   3.4399972076531E+01
(PID.TID 0000.0001) %MON dynstat_salt_sd              =   2.1615331824146E-04
(PID.TID 0000.0001) %MON dynstat_salt_del2            =   2.5133189050876E-07
(PID.TID 0000.0001) %MON advcfl_uvel_max              =   4.2982739655448E-05
(PID.TID 0000.0001) %MON advcfl_vvel_max              =   1.5168127747951E-05
(PID.TID 0000.0001) %MON advcfl_wvel_max              =   4.3061086935086E-05
(PID.TID 0000.0001) %MON advcfl_W_hf_max              =   5.0316608019228E-05
(PID.TID 0000.0001) %MON pe_b_mean                    =  -3.5979482673344E-08
(PID.TID 0000.0001) %MON ke_max                       =   1.2674005164208E-08
(PID.TID 0000.0001) %MON ke_mean                      =   5.6687282218668E-11
(PID.TID 0000.0001) %MON ke_vol                       =   3.4703745874271E+14
(PID.TID 0000.0001) %MON vort_r_min                   =  -1.5861970361568E-08
(PID.TID 0000.0001) %MON vort_r_max                   =   1.5376827238517E-08
(PID.TID 0000.0001) %MON vort_a_mean                  =  -1.3992981959779E-04
(PID.TID 0000.0001) %MON vort_a_sd                    =   1.7365060492345E-06
(PID.TID 0000.0001) %MON vort_p_mean                  =  -1.4746660582887E-04
(PID.TID 0000.0001) %MON vort_p_sd                    =   7.7972247741349E-05
(PID.TID 0000.0001) %MON surfExpan_theta_mean         =  -1.0211884092689E-12
(PID.TID 0000.0001) %MON surfExpan_salt_mean          =  -4.1503488054840E-13
(PID.TID 0000.0001) // =======================================================
(PID.TID 0000.0001) // End MONITOR dynamic field statistics
(PID.TID 0000.0001) // =======================================================
 cg2d: Sum(rhs),rhsMax =  -9.94759830064140E-14  7.90019880165157E-05
(PID.TID 0000.0001)                    cg2d_init_res =    7.23547232493244E-01
(PID.TID 0000.0001)                       cg2d_iters =   205
(PID.TID 0000.0001)                         cg2d_res =    8.96374772851771E-14
(PID.TID 0000.0001) // =======================================================
(PID.TID 0000.0001) // Begin MONITOR dynamic field statistics
(PID.TID 0000.0001) // =======================================================
(PID.TID 0000.0001) %MON time_tsnumber                =                    13
(PID.TID 0000.0001) %MON time_secondsf                =   2.3400000000000E+04
(PID.TID 0000.0001) %MON dynstat_eta_max              =   2.4682192030495E-05
(PID.TID 0000.0001) %MON dynstat_eta_min              =  -1.1377405574919E-05
(PID.TID 0000.0001) %MON dynstat_eta_mean             =   2.0230123240750E-20
(PID.TID 0000.0001) %MON dynstat_eta_sd               =   1.2885382443050E-05
(PID.TID 0000.0001) %MON dynstat_eta_del2             =   3.3428094610707E-08
(PID.TID 0000.0001) %MON dynstat_uvel_max             =   2.5066486715267E-05
(PID.TID 0000.0001) %MON dynstat_uvel_min             =  -1.6565749491776E-04
(PID.TID 0000.0001) %MON dynstat_uvel_mean            =  -1.1493390025060E-08
(PID.TID 0000.0001) %MON dynstat_uvel_sd              =   1.0744788166385E-05
(PID.TID 0000.0001) %MON dynstat_uvel_del2            =   2.2645740590134E-08
(PID.TID 0000.0001) %MON dynstat_vvel_max             =   9.3555825476351E-05
(PID.TID 0000.0001) %MON dynstat_vvel_min             =  -1.4758250437760E-05
(PID.TID 0000.0001) %MON dynstat_vvel_mean            =  -1.4421972032088E-07
(PID.TID 0000.0001) %MON dynstat_vvel_sd              =   5.2316326382370E-06
(PID.TID 0000.0001) %MON dynstat_vvel_del2            =   1.3663741885762E-08
(PID.TID 0000.0001) %MON dynstat_wvel_max             =   8.1162603470169E-07
(PID.TID 0000.0001) %MON dynstat_wvel_min             =  -7.7362421250652E-07
(PID.TID 0000.0001) %MON dynstat_wvel_mean            =  -8.9660700017288E-11
(PID.TID 0000.0001) %MON dynstat_wvel_sd              =   2.7104715282240E-08
(PID.TID 0000.0001) %MON dynstat_wvel_del2            =   1.6873979654594E-10
(PID.TID 0000.0001) %MON dynstat_theta_max            =  -1.9000000000000E+00
(PID.TID 0000.0001) %MON dynstat_theta_min            =  -1.9088268611212E+00
(PID.TID 0000.0001) %MON dynstat_theta_mean           =  -1.9000744452666E+00
(PID.TID 0000.0001) %MON dynstat_theta_sd             =   5.7482306626246E-04
(PID.TID 0000.0001) %MON dynstat_theta_del2           =   6.6823353271901E-07
(PID.TID 0000.0001) %MON dynstat_salt_max             =   3.4400000000000E+01
(PID.TID 0000.0001) %MON dynstat_salt_min             =   3.4396397999870E+01
(PID.TID 0000.0001) %MON dynstat_salt_mean            =   3.4399969767099E+01
(PID.TID 0000.0001) %MON dynstat_salt_sd              =   2.3398346830088E-04
(PID.TID 0000.0001) %MON dynstat_salt_del2            =   2.7172018647055E-07
(PID.TID 0000.0001) %MON advcfl_uvel_max              =   4.9290401684242E-05
(PID.TID 0000.0001) %MON advcfl_vvel_max              =   1.5146997029173E-05
(PID.TID 0000.0001) %MON advcfl_wvel_max              =   4.8697562082102E-05
(PID.TID 0000.0001) %MON advcfl_W_hf_max              =   5.6111769710876E-05
(PID.TID 0000.0001) %MON pe_b_mean                    =  -3.8144490211214E-08
(PID.TID 0000.0001) %MON ke_max                       =   1.5906882853658E-08
(PID.TID 0000.0001) %MON ke_mean                      =   7.0063868240501E-11
(PID.TID 0000.0001) %MON ke_vol                       =   3.4703745874271E+14
(PID.TID 0000.0001) %MON vort_r_min                   =  -1.5839873050644E-08
(PID.TID 0000.0001) %MON vort_r_max                   =   1.5304919078289E-08
(PID.TID 0000.0001) %MON vort_a_mean                  =  -1.3992981960477E-04
(PID.TID 0000.0001) %MON vort_a_sd                    =   1.7365058829339E-06
(PID.TID 0000.0001) %MON vort_p_mean                  =  -1.4746660583622E-04
(PID.TID 0000.0001) %MON vort_p_sd                    =   7.7972041832036E-05
(PID.TID 0000.0001) %MON surfExpan_theta_mean         =  -8.4775518509786E-13
(PID.TID 0000.0001) %MON surfExpan_salt_mean          =  -3.4432641413100E-13
(PID.TID 0000.0001) // =======================================================
(PID.TID 0000.0001) // End MONITOR dynamic field statistics
(PID.TID 0000.0001) // =======================================================
 cg2d: Sum(rhs),rhsMax =  -1.42108547152020E-14  8.46091644396474E-05
(PID.TID 0000.0001)                    cg2d_init_res =    6.71686962427235E-01
(PID.TID 0000.0001)                       cg2d_iters =   206
(PID.TID 0000.0001)                         cg2d_res =    9.79130580532110E-14
(PID.TID 0000.0001) // =======================================================
(PID.TID 0000.0001) // Begin MONITOR dynamic field statistics
(PID.TID 0000.0001) // =======================================================
(PID.TID 0000.0001) %MON time_tsnumber                =                    14
(PID.TID 0000.0001) %MON time_secondsf                =   2.5200000000000E+04
(PID.TID 0000.0001) %MON dynstat_eta_max              =   2.5990409474202E-05
(PID.TID 0000.0001) %MON dynstat_eta_min              =  -1.1730090696382E-05
(PID.TID 0000.0001) %MON dynstat_eta_mean             =  -2.2359609897671E-20
(PID.TID 0000.0001) %MON dynstat_eta_sd               =   1.3477339605692E-05
(PID.TID 0000.0001) %MON dynstat_eta_del2             =   3.5973799680210E-08
(PID.TID 0000.0001) %MON dynstat_uvel_max             =   2.8225609803302E-05
(PID.TID 0000.0001) %MON dynstat_uvel_min             =  -1.8593660019083E-04
(PID.TID 0000.0001) %MON dynstat_uvel_mean            =  -8.4963204920280E-09
(PID.TID 0000.0001) %MON dynstat_uvel_sd              =   1.2076306264827E-05
(PID.TID 0000.0001) %MON dynstat_uvel_del2            =   2.5435623192298E-08
(PID.TID 0000.0001) %MON dynstat_vvel_max             =   9.1225213663490E-05
(PID.TID 0000.0001) %MON dynstat_vvel_min             =  -1.4640410226851E-05
(PID.TID 0000.0001) %MON dynstat_vvel_mean            =  -1.0915234457171E-07
(PID.TID 0000.0001) %MON dynstat_vvel_sd              =   5.0329572211120E-06
(PID.TID 0000.0001) %MON dynstat_vvel_del2            =   1.3331871768842E-08
(PID.TID 0000.0001) %MON dynstat_wvel_max             =   9.0022481189716E-07
(PID.TID 0000.0001) %MON dynstat_wvel_min             =  -8.5475361616126E-07
(PID.TID 0000.0001) %MON dynstat_wvel_mean            =  -6.7974059945435E-11
(PID.TID 0000.0001) %MON dynstat_wvel_sd              =   2.9196558680486E-08
(PID.TID 0000.0001) %MON dynstat_wvel_del2            =   1.6921812114763E-10
(PID.TID 0000.0001) %MON dynstat_theta_max            =  -1.9000000000000E+00
(PID.TID 0000.0001) %MON dynstat_theta_min            =  -1.9094992774996E+00
(PID.TID 0000.0001) %MON dynstat_theta_mean           =  -1.9000801259024E+00
(PID.TID 0000.0001) %MON dynstat_theta_sd             =   6.1856125849462E-04
(PID.TID 0000.0001) %MON dynstat_theta_del2           =   7.1817526643811E-07
(PID.TID 0000.0001) %MON dynstat_salt_max             =   3.4400000000000E+01
(PID.TID 0000.0001) %MON dynstat_salt_min             =   3.4396123618188E+01
(PID.TID 0000.0001) %MON dynstat_salt_mean            =   3.4399967460320E+01
(PID.TID 0000.0001) %MON dynstat_salt_sd              =   2.5178601888371E-04
(PID.TID 0000.0001) %MON dynstat_salt_del2            =   2.9202578399107E-07
(PID.TID 0000.0001) %MON advcfl_uvel_max              =   5.5324328764950E-05
(PID.TID 0000.0001) %MON advcfl_vvel_max              =   1.4769663281907E-05
(PID.TID 0000.0001) %MON advcfl_wvel_max              =   5.4013488713829E-05
(PID.TID 0000.0001) %MON advcfl_W_hf_max              =   6.1445568875368E-05
(PID.TID 0000.0001) %MON pe_b_mean                    =  -3.9887430441327E-08
(PID.TID 0000.0001) %MON ke_max                       =   1.9305128832951E-08
(PID.TID 0000.0001) %MON ke_mean                      =   8.3936386615526E-11
(PID.TID 0000.0001) %MON ke_vol                       =   3.4703745874271E+14
(PID.TID 0000.0001) %MON vort_r_min                   =  -1.5445278752982E-08
(PID.TID 0000.0001) %MON vort_r_max                   =   1.4869073595844E-08
(PID.TID 0000.0001) %MON vort_a_mean                  =  -1.3992981961561E-04
(PID.TID 0000.0001) %MON vort_a_sd                    =   1.7365057092832E-06
(PID.TID 0000.0001) %MON vort_p_mean                  =  -1.4746660584764E-04
(PID.TID 0000.0001) %MON vort_p_sd                    =   7.7971844501100E-05
(PID.TID 0000.0001) %MON surfExpan_theta_mean         =  -6.8762760583597E-13
(PID.TID 0000.0001) %MON surfExpan_salt_mean          =  -2.7905153004605E-13
(PID.TID 0000.0001) // =======================================================
(PID.TID 0000.0001) // End MONITOR dynamic field statistics
(PID.TID 0000.0001) // =======================================================
 cg2d: Sum(rhs),rhsMax =   1.91846538655227E-13  9.01877372074410E-05
(PID.TID 0000.0001)                    cg2d_init_res =    6.26432666927948E-01
(PID.TID 0000.0001)                       cg2d_iters =   206
(PID.TID 0000.0001)                         cg2d_res =    9.74896659967836E-14
(PID.TID 0000.0001) // =======================================================
(PID.TID 0000.0001) // Begin MONITOR dynamic field statistics
(PID.TID 0000.0001) // =======================================================
(PID.TID 0000.0001) %MON time_tsnumber                =                    15
(PID.TID 0000.0001) %MON time_secondsf                =   2.7000000000000E+04
(PID.TID 0000.0001) %MON dynstat_eta_max              =   2.7011022912692E-05
(PID.TID 0000.0001) %MON dynstat_eta_min              =  -1.1978920696929E-05
(PID.TID 0000.0001) %MON dynstat_eta_mean             =  -5.3237166423027E-21
(PID.TID 0000.0001) %MON dynstat_eta_sd               =   1.3973534936909E-05
(PID.TID 0000.0001) %MON dynstat_eta_del2             =   3.8503112170284E-08
(PID.TID 0000.0001) %MON dynstat_uvel_max             =   3.1174146027737E-05
(PID.TID 0000.0001) %MON dynstat_uvel_min             =  -2.0482921337939E-04
(PID.TID 0000.0001) %MON dynstat_uvel_mean            =  -4.5489518178140E-09
(PID.TID 0000.0001) %MON dynstat_uvel_sd              =   1.3316396229220E-05
(PID.TID 0000.0001) %MON dynstat_uvel_del2            =   2.8065349991103E-08
(PID.TID 0000.0001) %MON dynstat_vvel_max             =   8.7033986425188E-05
(PID.TID 0000.0001) %MON dynstat_vvel_min             =  -1.4273275127076E-05
(PID.TID 0000.0001) %MON dynstat_vvel_mean            =  -8.4801159465207E-08
(PID.TID 0000.0001) %MON dynstat_vvel_sd              =   4.7151833357570E-06
(PID.TID 0000.0001) %MON dynstat_vvel_del2            =   1.2745384374127E-08
(PID.TID 0000.0001) %MON dynstat_wvel_max             =   9.8185310437812E-07
(PID.TID 0000.0001) %MON dynstat_wvel_min             =  -9.2874957299943E-07
(PID.TID 0000.0001) %MON dynstat_wvel_mean            =  -5.3206604971281E-11
(PID.TID 0000.0001) %MON dynstat_wvel_sd              =   3.1113391153507E-08
(PID.TID 0000.0001) %MON dynstat_wvel_del2            =   1.6774454965852E-10
(PID.TID 0000.0001) %MON dynstat_theta_max            =  -1.9000000000000E+00
(PID.TID 0000.0001) %MON dynstat_theta_min            =  -1.9101707740371E+00
(PID.TID 0000.0001) %MON dynstat_theta_mean           =  -1.9000858000787E+00
(PID.TID 0000.0001) %MON dynstat_theta_sd             =   6.6223220763234E-04
(PID.TID 0000.0001) %MON dynstat_theta_del2           =   7.6791526398328E-07
(PID.TID 0000.0001) %MON dynstat_salt_max             =   3.4400000000000E+01
(PID.TID 0000.0001) %MON dynstat_salt_min             =   3.4395849613680E+01
(PID.TID 0000.0001) %MON dynstat_salt_mean            =   3.4399965156190E+01
(PID.TID 0000.0001) %MON dynstat_salt_sd              =   2.6956102847885E-04
(PID.TID 0000.0001) %MON dynstat_salt_del2            =   3.1224907650464E-07
(PID.TID 0000.0001) %MON advcfl_uvel_max              =   6.0945713377772E-05
(PID.TID 0000.0001) %MON advcfl_vvel_max              =   1.4091089754242E-05
(PID.TID 0000.0001) %MON advcfl_wvel_max              =   5.8911186262687E-05
(PID.TID 0000.0001) %MON advcfl_W_hf_max              =   6.6243976618453E-05
(PID.TID 0000.0001) %MON pe_b_mean                    =  -4.1335711457949E-08
(PID.TID 0000.0001) %MON ke_max                       =   2.2746578637822E-08
(PID.TID 0000.0001) %MON ke_mean                      =   9.7828696374772E-11
(PID.TID 0000.0001) %MON ke_vol                       =   3.4703745874271E+14
(PID.TID 0000.0001) %MON vort_r_min                   =  -1.4735664925697E-08
(PID.TID 0000.0001) %MON vort_r_max                   =   1.4128186857357E-08
(PID.TID 0000.0001) %MON vort_a_mean                  =  -1.3992981962875E-04
(PID.TID 0000.0001) %MON vort_a_sd                    =   1.7365055367729E-06
(PID.TID 0000.0001) %MON vort_p_mean                  =  -1.4746660586150E-04
(PID.TID 0000.0001) %MON vort_p_sd                    =   7.7971660475584E-05
(PID.TID 0000.0001) %MON surfExpan_theta_mean         =  -5.7271529631993E-13
(PID.TID 0000.0001) %MON surfExpan_salt_mean          =  -2.3220723355185E-13
(PID.TID 0000.0001) // =======================================================
(PID.TID 0000.0001) // End MONITOR dynamic field statistics
(PID.TID 0000.0001) // =======================================================
 cg2d: Sum(rhs),rhsMax =  -1.27897692436818E-13  9.57491000545348E-05
(PID.TID 0000.0001)                    cg2d_init_res =    5.86531322067216E-01
(PID.TID 0000.0001)                       cg2d_iters =   205
(PID.TID 0000.0001)                         cg2d_res =    9.56677341236784E-14
(PID.TID 0000.0001) // =======================================================
(PID.TID 0000.0001) // Begin MONITOR dynamic field statistics
(PID.TID 0000.0001) // =======================================================
(PID.TID 0000.0001) %MON time_tsnumber                =                    16
(PID.TID 0000.0001) %MON time_secondsf                =   2.8800000000000E+04
(PID.TID 0000.0001) %MON dynstat_eta_max              =   2.7819894877571E-05
(PID.TID 0000.0001) %MON dynstat_eta_min              =  -1.2277727708845E-05
(PID.TID 0000.0001) %MON dynstat_eta_mean             =   2.1294866569211E-21
(PID.TID 0000.0001) %MON dynstat_eta_sd               =   1.4421532649348E-05
(PID.TID 0000.0001) %MON dynstat_eta_del2             =   4.1016406970240E-08
(PID.TID 0000.0001) %MON dynstat_uvel_max             =   3.3851555991086E-05
(PID.TID 0000.0001) %MON dynstat_uvel_min             =  -2.2198647201461E-04
(PID.TID 0000.0001) %MON dynstat_uvel_mean            =  -8.6956908060580E-11
(PID.TID 0000.0001) %MON dynstat_uvel_sd              =   1.4440167319794E-05
(PID.TID 0000.0001) %MON dynstat_uvel_del2            =   3.0491981512701E-08
(PID.TID 0000.0001) %MON dynstat_vvel_max             =   8.1421899991862E-05
(PID.TID 0000.0001) %MON dynstat_vvel_min             =  -1.3729361751327E-05
(PID.TID 0000.0001) %MON dynstat_vvel_mean            =  -7.2468532147092E-08
(PID.TID 0000.0001) %MON dynstat_vvel_sd              =   4.3061039543161E-06
(PID.TID 0000.0001) %MON dynstat_vvel_del2            =   1.1966695902469E-08
(PID.TID 0000.0001) %MON dynstat_wvel_max             =   1.0554473251128E-06
(PID.TID 0000.0001) %MON dynstat_wvel_min             =  -9.9468792665881E-07
(PID.TID 0000.0001) %MON dynstat_wvel_mean            =  -4.6118406610100E-11
(PID.TID 0000.0001) %MON dynstat_wvel_sd              =   3.2851783179203E-08
(PID.TID 0000.0001) %MON dynstat_wvel_del2            =   1.6507386773220E-10
(PID.TID 0000.0001) %MON dynstat_theta_max            =  -1.9000000000000E+00
(PID.TID 0000.0001) %MON dynstat_theta_min            =  -1.9108413531668E+00
(PID.TID 0000.0001) %MON dynstat_theta_mean           =  -1.9000914678065E+00
(PID.TID 0000.0001) %MON dynstat_theta_sd             =   7.0583605527016E-04
(PID.TID 0000.0001) %MON dynstat_theta_del2           =   8.1745448354276E-07
(PID.TID 0000.0001) %MON dynstat_salt_max             =   3.4400000000000E+01
(PID.TID 0000.0001) %MON dynstat_salt_min             =   3.4395575985346E+01
(PID.TID 0000.0001) %MON dynstat_salt_mean            =   3.4399962854703E+01
(PID.TID 0000.0001) %MON dynstat_salt_sd              =   2.8730855523754E-04
(PID.TID 0000.0001) %MON dynstat_salt_del2            =   3.3239045491797E-07
(PID.TID 0000.0001) %MON advcfl_uvel_max              =   6.6050753571397E-05
(PID.TID 0000.0001) %MON advcfl_vvel_max              =   1.3182474431783E-05
(PID.TID 0000.0001) %MON advcfl_wvel_max              =   6.3326839506771E-05
(PID.TID 0000.0001) %MON advcfl_W_hf_max              =   7.0474052638629E-05
(PID.TID 0000.0001) %MON pe_b_mean                    =  -4.2632316421919E-08
(PID.TID 0000.0001) %MON ke_max                       =   2.6112192487050E-08
(PID.TID 0000.0001) %MON ke_mean                      =   1.1128433088087E-10
(PID.TID 0000.0001) %MON ke_vol                       =   3.4703745874271E+14
(PID.TID 0000.0001) %MON vort_r_min                   =  -1.3785486396455E-08
(PID.TID 0000.0001) %MON vort_r_max                   =   1.3157289945096E-08
(PID.TID 0000.0001) %MON vort_a_mean                  =  -1.3992981964245E-04
(PID.TID 0000.0001) %MON vort_a_sd                    =   1.7365053754911E-06
(PID.TID 0000.0001) %MON vort_p_mean                  =  -1.4746660587593E-04
(PID.TID 0000.0001) %MON vort_p_sd                    =   7.7971493405511E-05
(PID.TID 0000.0001) %MON surfExpan_theta_mean         =  -5.2727454110372E-13
(PID.TID 0000.0001) %MON surfExpan_salt_mean          =  -2.1367188580002E-13
(PID.TID 0000.0001) // =======================================================
(PID.TID 0000.0001) // End MONITOR dynamic field statistics
(PID.TID 0000.0001) // =======================================================
 cg2d: Sum(rhs),rhsMax =  -5.68434188608080E-14  1.01712100435647E-04
(PID.TID 0000.0001)                    cg2d_init_res =    5.48825971516213E-01
(PID.TID 0000.0001)                       cg2d_iters =   204
(PID.TID 0000.0001)                         cg2d_res =    9.76716317757703E-14
(PID.TID 0000.0001) // =======================================================
(PID.TID 0000.0001) // Begin MONITOR dynamic field statistics
(PID.TID 0000.0001) // =======================================================
(PID.TID 0000.0001) %MON time_tsnumber                =                    17
(PID.TID 0000.0001) %MON time_secondsf                =   3.0600000000000E+04
(PID.TID 0000.0001) %MON dynstat_eta_max              =   2.8503047520041E-05
(PID.TID 0000.0001) %MON dynstat_eta_min              =  -1.2960445535110E-05
(PID.TID 0000.0001) %MON dynstat_eta_mean             =  -2.9812813196895E-20
(PID.TID 0000.0001) %MON dynstat_eta_sd               =   1.4866985543604E-05
(PID.TID 0000.0001) %MON dynstat_eta_del2             =   4.3514098786120E-08
(PID.TID 0000.0001) %MON dynstat_uvel_max             =   3.6217768671291E-05
(PID.TID 0000.0001) %MON dynstat_uvel_min             =  -2.3719079138337E-04
(PID.TID 0000.0001) %MON dynstat_uvel_mean            =   4.4343390082562E-09
(PID.TID 0000.0001) %MON dynstat_uvel_sd              =   1.5431520503245E-05
(PID.TID 0000.0001) %MON dynstat_uvel_del2            =   3.2689037811266E-08
(PID.TID 0000.0001) %MON dynstat_vvel_max             =   7.4893873686906E-05
(PID.TID 0000.0001) %MON dynstat_vvel_min             =  -1.3034178240507E-05
(PID.TID 0000.0001) %MON dynstat_vvel_mean            =  -7.1873566235346E-08
(PID.TID 0000.0001) %MON dynstat_vvel_sd              =   3.8384468671094E-06
(PID.TID 0000.0001) %MON dynstat_vvel_del2            =   1.1065648412070E-08
(PID.TID 0000.0001) %MON dynstat_wvel_max             =   1.1205365999826E-06
(PID.TID 0000.0001) %MON dynstat_wvel_min             =  -1.0657980028267E-06
(PID.TID 0000.0001) %MON dynstat_wvel_mean            =  -4.6471699532390E-11
(PID.TID 0000.0001) %MON dynstat_wvel_sd              =   3.4412987327899E-08
(PID.TID 0000.0001) %MON dynstat_wvel_del2            =   1.6197358068250E-10
(PID.TID 0000.0001) %MON dynstat_theta_max            =  -1.9000000000000E+00
(PID.TID 0000.0001) %MON dynstat_theta_min            =  -1.9115110171291E+00
(PID.TID 0000.0001) %MON dynstat_theta_mean           =  -1.9000971290969E+00
(PID.TID 0000.0001) %MON dynstat_theta_sd             =   7.4937294232187E-04
(PID.TID 0000.0001) %MON dynstat_theta_del2           =   8.6679387898734E-07
(PID.TID 0000.0001) %MON dynstat_salt_max             =   3.4400000000000E+01
(PID.TID 0000.0001) %MON dynstat_salt_min             =   3.4395302732266E+01
(PID.TID 0000.0001) %MON dynstat_salt_mean            =   3.4399960555856E+01
(PID.TID 0000.0001) %MON dynstat_salt_sd              =   3.0502865703217E-04
(PID.TID 0000.0001) %MON dynstat_salt_del2            =   3.5245030851693E-07
(PID.TID 0000.0001) %MON advcfl_uvel_max              =   7.0574708309416E-05
(PID.TID 0000.0001) %MON advcfl_vvel_max              =   1.2125565420035E-05
(PID.TID 0000.0001) %MON advcfl_wvel_max              =   6.7232195998958E-05
(PID.TID 0000.0001) %MON advcfl_W_hf_max              =   7.4142948965061E-05
(PID.TID 0000.0001) %MON pe_b_mean                    =  -4.3916897986255E-08
(PID.TID 0000.0001) %MON ke_max                       =   2.9298576679806E-08
(PID.TID 0000.0001) %MON ke_mean                      =   1.2390924863428E-10
(PID.TID 0000.0001) %MON ke_vol                       =   3.4703745874271E+14
(PID.TID 0000.0001) %MON vort_r_min                   =  -1.2680230711785E-08
(PID.TID 0000.0001) %MON vort_r_max                   =   1.2050637090372E-08
(PID.TID 0000.0001) %MON vort_a_mean                  =  -1.3992981965489E-04
(PID.TID 0000.0001) %MON vort_a_sd                    =   1.7365052353238E-06
(PID.TID 0000.0001) %MON vort_p_mean                  =  -1.4746660588904E-04
(PID.TID 0000.0001) %MON vort_p_sd                    =   7.7971345685791E-05
(PID.TID 0000.0001) %MON surfExpan_theta_mean         =  -5.6517785313240E-13
(PID.TID 0000.0001) %MON surfExpan_salt_mean          =  -2.2909336710684E-13
(PID.TID 0000.0001) // =======================================================
(PID.TID 0000.0001) // End MONITOR dynamic field statistics
(PID.TID 0000.0001) // =======================================================
 cg2d: Sum(rhs),rhsMax =  -1.49213974509621E-13  1.07813816867589E-04
(PID.TID 0000.0001)                    cg2d_init_res =    5.14639423719115E-01
(PID.TID 0000.0001)                       cg2d_iters =   204
(PID.TID 0000.0001)                         cg2d_res =    8.63909513239142E-14
(PID.TID 0000.0001) // =======================================================
(PID.TID 0000.0001) // Begin MONITOR dynamic field statistics
(PID.TID 0000.0001) // =======================================================
(PID.TID 0000.0001) %MON time_tsnumber                =                    18
(PID.TID 0000.0001) %MON time_secondsf                =   3.2400000000000E+04
(PID.TID 0000.0001) %MON dynstat_eta_max              =   2.9146823390799E-05
(PID.TID 0000.0001) %MON dynstat_eta_min              =  -1.3562264671706E-05
(PID.TID 0000.0001) %MON dynstat_eta_mean             =   1.5971149926908E-20
(PID.TID 0000.0001) %MON dynstat_eta_sd               =   1.5348983938050E-05
(PID.TID 0000.0001) %MON dynstat_eta_del2             =   4.5996608311637E-08
(PID.TID 0000.0001) %MON dynstat_uvel_max             =   3.8254715362953E-05
(PID.TID 0000.0001) %MON dynstat_uvel_min             =  -2.5036405218077E-04
(PID.TID 0000.0001) %MON dynstat_uvel_mean            =   8.5877065897683E-09
(PID.TID 0000.0001) %MON dynstat_uvel_sd              =   1.6283772236497E-05
(PID.TID 0000.0001) %MON dynstat_uvel_del2            =   3.4646973882102E-08
(PID.TID 0000.0001) %MON dynstat_vvel_max             =   6.7982825088643E-05
(PID.TID 0000.0001) %MON dynstat_vvel_min             =  -1.2252671090358E-05
(PID.TID 0000.0001) %MON dynstat_vvel_mean            =  -8.1475911514565E-08
(PID.TID 0000.0001) %MON dynstat_vvel_sd              =   3.3475527430152E-06
(PID.TID 0000.0001) %MON dynstat_vvel_del2            =   1.0114356704575E-08
(PID.TID 0000.0001) %MON dynstat_wvel_max             =   1.1810561807241E-06
(PID.TID 0000.0001) %MON dynstat_wvel_min             =  -1.1320155894178E-06
(PID.TID 0000.0001) %MON dynstat_wvel_mean            =  -5.3245031503117E-11
(PID.TID 0000.0001) %MON dynstat_wvel_sd              =   3.5803200728784E-08
(PID.TID 0000.0001) %MON dynstat_wvel_del2            =   1.5913276352844E-10
(PID.TID 0000.0001) %MON dynstat_theta_max            =  -1.9000000000000E+00
(PID.TID 0000.0001) %MON dynstat_theta_min            =  -1.9121797679525E+00
(PID.TID 0000.0001) %MON dynstat_theta_mean           =  -1.9001027839609E+00
(PID.TID 0000.0001) %MON dynstat_theta_sd             =   7.9284300918465E-04
(PID.TID 0000.0001) %MON dynstat_theta_del2           =   9.1593440305285E-07
(PID.TID 0000.0001) %MON dynstat_salt_max             =   3.4400000000000E+01
(PID.TID 0000.0001) %MON dynstat_salt_min             =   3.4395029853605E+01
(PID.TID 0000.0001) %MON dynstat_salt_mean            =   3.4399958259644E+01
(PID.TID 0000.0001) %MON dynstat_salt_sd              =   3.2272139152259E-04
(PID.TID 0000.0001) %MON dynstat_salt_del2            =   3.7242902623302E-07
(PID.TID 0000.0001) %MON advcfl_uvel_max              =   7.4494333657592E-05
(PID.TID 0000.0001) %MON advcfl_vvel_max              =   1.1006643834411E-05
(PID.TID 0000.0001) %MON advcfl_wvel_max              =   7.0863370843445E-05
(PID.TID 0000.0001) %MON advcfl_W_hf_max              =   7.7294431829273E-05
(PID.TID 0000.0001) %MON pe_b_mean                    =  -4.5310904634783E-08
(PID.TID 0000.0001) %MON ke_max                       =   3.2228415968769E-08
(PID.TID 0000.0001) %MON ke_mean                      =   1.3540813958631E-10
(PID.TID 0000.0001) %MON ke_vol                       =   3.4703745874271E+14
(PID.TID 0000.0001) %MON vort_r_min                   =  -1.1510125783674E-08
(PID.TID 0000.0001) %MON vort_r_max                   =   1.2115209162167E-08
(PID.TID 0000.0001) %MON vort_a_mean                  =  -1.3992981966449E-04
(PID.TID 0000.0001) %MON vort_a_sd                    =   1.7365051223846E-06
(PID.TID 0000.0001) %MON vort_p_mean                  =  -1.4746660589916E-04
(PID.TID 0000.0001) %MON vort_p_sd                    =   7.7971218366269E-05
(PID.TID 0000.0001) %MON surfExpan_theta_mean         =  -6.8911128725127E-13
(PID.TID 0000.0001) %MON surfExpan_salt_mean          =  -2.7956245864413E-13
(PID.TID 0000.0001) // =======================================================
(PID.TID 0000.0001) // End MONITOR dynamic field statistics
(PID.TID 0000.0001) // =======================================================
 cg2d: Sum(rhs),rhsMax =  -7.10542735760100E-15  1.13822300259295E-04
(PID.TID 0000.0001)                    cg2d_init_res =    4.84528796753388E-01
(PID.TID 0000.0001)                       cg2d_iters =   203
(PID.TID 0000.0001)                         cg2d_res =    8.99695211924549E-14
(PID.TID 0000.0001) // =======================================================
(PID.TID 0000.0001) // Begin MONITOR dynamic field statistics
(PID.TID 0000.0001) // =======================================================
(PID.TID 0000.0001) %MON time_tsnumber                =                    19
(PID.TID 0000.0001) %MON time_secondsf                =   3.4200000000000E+04
(PID.TID 0000.0001) %MON dynstat_eta_max              =   2.9829931460910E-05
(PID.TID 0000.0001) %MON dynstat_eta_min              =  -1.4098876507689E-05
(PID.TID 0000.0001) %MON dynstat_eta_mean             =   0.0000000000000E+00
(PID.TID 0000.0001) %MON dynstat_eta_sd               =   1.5897267095546E-05
(PID.TID 0000.0001) %MON dynstat_eta_del2             =   4.8464339144012E-08
(PID.TID 0000.0001) %MON dynstat_uvel_max             =   3.9966363278331E-05
(PID.TID 0000.0001) %MON dynstat_uvel_min             =  -2.6156482199242E-04
(PID.TID 0000.0001) %MON dynstat_uvel_mean            =   1.2025402150178E-08
(PID.TID 0000.0001) %MON dynstat_uvel_sd              =   1.6999630281878E-05
(PID.TID 0000.0001) %MON dynstat_uvel_del2            =   3.6372492137300E-08
(PID.TID 0000.0001) %MON dynstat_vvel_max             =   6.1330699565998E-05
(PID.TID 0000.0001) %MON dynstat_vvel_min             =  -1.1449618834184E-05
(PID.TID 0000.0001) %MON dynstat_vvel_mean            =  -9.8898642931979E-08
(PID.TID 0000.0001) %MON dynstat_vvel_sd              =   2.8689250989381E-06
(PID.TID 0000.0001) %MON dynstat_vvel_del2            =   9.1821799690211E-09
(PID.TID 0000.0001) %MON dynstat_wvel_max             =   1.2359297193977E-06
(PID.TID 0000.0001) %MON dynstat_wvel_min             =  -1.1904306494193E-06
(PID.TID 0000.0001) %MON dynstat_wvel_mean            =  -6.4902103848692E-11
(PID.TID 0000.0001) %MON dynstat_wvel_sd              =   3.7034286489797E-08
(PID.TID 0000.0001) %MON dynstat_wvel_del2            =   1.5708263075730E-10
(PID.TID 0000.0001) %MON dynstat_theta_max            =  -1.9000000000000E+00
(PID.TID 0000.0001) %MON dynstat_theta_min            =  -1.9128476074521E+00
(PID.TID 0000.0001) %MON dynstat_theta_mean           =  -1.9001084324094E+00
(PID.TID 0000.0001) %MON dynstat_theta_sd             =   8.3624639589838E-04
(PID.TID 0000.0001) %MON dynstat_theta_del2           =   9.6487701047154E-07
(PID.TID 0000.0001) %MON dynstat_salt_max             =   3.4400000000000E+01
(PID.TID 0000.0001) %MON dynstat_salt_min             =   3.4394757348615E+01
(PID.TID 0000.0001) %MON dynstat_salt_mean            =   3.4399955966062E+01
(PID.TID 0000.0001) %MON dynstat_salt_sd              =   3.4038681622171E-04
(PID.TID 0000.0001) %MON dynstat_salt_del2            =   3.9232699789684E-07
(PID.TID 0000.0001) %MON advcfl_uvel_max              =   7.7827056052452E-05
(PID.TID 0000.0001) %MON advcfl_vvel_max              =   9.9296427495915E-06
(PID.TID 0000.0001) %MON advcfl_wvel_max              =   7.4155783163863E-05
(PID.TID 0000.0001) %MON advcfl_W_hf_max              =   8.0003277268962E-05
(PID.TID 0000.0001) %MON pe_b_mean                    =  -4.6907769966967E-08
(PID.TID 0000.0001) %MON ke_max                       =   3.4857910911026E-08
(PID.TID 0000.0001) %MON ke_mean                      =   1.4561142739353E-10
(PID.TID 0000.0001) %MON ke_vol                       =   3.4703745874271E+14
(PID.TID 0000.0001) %MON vort_r_min                   =  -1.0363929041072E-08
(PID.TID 0000.0001) %MON vort_r_max                   =   1.2654660407048E-08
(PID.TID 0000.0001) %MON vort_a_mean                  =  -1.3992981966995E-04
(PID.TID 0000.0001) %MON vort_a_sd                    =   1.7365050428516E-06
(PID.TID 0000.0001) %MON vort_p_mean                  =  -1.4746660590492E-04
(PID.TID 0000.0001) %MON vort_p_sd                    =   7.7971111150941E-05
(PID.TID 0000.0001) %MON surfExpan_theta_mean         =  -8.9149458739478E-13
(PID.TID 0000.0001) %MON surfExpan_salt_mean          =  -3.6198791267954E-13
(PID.TID 0000.0001) // =======================================================
(PID.TID 0000.0001) // End MONITOR dynamic field statistics
(PID.TID 0000.0001) // =======================================================
 cg2d: Sum(rhs),rhsMax =   1.42108547152020E-14  1.19739510775789E-04
(PID.TID 0000.0001)                    cg2d_init_res =    4.57811970043467E-01
(PID.TID 0000.0001)                       cg2d_iters =   202
(PID.TID 0000.0001)                         cg2d_res =    8.86564207320972E-14
(PID.TID 0000.0001) // =======================================================
(PID.TID 0000.0001) // Begin MONITOR dynamic field statistics
(PID.TID 0000.0001) // =======================================================
(PID.TID 0000.0001) %MON time_tsnumber                =                    20
(PID.TID 0000.0001) %MON time_secondsf                =   3.6000000000000E+04
(PID.TID 0000.0001) %MON dynstat_eta_max              =   3.0617717462822E-05
(PID.TID 0000.0001) %MON dynstat_eta_min              =  -1.4589239498599E-05
(PID.TID 0000.0001) %MON dynstat_eta_mean             =   1.8100636583829E-20
(PID.TID 0000.0001) %MON dynstat_eta_sd               =   1.6531121743015E-05
(PID.TID 0000.0001) %MON dynstat_eta_del2             =   5.0917665226864E-08
(PID.TID 0000.0001) %MON dynstat_uvel_max             =   4.1377235738938E-05
(PID.TID 0000.0001) %MON dynstat_uvel_min             =  -2.7097793037220E-04
(PID.TID 0000.0001) %MON dynstat_uvel_mean            =   1.4515344647680E-08
(PID.TID 0000.0001) %MON dynstat_uvel_sd              =   1.7590553992647E-05
(PID.TID 0000.0001) %MON dynstat_uvel_del2            =   3.7886821411643E-08
(PID.TID 0000.0001) %MON dynstat_vvel_max             =   5.5655268365171E-05
(PID.TID 0000.0001) %MON dynstat_vvel_min             =  -1.0685773013574E-05
(PID.TID 0000.0001) %MON dynstat_vvel_mean            =  -1.2136927819754E-07
(PID.TID 0000.0001) %MON dynstat_vvel_sd              =   2.4356787549092E-06
(PID.TID 0000.0001) %MON dynstat_vvel_del2            =   8.3310992266606E-09
(PID.TID 0000.0001) %MON dynstat_wvel_max             =   1.2838778532358E-06
(PID.TID 0000.0001) %MON dynstat_wvel_min             =  -1.2416262964410E-06
(PID.TID 0000.0001) %MON dynstat_wvel_mean            =  -7.9667177434544E-11
(PID.TID 0000.0001) %MON dynstat_wvel_sd              =   3.8124684565274E-08
(PID.TID 0000.0001) %MON dynstat_wvel_del2            =   1.5615067953152E-10
(PID.TID 0000.0001) %MON dynstat_theta_max            =  -1.9000000000000E+00
(PID.TID 0000.0001) %MON dynstat_theta_min            =  -1.9135145372446E+00
(PID.TID 0000.0001) %MON dynstat_theta_mean           =  -1.9001140744535E+00
(PID.TID 0000.0001) %MON dynstat_theta_sd             =   8.7958324227798E-04
(PID.TID 0000.0001) %MON dynstat_theta_del2           =   1.0136226605011E-06
(PID.TID 0000.0001) %MON dynstat_salt_max             =   3.4400000000000E+01
(PID.TID 0000.0001) %MON dynstat_salt_min             =   3.4394485216631E+01
(PID.TID 0000.0001) %MON dynstat_salt_mean            =   3.4399953675106E+01
(PID.TID 0000.0001) %MON dynstat_salt_sd              =   3.5802498854920E-04
(PID.TID 0000.0001) %MON dynstat_salt_del2            =   4.1214461525078E-07
(PID.TID 0000.0001) %MON advcfl_uvel_max              =   8.0627870427723E-05
(PID.TID 0000.0001) %MON advcfl_vvel_max              =   9.0107717001351E-06
(PID.TID 0000.0001) %MON advcfl_wvel_max              =   7.7032671194147E-05
(PID.TID 0000.0001) %MON advcfl_W_hf_max              =   8.2368015621003E-05
(PID.TID 0000.0001) %MON pe_b_mean                    =  -4.8768287903559E-08
(PID.TID 0000.0001) %MON ke_max                       =   3.7179899393873E-08
(PID.TID 0000.0001) %MON ke_mean                      =   1.5449130937209E-10
(PID.TID 0000.0001) %MON ke_vol                       =   3.4703745874271E+14
(PID.TID 0000.0001) %MON vort_r_min                   =  -9.3231987916675E-09
(PID.TID 0000.0001) %MON vort_r_max                   =   1.3244230196347E-08
(PID.TID 0000.0001) %MON vort_a_mean                  =  -1.3992981967047E-04
(PID.TID 0000.0001) %MON vort_a_sd                    =   1.7365049981492E-06
(PID.TID 0000.0001) %MON vort_p_mean                  =  -1.4746660590546E-04
(PID.TID 0000.0001) %MON vort_p_sd                    =   7.7971022481270E-05
(PID.TID 0000.0001) %MON surfExpan_theta_mean         =  -1.1566873284524E-12
(PID.TID 0000.0001) %MON surfExpan_salt_mean          =  -4.6999525804391E-13
(PID.TID 0000.0001) // =======================================================
(PID.TID 0000.0001) // End MONITOR dynamic field statistics
(PID.TID 0000.0001) // =======================================================
 Computing Diagnostic #    189  SHIfwFlx     Counter:      10   Parms: SM      L1      
 Computing Diagnostic #    190  SHIhtFlx     Counter:      10   Parms: SM      L1      
 Computing Diagnostic #    197  ICFfwFlx     Counter:      10   Parms: SM      MR      
 Computing Diagnostic #    198  ICFhtFlx     Counter:      10   Parms: SM      MR      
(PID.TID 0000.0001) %CHECKPOINT        20 ckptA
(PID.TID 0000.0001)   Seconds in section "ALL                    [THE_MODEL_MAIN]":
(PID.TID 0000.0001)           User time:   57.9191937184660
(PID.TID 0000.0001)         System time:  0.191970994696021
(PID.TID 0000.0001)     Wall clock time:   59.6421871185303
(PID.TID 0000.0001)          No. starts:           1
(PID.TID 0000.0001)           No. stops:           1
(PID.TID 0000.0001)   Seconds in section "INITIALISE_FIXED       [THE_MODEL_MAIN]":
(PID.TID 0000.0001)           User time:  0.314951989683323
(PID.TID 0000.0001)         System time:  4.099400155246258E-002
(PID.TID 0000.0001)     Wall clock time:  0.490929841995239
(PID.TID 0000.0001)          No. starts:           1
(PID.TID 0000.0001)           No. stops:           1
(PID.TID 0000.0001)   Seconds in section "THE_MAIN_LOOP          [THE_MODEL_MAIN]":
(PID.TID 0000.0001)           User time:   57.6042417287827
(PID.TID 0000.0001)         System time:  0.150976993143559
(PID.TID 0000.0001)     Wall clock time:   59.1512119770050
(PID.TID 0000.0001)          No. starts:           1
(PID.TID 0000.0001)           No. stops:           1
(PID.TID 0000.0001)   Seconds in section "INITIALISE_VARIA    [THE_MAIN_LOOP]":
(PID.TID 0000.0001)           User time:  0.787881016731262
(PID.TID 0000.0001)         System time:  3.699399530887604E-002
(PID.TID 0000.0001)     Wall clock time:  0.857016801834106
(PID.TID 0000.0001)          No. starts:           1
(PID.TID 0000.0001)           No. stops:           1
(PID.TID 0000.0001)   Seconds in section "MAIN LOOP           [THE_MAIN_LOOP]":
(PID.TID 0000.0001)           User time:   56.8163607120514
(PID.TID 0000.0001)         System time:  0.113982997834682
(PID.TID 0000.0001)     Wall clock time:   58.2941460609436
(PID.TID 0000.0001)          No. starts:           1
(PID.TID 0000.0001)           No. stops:           1
(PID.TID 0000.0001)   Seconds in section "FORWARD_STEP        [THE_MAIN_LOOP]":
(PID.TID 0000.0001)           User time:   56.8163607120514
(PID.TID 0000.0001)         System time:  0.113982997834682
(PID.TID 0000.0001)     Wall clock time:   58.2939360141754
(PID.TID 0000.0001)          No. starts:          20
(PID.TID 0000.0001)           No. stops:          20
(PID.TID 0000.0001)   Seconds in section "DO_STATEVARS_DIAGS  [FORWARD_STEP]":
(PID.TID 0000.0001)           User time:   0.00000000000000
(PID.TID 0000.0001)         System time:   0.00000000000000
(PID.TID 0000.0001)     Wall clock time:  1.061201095581055E-003
(PID.TID 0000.0001)          No. starts:          40
(PID.TID 0000.0001)           No. stops:          40
(PID.TID 0000.0001)   Seconds in section "LOAD_FIELDS_DRIVER  [FORWARD_STEP]":
(PID.TID 0000.0001)           User time:   0.00000000000000
(PID.TID 0000.0001)         System time:   0.00000000000000
(PID.TID 0000.0001)     Wall clock time:  5.695819854736328E-004
(PID.TID 0000.0001)          No. starts:          20
(PID.TID 0000.0001)           No. stops:          20
(PID.TID 0000.0001)   Seconds in section "EXTERNAL_FLDS_LOAD [LOAD_FLDS_DRIVER]":
(PID.TID 0000.0001)           User time:   0.00000000000000
(PID.TID 0000.0001)         System time:   0.00000000000000
(PID.TID 0000.0001)     Wall clock time:  1.904964447021484E-004
(PID.TID 0000.0001)          No. starts:          20
(PID.TID 0000.0001)           No. stops:          20
(PID.TID 0000.0001)   Seconds in section "DO_ATMOSPHERIC_PHYS [FORWARD_STEP]":
(PID.TID 0000.0001)           User time:   0.00000000000000
(PID.TID 0000.0001)         System time:   0.00000000000000
(PID.TID 0000.0001)     Wall clock time:  1.931190490722656E-004
(PID.TID 0000.0001)          No. starts:          20
(PID.TID 0000.0001)           No. stops:          20
(PID.TID 0000.0001)   Seconds in section "DO_OCEANIC_PHYS     [FORWARD_STEP]":
(PID.TID 0000.0001)           User time:   1.23881769180298
(PID.TID 0000.0001)         System time:  1.000002026557922E-003
(PID.TID 0000.0001)     Wall clock time:   1.23866939544678
(PID.TID 0000.0001)          No. starts:          20
(PID.TID 0000.0001)           No. stops:          20
(PID.TID 0000.0001)   Seconds in section "SHELFICE_THERMODYNAMICS [DO_OCEANIC_PHYS]":
(PID.TID 0000.0001)           User time:  0.122984409332275
(PID.TID 0000.0001)         System time:   0.00000000000000
(PID.TID 0000.0001)     Wall clock time:  0.124540567398071
(PID.TID 0000.0001)          No. starts:          20
(PID.TID 0000.0001)           No. stops:          20
(PID.TID 0000.0001)   Seconds in section "ICEFRONT_THERMODYNAMICS [DO_OCEANIC_PHYS]":
(PID.TID 0000.0001)           User time:  0.332954406738281
(PID.TID 0000.0001)         System time:   0.00000000000000
(PID.TID 0000.0001)     Wall clock time:  0.331986904144287
(PID.TID 0000.0001)          No. starts:          20
(PID.TID 0000.0001)           No. stops:          20
(PID.TID 0000.0001)   Seconds in section "THERMODYNAMICS      [FORWARD_STEP]":
(PID.TID 0000.0001)           User time:   9.14060139656067
(PID.TID 0000.0001)         System time:  1.000002026557922E-003
(PID.TID 0000.0001)     Wall clock time:   9.15446066856384
(PID.TID 0000.0001)          No. starts:          20
(PID.TID 0000.0001)           No. stops:          20
(PID.TID 0000.0001)   Seconds in section "DYNAMICS            [FORWARD_STEP]":
(PID.TID 0000.0001)           User time:   21.9816670417786
(PID.TID 0000.0001)         System time:  1.999996602535248E-003
(PID.TID 0000.0001)     Wall clock time:   21.9953708648682
(PID.TID 0000.0001)          No. starts:          20
(PID.TID 0000.0001)           No. stops:          20
(PID.TID 0000.0001)   Seconds in section "UPDATE_SURF_DR      [FORWARD_STEP]":
(PID.TID 0000.0001)           User time:  0.293945789337158
(PID.TID 0000.0001)         System time:   0.00000000000000
(PID.TID 0000.0001)     Wall clock time:  0.294667482376099
(PID.TID 0000.0001)          No. starts:          20
(PID.TID 0000.0001)           No. stops:          20
(PID.TID 0000.0001)   Seconds in section "SOLVE_FOR_PRESSURE  [FORWARD_STEP]":
(PID.TID 0000.0001)           User time:   11.6712367534637
(PID.TID 0000.0001)         System time:   0.00000000000000
(PID.TID 0000.0001)     Wall clock time:   11.6744482517242
(PID.TID 0000.0001)          No. starts:          20
(PID.TID 0000.0001)           No. stops:          20
(PID.TID 0000.0001)   Seconds in section "MOM_CORRECTION_STEP [FORWARD_STEP]":
(PID.TID 0000.0001)           User time:  0.822869539260864
(PID.TID 0000.0001)         System time:   0.00000000000000
(PID.TID 0000.0001)     Wall clock time:  0.824582099914551
(PID.TID 0000.0001)          No. starts:          20
(PID.TID 0000.0001)           No. stops:          20
(PID.TID 0000.0001)   Seconds in section "INTEGR_CONTINUITY   [FORWARD_STEP]":
(PID.TID 0000.0001)           User time:   1.35378813743591
(PID.TID 0000.0001)         System time:   0.00000000000000
(PID.TID 0000.0001)     Wall clock time:   1.35405182838440
(PID.TID 0000.0001)          No. starts:          20
(PID.TID 0000.0001)           No. stops:          20
(PID.TID 0000.0001)   Seconds in section "TRC_CORRECTION_STEP [FORWARD_STEP]":
(PID.TID 0000.0001)           User time:   2.57660889625549
(PID.TID 0000.0001)         System time:   0.00000000000000
(PID.TID 0000.0001)     Wall clock time:   2.57786393165588
(PID.TID 0000.0001)          No. starts:          20
(PID.TID 0000.0001)           No. stops:          20
(PID.TID 0000.0001)   Seconds in section "BLOCKING_EXCHANGES  [FORWARD_STEP]":
(PID.TID 0000.0001)           User time:  0.390947103500366
(PID.TID 0000.0001)         System time:   0.00000000000000
(PID.TID 0000.0001)     Wall clock time:  0.389771461486816
(PID.TID 0000.0001)          No. starts:          20
(PID.TID 0000.0001)           No. stops:          20
(PID.TID 0000.0001)   Seconds in section "DO_STATEVARS_TAVE   [FORWARD_STEP]":
(PID.TID 0000.0001)           User time:  9.994506835937500E-004
(PID.TID 0000.0001)         System time:   0.00000000000000
(PID.TID 0000.0001)     Wall clock time:  2.081394195556641E-004
(PID.TID 0000.0001)          No. starts:          20
(PID.TID 0000.0001)           No. stops:          20
(PID.TID 0000.0001)   Seconds in section "MONITOR             [FORWARD_STEP]":
(PID.TID 0000.0001)           User time:   7.02592635154724
(PID.TID 0000.0001)         System time:   0.00000000000000
(PID.TID 0000.0001)     Wall clock time:   7.03060007095337
(PID.TID 0000.0001)          No. starts:          20
(PID.TID 0000.0001)           No. stops:          20
(PID.TID 0000.0001)   Seconds in section "DO_THE_MODEL_IO     [FORWARD_STEP]":
(PID.TID 0000.0001)           User time:  0.155977249145508
(PID.TID 0000.0001)         System time:  3.799400478601456E-002
(PID.TID 0000.0001)     Wall clock time:   1.29722690582275
(PID.TID 0000.0001)          No. starts:          20
(PID.TID 0000.0001)           No. stops:          20
(PID.TID 0000.0001)   Seconds in section "DO_WRITE_PICKUP     [FORWARD_STEP]":
(PID.TID 0000.0001)           User time:  0.158973693847656
(PID.TID 0000.0001)         System time:  7.198899239301682E-002
(PID.TID 0000.0001)     Wall clock time:  0.456005811691284
(PID.TID 0000.0001)          No. starts:          20
(PID.TID 0000.0001)           No. stops:          20
(PID.TID 0000.0001) // ======================================================
(PID.TID 0000.0001) // Tile <-> Tile communication statistics
(PID.TID 0000.0001) // ======================================================
(PID.TID 0000.0001) // o Tile number: 000001
(PID.TID 0000.0001) //         No. X exchanges =              0
(PID.TID 0000.0001) //            Max. X spins =              0
(PID.TID 0000.0001) //            Min. X spins =     1000000000
(PID.TID 0000.0001) //          Total. X spins =              0
(PID.TID 0000.0001) //            Avg. X spins =       0.00E+00
(PID.TID 0000.0001) //         No. Y exchanges =              0
(PID.TID 0000.0001) //            Max. Y spins =              0
(PID.TID 0000.0001) //            Min. Y spins =     1000000000
(PID.TID 0000.0001) //          Total. Y spins =              0
(PID.TID 0000.0001) //            Avg. Y spins =       0.00E+00
(PID.TID 0000.0001) // o Tile number: 000002
(PID.TID 0000.0001) //         No. X exchanges =              0
(PID.TID 0000.0001) //            Max. X spins =              0
(PID.TID 0000.0001) //            Min. X spins =     1000000000
(PID.TID 0000.0001) //          Total. X spins =              0
(PID.TID 0000.0001) //            Avg. X spins =       0.00E+00
(PID.TID 0000.0001) //         No. Y exchanges =              0
(PID.TID 0000.0001) //            Max. Y spins =              0
(PID.TID 0000.0001) //            Min. Y spins =     1000000000
(PID.TID 0000.0001) //          Total. Y spins =              0
(PID.TID 0000.0001) //            Avg. Y spins =       0.00E+00
(PID.TID 0000.0001) // o Thread number: 000001
(PID.TID 0000.0001) //            No. barriers =          28160
(PID.TID 0000.0001) //      Max. barrier spins =              1
(PID.TID 0000.0001) //      Min. barrier spins =              1
(PID.TID 0000.0001) //     Total barrier spins =          28160
(PID.TID 0000.0001) //      Avg. barrier spins =       1.00E+00
PROGRAM MAIN: Execution ended Normally
