(PID.TID 0000.0001) 
(PID.TID 0000.0001) // ======================================================
(PID.TID 0000.0001) //                      MITgcm UV
(PID.TID 0000.0001) //                      =========
(PID.TID 0000.0001) // ======================================================
(PID.TID 0000.0001) // execution environment starting up...
(PID.TID 0000.0001) 
(PID.TID 0000.0001) // MITgcmUV version:  checkpoint63l
(PID.TID 0000.0001) // Build user:        jmc
(PID.TID 0000.0001) // Build host:        baudelaire
(PID.TID 0000.0001) // Build date:        Thu Apr 26 11:18:20 EDT 2012
(PID.TID 0000.0001) 
(PID.TID 0000.0001) // =======================================================
(PID.TID 0000.0001) // Execution Environment parameter file "eedata"
(PID.TID 0000.0001) // =======================================================
(PID.TID 0000.0001) ># Example "eedata" file
(PID.TID 0000.0001) ># Lines beginning "#" are comments
(PID.TID 0000.0001) ># nTx - No. threads per process in X
(PID.TID 0000.0001) ># nTy - No. threads per process in Y
(PID.TID 0000.0001) > &EEPARMS
(PID.TID 0000.0001) > /
(PID.TID 0000.0001) ># Note: Some systems use & as the
(PID.TID 0000.0001) ># namelist terminator. Other systems
(PID.TID 0000.0001) ># use a / character (as shown here).
(PID.TID 0000.0001) 
(PID.TID 0000.0001) // =======================================================
(PID.TID 0000.0001) // Computational Grid Specification ( see files "SIZE.h" )
(PID.TID 0000.0001) //                                  ( and "eedata"       )
(PID.TID 0000.0001) // =======================================================
(PID.TID 0000.0001)      nPx =    1 ; /* No. processes in X */
(PID.TID 0000.0001)      nPy =    1 ; /* No. processes in Y */
(PID.TID 0000.0001)      nSx =    1 ; /* No. tiles in X per process */
(PID.TID 0000.0001)      nSy =    1 ; /* No. tiles in Y per process */
(PID.TID 0000.0001)      sNx =   50 ; /* Tile size in X */
(PID.TID 0000.0001)      sNy =  100 ; /* Tile size in Y */
(PID.TID 0000.0001)      OLx =    3 ; /* Tile overlap distance in X */
(PID.TID 0000.0001)      OLy =    3 ; /* Tile overlap distance in Y */
(PID.TID 0000.0001)      nTx =    1 ; /* No. threads in X per process */
(PID.TID 0000.0001)      nTy =    1 ; /* No. threads in Y per process */
(PID.TID 0000.0001)       Nr =   30 ; /* No. levels in the vertical   */
(PID.TID 0000.0001)       Nx =   50 ; /* Total domain size in X ( = nPx*nSx*sNx ) */
(PID.TID 0000.0001)       Ny =  100 ; /* Total domain size in Y ( = nPy*nSy*sNy ) */
(PID.TID 0000.0001)   nTiles =    1 ; /* Total no. tiles per process ( = nSx*nSy ) */
(PID.TID 0000.0001)   nProcs =    1 ; /* Total no. processes ( = nPx*nPy ) */
(PID.TID 0000.0001) nThreads =    1 ; /* Total no. threads per process ( = nTx*nTy ) */
(PID.TID 0000.0001) usingMPI =    F ; /* Flag used to control whether MPI is in use */
(PID.TID 0000.0001)                   /*  note: To execute a program with MPI calls */
(PID.TID 0000.0001)                   /*  it must be launched appropriately e.g     */
(PID.TID 0000.0001)                   /*  "mpirun -np 64 ......"                    */
(PID.TID 0000.0001) useCoupler=    F ;/* Flag used to control communications with   */
(PID.TID 0000.0001)                   /*  other model components, through a coupler */
(PID.TID 0000.0001) debugMode =    F ; /* print debug msg. (sequence of S/R calls)  */
(PID.TID 0000.0001) printMapIncludesZeros=    F ; /* print zeros in Std.Output maps */
(PID.TID 0000.0001) maxLengthPrt1D=   65 /* maxLength of 1D array printed to StdOut */
(PID.TID 0000.0001) 
(PID.TID 0000.0001) // ======================================================
(PID.TID 0000.0001) // Mapping of tiles to threads
(PID.TID 0000.0001) // ======================================================
(PID.TID 0000.0001) // -o- Thread   1, tiles (   1:   1,   1:   1)
(PID.TID 0000.0001) 
(PID.TID 0000.0001) // ======================================================
(PID.TID 0000.0001) // Tile <-> Tile connectvity table
(PID.TID 0000.0001) // ======================================================
(PID.TID 0000.0001) // Tile number: 000001 (process no. = 000001)
(PID.TID 0000.0001) //        WEST: Tile = 000001, Process = 000001, Comm = put
(PID.TID 0000.0001) //                bi = 000001, bj = 000001
(PID.TID 0000.0001) //        EAST: Tile = 000001, Process = 000001, Comm = put
(PID.TID 0000.0001) //                bi = 000001, bj = 000001
(PID.TID 0000.0001) //       SOUTH: Tile = 000001, Process = 000001, Comm = put
(PID.TID 0000.0001) //                bi = 000001, bj = 000001
(PID.TID 0000.0001) //       NORTH: Tile = 000001, Process = 000001, Comm = put
(PID.TID 0000.0001) //                bi = 000001, bj = 000001
(PID.TID 0000.0001) 
(PID.TID 0000.0001)  INI_PARMS: opening model parameter file "data"
(PID.TID 0000.0001)  OPEN_COPY_DATA_FILE: opening file data
(PID.TID 0000.0001) // =======================================================
(PID.TID 0000.0001) // Parameter file "data"
(PID.TID 0000.0001) // =======================================================
(PID.TID 0000.0001) ># ====================
(PID.TID 0000.0001) ># | Model parameters |
(PID.TID 0000.0001) ># ====================
(PID.TID 0000.0001) >#
(PID.TID 0000.0001) ># Continuous equation parameters
(PID.TID 0000.0001) > &PARM01
(PID.TID 0000.0001) > Tref = 30*-1.9,
(PID.TID 0000.0001) > Sref = 30*34.4,
(PID.TID 0000.0001) > viscAz=1.E-3,
(PID.TID 0000.0001) > viscAh=600.0,
(PID.TID 0000.0001) > no_slip_sides=.FALSE.,
(PID.TID 0000.0001) > no_slip_bottom=.FALSE.,
(PID.TID 0000.0001) > diffKhT=100.0,
(PID.TID 0000.0001) > diffKzT=5.E-5,
(PID.TID 0000.0001) > diffKhS=100.0,
(PID.TID 0000.0001) > diffKzS=5.E-5,
(PID.TID 0000.0001) > bottomDragQuadratic=2.5E-3,
(PID.TID 0000.0001) > eosType='JMD95Z',
(PID.TID 0000.0001) > HeatCapacity_cp = 3974.0,
(PID.TID 0000.0001) > rhoConst=1030.,
(PID.TID 0000.0001) > rhoNil=1030.,
(PID.TID 0000.0001) > gravity=9.81,
(PID.TID 0000.0001) > convertFW2Salt = 33.4,
(PID.TID 0000.0001) > rigidLid=.FALSE.,
(PID.TID 0000.0001) > implicitFreeSurface=.TRUE.,
(PID.TID 0000.0001) > exactConserv=.TRUE.,
(PID.TID 0000.0001) > hFacMin=0.05,
(PID.TID 0000.0001) > nonHydrostatic=.FALSE.,
(PID.TID 0000.0001) > readBinaryPrec=64,
(PID.TID 0000.0001) > useCDScheme = .TRUE.,
(PID.TID 0000.0001) >#ph(
(PID.TID 0000.0001) > implicitDiffusion=.TRUE.,
(PID.TID 0000.0001) ># ivdc_kappa = 7200.,
(PID.TID 0000.0001) > staggerTimeStep=.TRUE.,
(PID.TID 0000.0001) > vectorInvariantMomentum=.TRUE.,
(PID.TID 0000.0001) > nonlinFreeSurf=2,
(PID.TID 0000.0001) ># hFacInf=0.2,
(PID.TID 0000.0001) ># hFacSup=2.0,
(PID.TID 0000.0001) >#ph)
(PID.TID 0000.0001) > /
(PID.TID 0000.0001) >
(PID.TID 0000.0001) ># Elliptic solver parameters
(PID.TID 0000.0001) > &PARM02
(PID.TID 0000.0001) > cg2dMaxIters=1000,
(PID.TID 0000.0001) > cg2dTargetResidual=1.E-13,
(PID.TID 0000.0001) >#ph cg3dMaxIters=400,
(PID.TID 0000.0001) >#ph cg3dTargetResidual=1.E-13,
(PID.TID 0000.0001) > /
(PID.TID 0000.0001) >
(PID.TID 0000.0001) ># Time stepping parameters
(PID.TID 0000.0001) > &PARM03
(PID.TID 0000.0001) > nIter0=8640,
(PID.TID 0000.0001) > nTimeSteps=10,
(PID.TID 0000.0001) > deltaT=1800.0,
(PID.TID 0000.0001) > abEps=0.1,
(PID.TID 0000.0001) > cAdjFreq = 1.,
(PID.TID 0000.0001) > tauCD = 400000.,
(PID.TID 0000.0001) > pChkptFreq=0.0,
(PID.TID 0000.0001) > chkptFreq=0.0,
(PID.TID 0000.0001) > dumpFreq=0.0,
(PID.TID 0000.0001) > taveFreq=0.0,
(PID.TID 0000.0001) > monitorFreq=1.,
(PID.TID 0000.0001) > monitorSelect=2,
(PID.TID 0000.0001) > adjMonitorFreq=1800.,
(PID.TID 0000.0001) > /
(PID.TID 0000.0001) >
(PID.TID 0000.0001) ># Gridding parameters
(PID.TID 0000.0001) > &PARM04
(PID.TID 0000.0001) > usingSphericalPolarGrid=.TRUE.,
(PID.TID 0000.0001) > ygOrigin = -80.0,
(PID.TID 0000.0001) > delX=50*0.3,
(PID.TID 0000.0001) > delY=100*0.1,
(PID.TID 0000.0001) > delZ=30*30.0,
(PID.TID 0000.0001) > /
(PID.TID 0000.0001) >
(PID.TID 0000.0001) ># Input datasets
(PID.TID 0000.0001) > &PARM05
(PID.TID 0000.0001) > bathyFile='bathy.box',
(PID.TID 0000.0001) > /
(PID.TID 0000.0001) 
(PID.TID 0000.0001)  INI_PARMS ; starts to read PARM01
(PID.TID 0000.0001)  INI_PARMS ; read PARM01 : OK
(PID.TID 0000.0001)  INI_PARMS ; starts to read PARM02
(PID.TID 0000.0001)  INI_PARMS ; read PARM02 : OK
(PID.TID 0000.0001)  INI_PARMS ; starts to read PARM03
(PID.TID 0000.0001)  INI_PARMS ; read PARM03 : OK
(PID.TID 0000.0001)  INI_PARMS ; starts to read PARM04
(PID.TID 0000.0001)  INI_PARMS ; read PARM04 : OK
(PID.TID 0000.0001)  INI_PARMS ; starts to read PARM05
(PID.TID 0000.0001)  INI_PARMS ; read PARM05 : OK
(PID.TID 0000.0001)  INI_PARMS: finished reading file "data"
(PID.TID 0000.0001)  PACKAGES_BOOT: opening data.pkg
(PID.TID 0000.0001)  OPEN_COPY_DATA_FILE: opening file data.pkg
(PID.TID 0000.0001) // =======================================================
(PID.TID 0000.0001) // Parameter file "data.pkg"
(PID.TID 0000.0001) // =======================================================
(PID.TID 0000.0001) ># Packages
(PID.TID 0000.0001) > &PACKAGES
(PID.TID 0000.0001) > useMNC=.TRUE.,
(PID.TID 0000.0001) > useShelfIce=.true.,
(PID.TID 0000.0001) > useGrdchk=.TRUE.,
(PID.TID 0000.0001) > /
(PID.TID 0000.0001) 
(PID.TID 0000.0001)  PACKAGES_BOOT: finished reading data.pkg
(PID.TID 0000.0001)  MNC_READPARMS: opening file 'data.mnc'
(PID.TID 0000.0001)  OPEN_COPY_DATA_FILE: opening file data.mnc
(PID.TID 0000.0001) // =======================================================
(PID.TID 0000.0001) // Parameter file "data.mnc"
(PID.TID 0000.0001) // =======================================================
(PID.TID 0000.0001) ># Example "data.mnc" file
(PID.TID 0000.0001) ># Lines beginning "#" are comments
(PID.TID 0000.0001) > &MNC_01
(PID.TID 0000.0001) ># mnc_echo_gvtypes=.FALSE.,
(PID.TID 0000.0001) ># mnc_use_indir=.FALSE.,
(PID.TID 0000.0001) > mnc_use_outdir=.TRUE.,
(PID.TID 0000.0001) > mnc_outdir_str='mnc_test_',
(PID.TID 0000.0001) >#mnc_outdir_date=.TRUE.,
(PID.TID 0000.0001) > monitor_mnc=.FALSE.,
(PID.TID 0000.0001) >#snapshot_mnc=.FALSE.,
(PID.TID 0000.0001) >#timeave_mnc=.FALSE.,
(PID.TID 0000.0001) > pickup_read_mnc=.FALSE.,
(PID.TID 0000.0001) > pickup_write_mnc=.FALSE.,
(PID.TID 0000.0001) > /
(PID.TID 0000.0001) ># Note: Some systems use & as the
(PID.TID 0000.0001) ># namelist terminator. Other systems
(PID.TID 0000.0001) ># use a / character (as shown here).
(PID.TID 0000.0001) 
(PID.TID 0000.0001)  MNC_READPARMS: finished reading data.mnc
(PID.TID 0000.0001)  SHELFICE_READPARMS: opening data.shelfice
(PID.TID 0000.0001)  OPEN_COPY_DATA_FILE: opening file data.shelfice
(PID.TID 0000.0001) // =======================================================
(PID.TID 0000.0001) // Parameter file "data.shelfice"
(PID.TID 0000.0001) // =======================================================
(PID.TID 0000.0001) ># ===================================
(PID.TID 0000.0001) ># | Parameters for SHELFICE package |
(PID.TID 0000.0001) ># ===================================
(PID.TID 0000.0001) > &SHELFICE_PARM01
(PID.TID 0000.0001) > SHELFICEboundaryLayer = .TRUE.,
(PID.TID 0000.0001) > SHELFICEtopoFile='icetopo.exp1',
(PID.TID 0000.0001) > SHELFICEloadAnomalyFile = 'phi0surf.exp1.jmd95z',
(PID.TID 0000.0001) > useISOMIPTD = .TRUE.,
(PID.TID 0000.0001) > no_slip_shelfice = .false.,
(PID.TID 0000.0001) > SHELFICEwriteState = .TRUE.,
(PID.TID 0000.0001) > /
(PID.TID 0000.0001) 
(PID.TID 0000.0001)  SHELFICE_READPARMS: finished reading data.shelfice
(PID.TID 0000.0001) OPTIM_READPARMS: opening data.optim
(PID.TID 0000.0001)  OPEN_COPY_DATA_FILE: opening file data.optim
(PID.TID 0000.0001) // =======================================================
(PID.TID 0000.0001) // Parameter file "data.optim"
(PID.TID 0000.0001) // =======================================================
(PID.TID 0000.0001) > &OPTIM
(PID.TID 0000.0001) > optimcycle=0,
(PID.TID 0000.0001) > /
(PID.TID 0000.0001) 
(PID.TID 0000.0001) OPTIM_READPARMS: finished reading data.optim
(PID.TID 0000.0001) CTRL_READPARMS: opening data.ctrl
(PID.TID 0000.0001)  OPEN_COPY_DATA_FILE: opening file data.ctrl
(PID.TID 0000.0001) // =======================================================
(PID.TID 0000.0001) // Parameter file "data.ctrl"
(PID.TID 0000.0001) // =======================================================
(PID.TID 0000.0001) >#
(PID.TID 0000.0001) >#
(PID.TID 0000.0001) ># *********************
(PID.TID 0000.0001) ># ECCO controlvariables
(PID.TID 0000.0001) ># *********************
(PID.TID 0000.0001) > &CTRL_NML
(PID.TID 0000.0001) > xx_theta_file      ='xx_theta',
(PID.TID 0000.0001) > xx_salt_file       ='xx_salt',
(PID.TID 0000.0001) >#
(PID.TID 0000.0001) > xx_hfluxstartdate1 = 19790101,
(PID.TID 0000.0001) > xx_hfluxstartdate2 = 000000,
(PID.TID 0000.0001) > xx_hfluxperiod     = 864000.0,
(PID.TID 0000.0001) > xx_hflux_file      = 'xx_hfl',
(PID.TID 0000.0001) >#
(PID.TID 0000.0001) > xx_sfluxstartdate1 = 19790101,
(PID.TID 0000.0001) > xx_sfluxstartdate2 = 000000,
(PID.TID 0000.0001) > xx_sfluxperiod     = 864000.0,
(PID.TID 0000.0001) > xx_sflux_file      = 'xx_sfl',
(PID.TID 0000.0001) >#
(PID.TID 0000.0001) > xx_tauustartdate1 = 19790101,
(PID.TID 0000.0001) > xx_tauustartdate2 = 000000,
(PID.TID 0000.0001) > xx_tauuperiod     = 864000.0,
(PID.TID 0000.0001) > xx_tauu_file      = 'xx_tauu',
(PID.TID 0000.0001) >#
(PID.TID 0000.0001) > xx_tauvstartdate1 = 19790101,
(PID.TID 0000.0001) > xx_tauvstartdate2 = 000000,
(PID.TID 0000.0001) > xx_tauvperiod     = 864000.0,
(PID.TID 0000.0001) > xx_tauv_file      = 'xx_tauv',
(PID.TID 0000.0001) >#
(PID.TID 0000.0001) > xx_atempstartdate1 = 19790101,
(PID.TID 0000.0001) > xx_atempstartdate2 = 000000,
(PID.TID 0000.0001) > xx_atempperiod     = 864000.0,
(PID.TID 0000.0001) > xx_atemp_file      = 'xx_atemp',
(PID.TID 0000.0001) >#
(PID.TID 0000.0001) > xx_aqhstartdate1 = 19790101,
(PID.TID 0000.0001) > xx_aqhstartdate2 = 000000,
(PID.TID 0000.0001) > xx_aqhperiod     = 864000.0,
(PID.TID 0000.0001) > xx_aqh_file      = 'xx_aqh',
(PID.TID 0000.0001) >#
(PID.TID 0000.0001) > xx_precipstartdate1 = 19790101,
(PID.TID 0000.0001) > xx_precipstartdate2 = 000000,
(PID.TID 0000.0001) > xx_precipperiod     = 864000.0,
(PID.TID 0000.0001) > xx_precip_file      = 'xx_precip',
(PID.TID 0000.0001) >#
(PID.TID 0000.0001) > xx_swdownstartdate1 = 19790101,
(PID.TID 0000.0001) > xx_swdownstartdate2 = 000000,
(PID.TID 0000.0001) > xx_swdownperiod     = 864000.0,
(PID.TID 0000.0001) > xx_swdown_file      = 'xx_swdown',
(PID.TID 0000.0001) >#
(PID.TID 0000.0001) > xx_uwindstartdate1 = 19790101,
(PID.TID 0000.0001) > xx_uwindstartdate2 = 000000,
(PID.TID 0000.0001) > xx_uwindperiod     = 864000.0,
(PID.TID 0000.0001) > xx_uwind_file      = 'xx_uwind',
(PID.TID 0000.0001) >#
(PID.TID 0000.0001) > xx_vwindstartdate1 = 19790101,
(PID.TID 0000.0001) > xx_vwindstartdate2 = 000000,
(PID.TID 0000.0001) > xx_vwindperiod     = 864000.0,
(PID.TID 0000.0001) > xx_vwind_file      = 'xx_vwind',
(PID.TID 0000.0001) >#
(PID.TID 0000.0001) > xx_sststartdate1 = 19790101,
(PID.TID 0000.0001) > xx_sststartdate2 = 000000,
(PID.TID 0000.0001) > xx_sstperiod     = 864000.0,
(PID.TID 0000.0001) > xx_sst_file      = 'xx_sst',
(PID.TID 0000.0001) >#
(PID.TID 0000.0001) > xx_sssstartdate1 = 19790101,
(PID.TID 0000.0001) > xx_sssstartdate2 = 000000,
(PID.TID 0000.0001) > xx_sssperiod     = 864000.0,
(PID.TID 0000.0001) > xx_sss_file      = 'xx_sss',
(PID.TID 0000.0001) > /
(PID.TID 0000.0001) >#
(PID.TID 0000.0001) ># *********************
(PID.TID 0000.0001) ># names for ctrl_pack/unpack
(PID.TID 0000.0001) ># *********************
(PID.TID 0000.0001) > &CTRL_PACKNAMES
(PID.TID 0000.0001) > /
(PID.TID 0000.0001) 
(PID.TID 0000.0001) CTRL_READPARMS: finished reading data.ctrl
(PID.TID 0000.0001) COST_READPARMS: opening data.cost
(PID.TID 0000.0001)  OPEN_COPY_DATA_FILE: opening file data.cost
(PID.TID 0000.0001) // =======================================================
(PID.TID 0000.0001) // Parameter file "data.cost"
(PID.TID 0000.0001) // =======================================================
(PID.TID 0000.0001) >#
(PID.TID 0000.0001) >#
(PID.TID 0000.0001) ># ******************
(PID.TID 0000.0001) ># cost function
(PID.TID 0000.0001) ># ******************
(PID.TID 0000.0001) > &COST_NML
(PID.TID 0000.0001) >#revert to default 1 month
(PID.TID 0000.0001) ># lastinterval=7776000.,
(PID.TID 0000.0001) > mult_test=1.,
(PID.TID 0000.0001) > /
(PID.TID 0000.0001) 
(PID.TID 0000.0001) COST_READPARMS: finished reading data.cost
(PID.TID 0000.0001) GRDCHK_READPARMS: opening data.grdchk
(PID.TID 0000.0001)  OPEN_COPY_DATA_FILE: opening file data.grdchk
(PID.TID 0000.0001) // =======================================================
(PID.TID 0000.0001) // Parameter file "data.grdchk"
(PID.TID 0000.0001) // =======================================================
(PID.TID 0000.0001) ># *******************
(PID.TID 0000.0001) ># ECCO gradient check
(PID.TID 0000.0001) ># *******************
(PID.TID 0000.0001) > &GRDCHK_NML
(PID.TID 0000.0001) > grdchk_eps       = 1.d-2,
(PID.TID 0000.0001) >  iglopos         = 20,
(PID.TID 0000.0001) >  jglopos         = 24,
(PID.TID 0000.0001) >  kglopos         = 20,
(PID.TID 0000.0001) ># nbeg             = 1,
(PID.TID 0000.0001) > nstep            = 1,
(PID.TID 0000.0001) > nend             = 4,
(PID.TID 0000.0001) > grdchkvarindex   = 1,
(PID.TID 0000.0001) > /
(PID.TID 0000.0001) 
(PID.TID 0000.0001) GRDCHK_READPARMS: finished reading data.grdchk
(PID.TID 0000.0001) 
(PID.TID 0000.0001) // =======================================================
(PID.TID 0000.0001) // Gradient check configuration  >>> START <<<
(PID.TID 0000.0001) // =======================================================
(PID.TID 0000.0001) 
(PID.TID 0000.0001)   eps:                              0.100E-01
(PID.TID 0000.0001)   First location:                           0
(PID.TID 0000.0001)   Last location:                            4
(PID.TID 0000.0001)   Increment:                                1
(PID.TID 0000.0001)   grdchkWhichProc:                          0
(PID.TID 0000.0001)   iLocTile =       1  ,    jLocTile =       1
(PID.TID 0000.0001) 
(PID.TID 0000.0001) // =======================================================
(PID.TID 0000.0001) // Gradient check configuration  >>> END <<<
(PID.TID 0000.0001) // =======================================================
(PID.TID 0000.0001) 
(PID.TID 0000.0001) SET_PARMS: done
(PID.TID 0000.0001) Enter INI_VERTICAL_GRID: setInterFDr=    T ; setCenterDr=    F
(PID.TID 0000.0001) %MON XC_max                       =   1.4850000000000E+01
(PID.TID 0000.0001) %MON XC_min                       =   1.5000000000000E-01
(PID.TID 0000.0001) %MON XC_mean                      =   7.5000000000000E+00
(PID.TID 0000.0001) %MON XC_sd                        =   4.3292609068985E+00
(PID.TID 0000.0001) %MON XG_max                       =   1.4700000000000E+01
(PID.TID 0000.0001) %MON XG_min                       =   1.1102230246252E-16
(PID.TID 0000.0001) %MON XG_mean                      =   7.3500000000000E+00
(PID.TID 0000.0001) %MON XG_sd                        =   4.3292609068985E+00
(PID.TID 0000.0001) %MON DXC_max                      =   1.1380125394806E+04
(PID.TID 0000.0001) %MON DXC_min                      =   5.8203914905589E+03
(PID.TID 0000.0001) %MON DXC_mean                     =   8.6215028627210E+03
(PID.TID 0000.0001) %MON DXC_sd                       =   1.6219001271572E+03
(PID.TID 0000.0001) %MON DXF_max                      =   1.1380125394806E+04
(PID.TID 0000.0001) %MON DXF_min                      =   5.8203914905589E+03
(PID.TID 0000.0001) %MON DXF_mean                     =   8.6215028627210E+03
(PID.TID 0000.0001) %MON DXF_sd                       =   1.6219001271572E+03
(PID.TID 0000.0001) %MON DXG_max                      =   1.1352761512017E+04
(PID.TID 0000.0001) %MON DXG_min                      =   5.7917296935586E+03
(PID.TID 0000.0001) %MON DXG_mean                     =   8.5934208253080E+03
(PID.TID 0000.0001) %MON DXG_sd                       =   1.6222785520817E+03
(PID.TID 0000.0001) %MON DXV_max                      =   1.1352761512017E+04
(PID.TID 0000.0001) %MON DXV_min                      =   5.7917296935586E+03
(PID.TID 0000.0001) %MON DXV_mean                     =   8.5934208253080E+03
(PID.TID 0000.0001) %MON DXV_sd                       =   1.6222785520817E+03
(PID.TID 0000.0001) %MON YC_max                       =  -7.0050000000001E+01
(PID.TID 0000.0001) %MON YC_min                       =  -7.9950000000000E+01
(PID.TID 0000.0001) %MON YC_mean                      =  -7.5000000000000E+01
(PID.TID 0000.0001) %MON YC_sd                        =   2.8866070047720E+00
(PID.TID 0000.0001) %MON YG_max                       =  -7.0100000000001E+01
(PID.TID 0000.0001) %MON YG_min                       =  -8.0000000000000E+01
(PID.TID 0000.0001) %MON YG_mean                      =  -7.5050000000000E+01
(PID.TID 0000.0001) %MON YG_sd                        =   2.8866070047720E+00
(PID.TID 0000.0001) %MON DYC_max                      =   1.1117747335204E+04
(PID.TID 0000.0001) %MON DYC_min                      =   1.1117747335204E+04
(PID.TID 0000.0001) %MON DYC_mean                     =   1.1117747335203E+04
(PID.TID 0000.0001) %MON DYC_sd                       =   7.4760464485735E-10
(PID.TID 0000.0001) %MON DYF_max                      =   1.1117747335204E+04
(PID.TID 0000.0001) %MON DYF_min                      =   1.1117747335204E+04
(PID.TID 0000.0001) %MON DYF_mean                     =   1.1117747335203E+04
(PID.TID 0000.0001) %MON DYF_sd                       =   7.4760464485735E-10
(PID.TID 0000.0001) %MON DYG_max                      =   1.1117747335204E+04
(PID.TID 0000.0001) %MON DYG_min                      =   1.1117747335204E+04
(PID.TID 0000.0001) %MON DYG_mean                     =   1.1117747335203E+04
(PID.TID 0000.0001) %MON DYG_sd                       =   7.4760464485735E-10
(PID.TID 0000.0001) %MON DYU_max                      =   1.1117747335204E+04
(PID.TID 0000.0001) %MON DYU_min                      =   1.1117747335204E+04
(PID.TID 0000.0001) %MON DYU_mean                     =   1.1117747335203E+04
(PID.TID 0000.0001) %MON DYU_sd                       =   7.4760464485735E-10
(PID.TID 0000.0001) %MON RA_max                       =   1.2652134272379E+08
(PID.TID 0000.0001) %MON RA_min                       =   6.4709633770803E+07
(PID.TID 0000.0001) %MON RA_mean                      =   9.5851678311588E+07
(PID.TID 0000.0001) %MON RA_sd                        =   1.8031873527992E+07
(PID.TID 0000.0001) %MON RAW_max                      =   1.2652134272379E+08
(PID.TID 0000.0001) %MON RAW_min                      =   6.4709633770803E+07
(PID.TID 0000.0001) %MON RAW_mean                     =   9.5851678311588E+07
(PID.TID 0000.0001) %MON RAW_sd                       =   1.8031873527992E+07
(PID.TID 0000.0001) %MON RAS_max                      =   1.2621711802744E+08
(PID.TID 0000.0001) %MON RAS_min                      =   6.4390979194019E+07
(PID.TID 0000.0001) %MON RAS_mean                     =   9.5539469354601E+07
(PID.TID 0000.0001) %MON RAS_sd                       =   1.8036080760153E+07
(PID.TID 0000.0001) %MON RAZ_max                      =   1.2621711802744E+08
(PID.TID 0000.0001) %MON RAZ_min                      =   6.4390979194019E+07
(PID.TID 0000.0001) %MON RAZ_mean                     =   9.5539469354601E+07
(PID.TID 0000.0001) %MON RAZ_sd                       =   1.8036080760153E+07
(PID.TID 0000.0001) %MON AngleCS_max                  =   1.0000000000000E+00
(PID.TID 0000.0001) %MON AngleCS_min                  =   1.0000000000000E+00
(PID.TID 0000.0001) %MON AngleCS_mean                 =   1.0000000000000E+00
(PID.TID 0000.0001) %MON AngleCS_sd                   =   0.0000000000000E+00
(PID.TID 0000.0001) %MON AngleSN_max                  =   0.0000000000000E+00
(PID.TID 0000.0001) %MON AngleSN_min                  =   0.0000000000000E+00
(PID.TID 0000.0001) %MON AngleSN_mean                 =   0.0000000000000E+00
(PID.TID 0000.0001) %MON AngleSN_sd                   =   0.0000000000000E+00
(PID.TID 0000.0001) GAD_INIT_FIXED: GAD_OlMinSize=  1  0  1
(PID.TID 0000.0001) 
(PID.TID 0000.0001) // ===================================
(PID.TID 0000.0001) // GAD parameters :
(PID.TID 0000.0001) // ===================================
(PID.TID 0000.0001) tempAdvScheme =   /* Temp. Horiz.Advection scheme selector */
(PID.TID 0000.0001)                       2
(PID.TID 0000.0001)     ;
(PID.TID 0000.0001) tempVertAdvScheme =   /* Temp. Vert. Advection scheme selector */
(PID.TID 0000.0001)                       2
(PID.TID 0000.0001)     ;
(PID.TID 0000.0001) tempMultiDimAdvec =   /* use Muti-Dim Advec method for Temp */
(PID.TID 0000.0001)                   F
(PID.TID 0000.0001)     ;
(PID.TID 0000.0001) tempSOM_Advection = /* use 2nd Order Moment Advection for Temp */
(PID.TID 0000.0001)                   F
(PID.TID 0000.0001)     ;
(PID.TID 0000.0001) AdamsBashforthGt = /* apply Adams-Bashforth extrapolation on Gt */
(PID.TID 0000.0001)                   T
(PID.TID 0000.0001)     ;
(PID.TID 0000.0001) AdamsBashforth_T = /* apply Adams-Bashforth extrapolation on Temp */
(PID.TID 0000.0001)                   F
(PID.TID 0000.0001)     ;
(PID.TID 0000.0001) saltAdvScheme =   /* Salt. Horiz.advection scheme selector */
(PID.TID 0000.0001)                       2
(PID.TID 0000.0001)     ;
(PID.TID 0000.0001) saltVertAdvScheme =   /* Salt. Vert. Advection scheme selector */
(PID.TID 0000.0001)                       2
(PID.TID 0000.0001)     ;
(PID.TID 0000.0001) saltMultiDimAdvec =   /* use Muti-Dim Advec method for Salt */
(PID.TID 0000.0001)                   F
(PID.TID 0000.0001)     ;
(PID.TID 0000.0001) saltSOM_Advection = /* use 2nd Order Moment Advection for Salt */
(PID.TID 0000.0001)                   F
(PID.TID 0000.0001)     ;
(PID.TID 0000.0001) AdamsBashforthGs = /* apply Adams-Bashforth extrapolation on Gs */
(PID.TID 0000.0001)                   T
(PID.TID 0000.0001)     ;
(PID.TID 0000.0001) AdamsBashforth_S = /* apply Adams-Bashforth extrapolation on Salt */
(PID.TID 0000.0001)                   F
(PID.TID 0000.0001)     ;
(PID.TID 0000.0001) // ===================================
(PID.TID 0000.0001) ctrl-wet 1:    nvarlength =       306642
(PID.TID 0000.0001) ctrl-wet 2: surface wet C =            0
(PID.TID 0000.0001) ctrl-wet 3: surface wet W =            0
(PID.TID 0000.0001) ctrl-wet 4: surface wet S =            0
(PID.TID 0000.0001) ctrl-wet 4a:surface wet V =            0
(PID.TID 0000.0001) ctrl-wet 5: 3D wet points =       100597
(PID.TID 0000.0001) ctrl-wet 6: no recs for i =     1           1
(PID.TID 0000.0001) ctrl-wet 6: no recs for i =     2           1
(PID.TID 0000.0001) ctrl-wet 6: no recs for i =     3           0
(PID.TID 0000.0001) ctrl-wet 6: no recs for i =     4           0
(PID.TID 0000.0001) ctrl-wet 6: no recs for i =     5           0
(PID.TID 0000.0001) ctrl-wet 6: no recs for i =     6           0
(PID.TID 0000.0001) ctrl-wet 6: no recs for i =     7           0
(PID.TID 0000.0001) ctrl-wet 6: no recs for i =     8           0
(PID.TID 0000.0001) ctrl-wet 6: no recs for i =     9           0
(PID.TID 0000.0001) ctrl-wet 6: no recs for i =    10           0
(PID.TID 0000.0001) ctrl-wet 6: no recs for i =    11           0
(PID.TID 0000.0001) ctrl-wet 6: no recs for i =    12           0
(PID.TID 0000.0001) ctrl-wet 6: no recs for i =    13           0
(PID.TID 0000.0001) ctrl-wet 6: no recs for i =    14           0
(PID.TID 0000.0001) ctrl-wet 6: no recs for i =    15           1
(PID.TID 0000.0001) ctrl-wet 6: no recs for i =    16           0
(PID.TID 0000.0001) ctrl-wet 6: no recs for i =    17           0
(PID.TID 0000.0001) ctrl-wet 6: no recs for i =    18           0
(PID.TID 0000.0001) ctrl-wet 6: no recs for i =    19           0
(PID.TID 0000.0001) ctrl-wet 6: no recs for i =    20           0
(PID.TID 0000.0001) ctrl-wet 6: no recs for i =    21           0
(PID.TID 0000.0001) ctrl-wet 6: no recs for i =    22           0
(PID.TID 0000.0001) ctrl-wet 6: no recs for i =    23           0
(PID.TID 0000.0001) ctrl-wet 6: no recs for i =    24           0
(PID.TID 0000.0001) ctrl-wet 6: no recs for i =    25           0
(PID.TID 0000.0001) ctrl-wet 6: no recs for i =    26           0
(PID.TID 0000.0001) ctrl-wet 6: no recs for i =    27           0
(PID.TID 0000.0001) ctrl-wet 6: no recs for i =    28           0
(PID.TID 0000.0001) ctrl-wet 6: no recs for i =    29           0
(PID.TID 0000.0001) ctrl-wet 6: no recs for i =    30           0
(PID.TID 0000.0001) ctrl-wet 6: no recs for i =    31           0
(PID.TID 0000.0001) ctrl-wet 6: no recs for i =    32           0
(PID.TID 0000.0001) ctrl-wet 6: no recs for i =    33           0
(PID.TID 0000.0001) ctrl-wet 6: no recs for i =    34           0
(PID.TID 0000.0001) ctrl-wet 6: no recs for i =    35           0
(PID.TID 0000.0001) ctrl-wet 6: no recs for i =    36           0
(PID.TID 0000.0001) ctrl-wet 6: no recs for i =    37           0
(PID.TID 0000.0001) ctrl-wet 6: no recs for i =    38           0
(PID.TID 0000.0001) ctrl-wet 6: no recs for i =    39           0
(PID.TID 0000.0001) ctrl-wet 6: no recs for i =    40           0
(PID.TID 0000.0001) ctrl-wet 6: no recs for i =    41           0
(PID.TID 0000.0001) ctrl-wet 6: no recs for i =    42           0
(PID.TID 0000.0001) ctrl-wet 6: no recs for i =    43           0
(PID.TID 0000.0001) ctrl-wet 6: no recs for i =    44           0
(PID.TID 0000.0001) ctrl-wet 6: no recs for i =    45           1
(PID.TID 0000.0001) ctrl-wet 6: no recs for i =    46           0
(PID.TID 0000.0001) ctrl-wet 6: no recs for i =    47           0
(PID.TID 0000.0001) ctrl-wet 6: no recs for i =    48           0
(PID.TID 0000.0001) ctrl-wet 6: no recs for i =    49           0
(PID.TID 0000.0001) ctrl-wet 6: no recs for i =    50           0
(PID.TID 0000.0001) ctrl-wet 6: no recs for i =    51           0
(PID.TID 0000.0001) ctrl-wet 6: no recs for i =    52           0
(PID.TID 0000.0001) ctrl-wet 6: no recs for i =    53           0
(PID.TID 0000.0001) ctrl-wet 6: no recs for i =    54           0
(PID.TID 0000.0001) ctrl-wet 6: no recs for i =    55           0
(PID.TID 0000.0001) ctrl-wet 6: no recs for i =    56           0
(PID.TID 0000.0001) ctrl-wet 6: no recs for i =    57           0
(PID.TID 0000.0001) ctrl-wet 6: no recs for i =    58           0
(PID.TID 0000.0001) ctrl-wet 6: no recs for i =    59           0
(PID.TID 0000.0001) ctrl-wet 6: no recs for i =    60           0
(PID.TID 0000.0001) ctrl-wet 7: flux        201194
(PID.TID 0000.0001) ctrl-wet 8: atmos       201194
(PID.TID 0000.0001) ctrl-wet -------------------------------------------------
(PID.TID 0000.0001) ctrl-wet 13: global nvarlength for Nr =   30      306642
(PID.TID 0000.0001) ctrl-wet -------------------------------------------------
(PID.TID 0000.0001) ctrl-wet 14: global nWet C/S/W/V k=    1           0           0           0           0
(PID.TID 0000.0001) ctrl-wet 14: global nWet C/S/W/V k=    2           0           0           0           0
(PID.TID 0000.0001) ctrl-wet 14: global nWet C/S/W/V k=    3           0           0           0           0
(PID.TID 0000.0001) ctrl-wet 14: global nWet C/S/W/V k=    4           0           0           0           0
(PID.TID 0000.0001) ctrl-wet 14: global nWet C/S/W/V k=    5           0           0           0           0
(PID.TID 0000.0001) ctrl-wet 14: global nWet C/S/W/V k=    6           0           0           0           0
(PID.TID 0000.0001) ctrl-wet 14: global nWet C/S/W/V k=    7        2989        2940        2928           0
(PID.TID 0000.0001) ctrl-wet 14: global nWet C/S/W/V k=    8        3087        3038        3024           0
(PID.TID 0000.0001) ctrl-wet 14: global nWet C/S/W/V k=    9        3234        3185        3168           0
(PID.TID 0000.0001) ctrl-wet 14: global nWet C/S/W/V k=   10        3332        3283        3264           0
(PID.TID 0000.0001) ctrl-wet 14: global nWet C/S/W/V k=   11        3430        3381        3360           0
(PID.TID 0000.0001) ctrl-wet 14: global nWet C/S/W/V k=   12        3577        3528        3504           0
(PID.TID 0000.0001) ctrl-wet 14: global nWet C/S/W/V k=   13        3675        3626        3600           0
(PID.TID 0000.0001) ctrl-wet 14: global nWet C/S/W/V k=   14        3822        3773        3744           0
(PID.TID 0000.0001) ctrl-wet 14: global nWet C/S/W/V k=   15        3920        3871        3840           0
(PID.TID 0000.0001) ctrl-wet 14: global nWet C/S/W/V k=   16        4018        3969        3936           0
(PID.TID 0000.0001) ctrl-wet 14: global nWet C/S/W/V k=   17        4165        4116        4080           0
(PID.TID 0000.0001) ctrl-wet 14: global nWet C/S/W/V k=   18        4263        4214        4176           0
(PID.TID 0000.0001) ctrl-wet 14: global nWet C/S/W/V k=   19        4410        4361        4320           0
(PID.TID 0000.0001) ctrl-wet 14: global nWet C/S/W/V k=   20        4508        4459        4416           0
(PID.TID 0000.0001) ctrl-wet 14: global nWet C/S/W/V k=   21        4606        4557        4512           0
(PID.TID 0000.0001) ctrl-wet 14: global nWet C/S/W/V k=   22        4753        4704        4656           0
(PID.TID 0000.0001) ctrl-wet 14: global nWet C/S/W/V k=   23        4851        4802        4752           0
(PID.TID 0000.0001) ctrl-wet 14: global nWet C/S/W/V k=   24        4851        4802        4752           0
(PID.TID 0000.0001) ctrl-wet 14: global nWet C/S/W/V k=   25        4851        4802        4752           0
(PID.TID 0000.0001) ctrl-wet 14: global nWet C/S/W/V k=   26        4851        4802        4752           0
(PID.TID 0000.0001) ctrl-wet 14: global nWet C/S/W/V k=   27        4851        4802        4752           0
(PID.TID 0000.0001) ctrl-wet 14: global nWet C/S/W/V k=   28        4851        4802        4752           0
(PID.TID 0000.0001) ctrl-wet 14: global nWet C/S/W/V k=   29        4851        4802        4752           0
(PID.TID 0000.0001) ctrl-wet 14: global nWet C/S/W/V k=   30        4851        4802        4752           0
(PID.TID 0000.0001) ctrl-wet -------------------------------------------------
(PID.TID 0000.0001) ctrl-wet -------------------------------------------------
(PID.TID 0000.0001) ctrl-wet -------------------------------------------------
(PID.TID 0000.0001) ctrl-wet 17a:surface wet I =         4851
(PID.TID 0000.0001) ctrl-wet 17b: global nWet I k=    1        4851
(PID.TID 0000.0001) ctrl-wet 17b: global nWet I k=    2           0
(PID.TID 0000.0001) ctrl-wet 17b: global nWet I k=    3           0
(PID.TID 0000.0001) ctrl-wet 17b: global nWet I k=    4           0
(PID.TID 0000.0001) ctrl-wet 17b: global nWet I k=    5           0
(PID.TID 0000.0001) ctrl-wet 17b: global nWet I k=    6           0
(PID.TID 0000.0001) ctrl-wet 17b: global nWet I k=    7        2989
(PID.TID 0000.0001) ctrl-wet 17b: global nWet I k=    8        3087
(PID.TID 0000.0001) ctrl-wet 17b: global nWet I k=    9        3234
(PID.TID 0000.0001) ctrl-wet 17b: global nWet I k=   10        3332
(PID.TID 0000.0001) ctrl-wet 17b: global nWet I k=   11        3430
(PID.TID 0000.0001) ctrl-wet 17b: global nWet I k=   12        3577
(PID.TID 0000.0001) ctrl-wet 17b: global nWet I k=   13        3675
(PID.TID 0000.0001) ctrl-wet 17b: global nWet I k=   14        3822
(PID.TID 0000.0001) ctrl-wet 17b: global nWet I k=   15        3920
(PID.TID 0000.0001) ctrl-wet 17b: global nWet I k=   16        4018
(PID.TID 0000.0001) ctrl-wet 17b: global nWet I k=   17        4165
(PID.TID 0000.0001) ctrl-wet 17b: global nWet I k=   18        4263
(PID.TID 0000.0001) ctrl-wet 17b: global nWet I k=   19        4410
(PID.TID 0000.0001) ctrl-wet 17b: global nWet I k=   20        4508
(PID.TID 0000.0001) ctrl-wet 17b: global nWet I k=   21        4606
(PID.TID 0000.0001) ctrl-wet 17b: global nWet I k=   22        4753
(PID.TID 0000.0001) ctrl-wet 17b: global nWet I k=   23        4851
(PID.TID 0000.0001) ctrl-wet 17b: global nWet I k=   24        4851
(PID.TID 0000.0001) ctrl-wet 17b: global nWet I k=   25        4851
(PID.TID 0000.0001) ctrl-wet 17b: global nWet I k=   26        4851
(PID.TID 0000.0001) ctrl-wet 17b: global nWet I k=   27        4851
(PID.TID 0000.0001) ctrl-wet 17b: global nWet I k=   28        4851
(PID.TID 0000.0001) ctrl-wet 17b: global nWet I k=   29        4851
(PID.TID 0000.0001) ctrl-wet 17b: global nWet I k=   30        4851
(PID.TID 0000.0001) ctrl-wet 17c: global SUM(K) shifwflx         4851
(PID.TID 0000.0001) ctrl-wet -------------------------------------------------
(PID.TID 0000.0001) ctrl_init: no. of control variables:            4
(PID.TID 0000.0001) ctrl_init: control vector length:          306642
(PID.TID 0000.0001) %MON fCori_max                    =  -1.3709057042516E-04
(PID.TID 0000.0001) %MON fCori_min                    =  -1.4360464034757E-04
(PID.TID 0000.0001) %MON fCori_mean                   =  -1.4069429304699E-04
(PID.TID 0000.0001) %MON fCori_sd                     =   1.9069739624987E-06
(PID.TID 0000.0001) %MON fCoriG_max                   =  -1.3713394327439E-04
(PID.TID 0000.0001) %MON fCoriG_min                   =  -1.4362679550910E-04
(PID.TID 0000.0001) %MON fCoriG_mean                  =  -1.4072713798624E-04
(PID.TID 0000.0001) %MON fCoriG_sd                    =   1.9008093726821E-06
(PID.TID 0000.0001) %MON fCoriCos_max                 =   4.9761447480159E-05
(PID.TID 0000.0001) %MON fCoriCos_min                 =   2.5450607565678E-05
(PID.TID 0000.0001) %MON fCoriCos_mean                =   3.7698922201606E-05
(PID.TID 0000.0001) %MON fCoriCos_sd                  =   7.0920218535055E-06
(PID.TID 0000.0001) INI_CG2D: CG2D normalisation factor =  1.0404366262810520E-03
(PID.TID 0000.0001) 
(PID.TID 0000.0001) // =======================================================
(PID.TID 0000.0001) // Model configuration
(PID.TID 0000.0001) // =======================================================
(PID.TID 0000.0001) //
(PID.TID 0000.0001) // "Physical" paramters ( PARM01 in namelist )
(PID.TID 0000.0001) //
(PID.TID 0000.0001) buoyancyRelation = /* Type of relation to get Buoyancy */
(PID.TID 0000.0001)               'OCEANIC'
(PID.TID 0000.0001)     ;
(PID.TID 0000.0001) fluidIsAir   =  /* fluid major constituent is Air */
(PID.TID 0000.0001)                   F
(PID.TID 0000.0001)     ;
(PID.TID 0000.0001) fluidIsWater =  /* fluid major constituent is Water */
(PID.TID 0000.0001)                   T
(PID.TID 0000.0001)     ;
(PID.TID 0000.0001) usingPCoords =  /* use p (or p*) vertical coordinate */
(PID.TID 0000.0001)                   F
(PID.TID 0000.0001)     ;
(PID.TID 0000.0001) usingZCoords =  /* use z (or z*) vertical coordinate */
(PID.TID 0000.0001)                   T
(PID.TID 0000.0001)     ;
(PID.TID 0000.0001) tRef =   /* Reference temperature profile ( oC or K ) */
(PID.TID 0000.0001)    30 @ -1.900000000000000E+00              /* K =  1: 30 */
(PID.TID 0000.0001)     ;
(PID.TID 0000.0001) sRef =   /* Reference salinity profile ( psu ) */
(PID.TID 0000.0001)    30 @  3.440000000000000E+01              /* K =  1: 30 */
(PID.TID 0000.0001)     ;
(PID.TID 0000.0001) viscAh  =   /* Lateral eddy viscosity ( m^2/s ) */
(PID.TID 0000.0001)                 6.000000000000000E+02
(PID.TID 0000.0001)     ;
(PID.TID 0000.0001) viscAhMax = /* Maximum lateral eddy viscosity ( m^2/s ) */
(PID.TID 0000.0001)                 1.000000000000000E+21
(PID.TID 0000.0001)     ;
(PID.TID 0000.0001) viscAhGrid = /* Grid dependent lateral eddy viscosity ( non-dim. ) */
(PID.TID 0000.0001)                 0.000000000000000E+00
(PID.TID 0000.0001)     ;
(PID.TID 0000.0001) useFullLeith = /* Use Full Form of Leith Viscosity on/off flag*/
(PID.TID 0000.0001)                   F
(PID.TID 0000.0001)     ;
(PID.TID 0000.0001) useStrainTensionVisc= /* Use StrainTension Form of Viscous Operator flag*/
(PID.TID 0000.0001)                   F
(PID.TID 0000.0001)     ;
(PID.TID 0000.0001) useAreaViscLength = /* Use area for visc length instead of geom. mean*/
(PID.TID 0000.0001)                   F
(PID.TID 0000.0001)     ;
(PID.TID 0000.0001) viscC2leith = /* Leith harmonic visc. factor (on grad(vort),non-dim.) */
(PID.TID 0000.0001)                 0.000000000000000E+00
(PID.TID 0000.0001)     ;
(PID.TID 0000.0001) viscC2leithD = /* Leith harmonic viscosity factor (on grad(div),non-dim.)*/
(PID.TID 0000.0001)                 0.000000000000000E+00
(PID.TID 0000.0001)     ;
(PID.TID 0000.0001) viscC2smag = /* Smagorinsky harmonic viscosity factor (non-dim.) */
(PID.TID 0000.0001)                 0.000000000000000E+00
(PID.TID 0000.0001)     ;
(PID.TID 0000.0001) viscA4  =   /* Lateral biharmonic viscosity ( m^4/s ) */
(PID.TID 0000.0001)                 0.000000000000000E+00
(PID.TID 0000.0001)     ;
(PID.TID 0000.0001) viscA4Max = /* Maximum biharmonic viscosity ( m^2/s ) */
(PID.TID 0000.0001)                 1.000000000000000E+21
(PID.TID 0000.0001)     ;
(PID.TID 0000.0001) viscA4Grid = /* Grid dependent biharmonic viscosity ( non-dim. ) */
(PID.TID 0000.0001)                 0.000000000000000E+00
(PID.TID 0000.0001)     ;
(PID.TID 0000.0001) viscC4leith = /* Leith biharm viscosity factor (on grad(vort), non-dim.)*/
(PID.TID 0000.0001)                 0.000000000000000E+00
(PID.TID 0000.0001)     ;
(PID.TID 0000.0001) viscC4leithD = /* Leith biharm viscosity factor (on grad(div), non-dim.) */
(PID.TID 0000.0001)                 0.000000000000000E+00
(PID.TID 0000.0001)     ;
(PID.TID 0000.0001) viscC4Smag = /* Smagorinsky biharm viscosity factor (non-dim) */
(PID.TID 0000.0001)                 0.000000000000000E+00
(PID.TID 0000.0001)     ;
(PID.TID 0000.0001) no_slip_sides =  /* Viscous BCs: No-slip sides */
(PID.TID 0000.0001)                   F
(PID.TID 0000.0001)     ;
(PID.TID 0000.0001) sideDragFactor = /* side-drag scaling factor (non-dim) */
(PID.TID 0000.0001)                 2.000000000000000E+00
(PID.TID 0000.0001)     ;
(PID.TID 0000.0001) viscArNr = /* vertical profile of vertical viscosity ( m^2/s )*/
(PID.TID 0000.0001)    30 @  1.000000000000000E-03              /* K =  1: 30 */
(PID.TID 0000.0001)     ;
(PID.TID 0000.0001) no_slip_bottom =  /* Viscous BCs: No-slip bottom */
(PID.TID 0000.0001)                   F
(PID.TID 0000.0001)     ;
(PID.TID 0000.0001) bottomDragLinear = /* linear bottom-drag coefficient ( m/s ) */
(PID.TID 0000.0001)                 0.000000000000000E+00
(PID.TID 0000.0001)     ;
(PID.TID 0000.0001) bottomDragQuadratic = /* quadratic bottom-drag coefficient (-) */
(PID.TID 0000.0001)                 2.500000000000000E-03
(PID.TID 0000.0001)     ;
(PID.TID 0000.0001) diffKhT =   /* Laplacian diffusion of heat laterally ( m^2/s ) */
(PID.TID 0000.0001)                 1.000000000000000E+02
(PID.TID 0000.0001)     ;
(PID.TID 0000.0001) diffK4T =   /* Biharmonic diffusion of heat laterally ( m^4/s ) */
(PID.TID 0000.0001)                 0.000000000000000E+00
(PID.TID 0000.0001)     ;
(PID.TID 0000.0001) diffKhS =   /* Laplacian diffusion of salt laterally ( m^2/s ) */
(PID.TID 0000.0001)                 1.000000000000000E+02
(PID.TID 0000.0001)     ;
(PID.TID 0000.0001) diffK4S =   /* Biharmonic diffusion of salt laterally ( m^4/s ) */
(PID.TID 0000.0001)                 0.000000000000000E+00
(PID.TID 0000.0001)     ;
(PID.TID 0000.0001) diffKrNrT = /* vertical profile of vertical diffusion of Temp ( m^2/s )*/
(PID.TID 0000.0001)    30 @  5.000000000000000E-05              /* K =  1: 30 */
(PID.TID 0000.0001)     ;
(PID.TID 0000.0001) diffKrNrS = /* vertical profile of vertical diffusion of Salt ( m^2/s )*/
(PID.TID 0000.0001)    30 @  5.000000000000000E-05              /* K =  1: 30 */
(PID.TID 0000.0001)     ;
(PID.TID 0000.0001) diffKrBL79surf = /* Surface diffusion for Bryan and Lewis 79 ( m^2/s ) */
(PID.TID 0000.0001)                 0.000000000000000E+00
(PID.TID 0000.0001)     ;
(PID.TID 0000.0001) diffKrBL79deep = /* Deep diffusion for Bryan and Lewis 1979 ( m^2/s ) */
(PID.TID 0000.0001)                 0.000000000000000E+00
(PID.TID 0000.0001)     ;
(PID.TID 0000.0001) diffKrBL79scl = /* Depth scale for Bryan and Lewis 1979 ( m ) */
(PID.TID 0000.0001)                 2.000000000000000E+02
(PID.TID 0000.0001)     ;
(PID.TID 0000.0001) diffKrBL79Ho = /* Turning depth for Bryan and Lewis 1979 ( m ) */
(PID.TID 0000.0001)                -2.000000000000000E+03
(PID.TID 0000.0001)     ;
(PID.TID 0000.0001) ivdc_kappa = /* Implicit Vertical Diffusivity for Convection ( m^2/s) */
(PID.TID 0000.0001)                 0.000000000000000E+00
(PID.TID 0000.0001)     ;
(PID.TID 0000.0001) hMixCriteria=  /* Criteria for mixed-layer diagnostic */
(PID.TID 0000.0001)                -8.000000000000000E-01
(PID.TID 0000.0001)     ;
(PID.TID 0000.0001) dRhoSmall =  /* Parameter for mixed-layer diagnostic */
(PID.TID 0000.0001)                 1.000000000000000E-06
(PID.TID 0000.0001)     ;
(PID.TID 0000.0001) hMixSmooth=  /* Smoothing parameter for mixed-layer diagnostic */
(PID.TID 0000.0001)                 0.000000000000000E+00
(PID.TID 0000.0001)     ;
(PID.TID 0000.0001) eosType =  /* Type of Equation of State */
(PID.TID 0000.0001)               'JMD95Z'
(PID.TID 0000.0001)     ;
(PID.TID 0000.0001) celsius2K = /* 0 degree Celsius converted to Kelvin ( K ) */
(PID.TID 0000.0001)                 2.731500000000000E+02
(PID.TID 0000.0001)     ;
(PID.TID 0000.0001) rhoConst  = /* Reference density (Boussinesq)  ( kg/m^3 ) */
(PID.TID 0000.0001)                 1.030000000000000E+03
(PID.TID 0000.0001)     ;
(PID.TID 0000.0001) rhoFacC = /* normalized Reference density @ cell-Center (-) */
(PID.TID 0000.0001)    30 @  1.000000000000000E+00              /* K =  1: 30 */
(PID.TID 0000.0001)     ;
(PID.TID 0000.0001) rhoFacF = /* normalized Reference density @ W-Interface (-) */
(PID.TID 0000.0001)    31 @  1.000000000000000E+00              /* K =  1: 31 */
(PID.TID 0000.0001)     ;
(PID.TID 0000.0001) rhoConstFresh = /* Fresh-water reference density ( kg/m^3 ) */
(PID.TID 0000.0001)                 1.030000000000000E+03
(PID.TID 0000.0001)     ;
(PID.TID 0000.0001) gravity =   /* Gravitational acceleration ( m/s^2 ) */
(PID.TID 0000.0001)                 9.810000000000000E+00
(PID.TID 0000.0001)     ;
(PID.TID 0000.0001) gBaro =   /* Barotropic gravity ( m/s^2 ) */
(PID.TID 0000.0001)                 9.810000000000000E+00
(PID.TID 0000.0001)     ;
(PID.TID 0000.0001) rotationPeriod =   /* Rotation Period ( s ) */
(PID.TID 0000.0001)                 8.616400000000000E+04
(PID.TID 0000.0001)     ;
(PID.TID 0000.0001) omega =   /* Angular velocity ( rad/s ) */
(PID.TID 0000.0001)                 7.292123516990375E-05
(PID.TID 0000.0001)     ;
(PID.TID 0000.0001) f0 =   /* Reference coriolis parameter ( 1/s ) */
(PID.TID 0000.0001)                 1.000000000000000E-04
(PID.TID 0000.0001)     ;
(PID.TID 0000.0001) beta =   /* Beta ( 1/(m.s) ) */
(PID.TID 0000.0001)                 9.999999999999999E-12
(PID.TID 0000.0001)     ;
(PID.TID 0000.0001) fPrime =   /* Second coriolis parameter ( 1/s ) */
(PID.TID 0000.0001)                 0.000000000000000E+00
(PID.TID 0000.0001)     ;
(PID.TID 0000.0001) rigidLid =   /* Rigid lid on/off flag */
(PID.TID 0000.0001)                   F
(PID.TID 0000.0001)     ;
(PID.TID 0000.0001) implicitFreeSurface =   /* Implicit free surface on/off flag */
(PID.TID 0000.0001)                   T
(PID.TID 0000.0001)     ;
(PID.TID 0000.0001) freeSurfFac =   /* Implicit free surface factor */
(PID.TID 0000.0001)                 1.000000000000000E+00
(PID.TID 0000.0001)     ;
(PID.TID 0000.0001) implicSurfPress =  /* Surface Pressure implicit factor (0-1)*/
(PID.TID 0000.0001)                 1.000000000000000E+00
(PID.TID 0000.0001)     ;
(PID.TID 0000.0001) implicDiv2Dflow =  /* Barot. Flow Div. implicit factor (0-1)*/
(PID.TID 0000.0001)                 1.000000000000000E+00
(PID.TID 0000.0001)     ;
(PID.TID 0000.0001) uniformLin_PhiSurf = /* use uniform Bo_surf on/off flag*/
(PID.TID 0000.0001)                   T
(PID.TID 0000.0001)     ;
(PID.TID 0000.0001) uniformFreeSurfLev = /* free-surface level-index is uniform */
(PID.TID 0000.0001)                   F
(PID.TID 0000.0001)     ;
(PID.TID 0000.0001) hFacMin =   /* minimum partial cell factor (hFac) */
(PID.TID 0000.0001)                 5.000000000000000E-02
(PID.TID 0000.0001)     ;
(PID.TID 0000.0001) hFacMinDr = /* minimum partial cell thickness ( m) */
(PID.TID 0000.0001)                 5.000000000000000E-02
(PID.TID 0000.0001)     ;
(PID.TID 0000.0001) exactConserv =  /* Exact Volume Conservation on/off flag*/
(PID.TID 0000.0001)                   T
(PID.TID 0000.0001)     ;
(PID.TID 0000.0001) linFSConserveTr = /* Tracer correction for Lin Free Surface on/off flag*/
(PID.TID 0000.0001)                   F
(PID.TID 0000.0001)     ;
(PID.TID 0000.0001) nonlinFreeSurf = /* Non-linear Free Surf. options (-1,0,1,2,3)*/
(PID.TID 0000.0001)                       2
(PID.TID 0000.0001)      -1,0= Off ; 1,2,3= On, 2=+rescale gU,gV, 3=+update cg2d solv.
(PID.TID 0000.0001)     ;
(PID.TID 0000.0001) hFacInf =   /* lower threshold for hFac (nonlinFreeSurf only)*/
(PID.TID 0000.0001)                 2.000000000000000E-01
(PID.TID 0000.0001)     ;
(PID.TID 0000.0001) hFacSup =   /* upper threshold for hFac (nonlinFreeSurf only)*/
(PID.TID 0000.0001)                 2.000000000000000E+00
(PID.TID 0000.0001)     ;
(PID.TID 0000.0001) select_rStar = /* r* Vertical coord. options (=0 r coord.; >0 uses r*)*/
(PID.TID 0000.0001)                       0
(PID.TID 0000.0001)     ;
(PID.TID 0000.0001) useRealFreshWaterFlux = /* Real Fresh Water Flux on/off flag*/
(PID.TID 0000.0001)                   F
(PID.TID 0000.0001)     ;
(PID.TID 0000.0001) temp_EvPrRn = /* Temp. of Evap/Prec/R (UNSET=use local T)(oC)*/
(PID.TID 0000.0001)                 1.234567000000000E+05
(PID.TID 0000.0001)     ;
(PID.TID 0000.0001) salt_EvPrRn = /* Salin. of Evap/Prec/R (UNSET=use local S)(psu)*/
(PID.TID 0000.0001)                 0.000000000000000E+00
(PID.TID 0000.0001)     ;
(PID.TID 0000.0001) selectAddFluid = /* option for mass source/sink of fluid (=0: off) */
(PID.TID 0000.0001)                       0
(PID.TID 0000.0001)     ;
(PID.TID 0000.0001) temp_addMass = /* Temp. of addMass array (UNSET=use local T)(oC)*/
(PID.TID 0000.0001)                 1.234567000000000E+05
(PID.TID 0000.0001)     ;
(PID.TID 0000.0001) salt_addMass = /* Salin. of addMass array (UNSET=use local S)(psu)*/
(PID.TID 0000.0001)                 0.000000000000000E+00
(PID.TID 0000.0001)     ;
(PID.TID 0000.0001) convertFW2Salt = /* convert F.W. Flux to Salt Flux (-1=use local S)(psu)*/
(PID.TID 0000.0001)                 3.340000000000000E+01
(PID.TID 0000.0001)     ;
(PID.TID 0000.0001) use3Dsolver = /* use 3-D pressure solver on/off flag */
(PID.TID 0000.0001)                   F
(PID.TID 0000.0001)     ;
(PID.TID 0000.0001) nonHydrostatic =  /* Non-Hydrostatic on/off flag */
(PID.TID 0000.0001)                   F
(PID.TID 0000.0001)     ;
(PID.TID 0000.0001) nh_Am2 = /* Non-Hydrostatic terms scaling factor */
(PID.TID 0000.0001)                 1.000000000000000E+00
(PID.TID 0000.0001)     ;
(PID.TID 0000.0001) implicitNHPress = /* Non-Hyd Pressure implicit factor (0-1)*/
(PID.TID 0000.0001)                 1.000000000000000E+00
(PID.TID 0000.0001)     ;
(PID.TID 0000.0001) selectNHfreeSurf = /* Non-Hyd (free-)Surface option */
(PID.TID 0000.0001)                       0
(PID.TID 0000.0001)     ;
(PID.TID 0000.0001) quasiHydrostatic = /* Quasi-Hydrostatic on/off flag */
(PID.TID 0000.0001)                   F
(PID.TID 0000.0001)     ;
(PID.TID 0000.0001) calc_wVelocity = /* vertical velocity calculation on/off flag */
(PID.TID 0000.0001)                   T
(PID.TID 0000.0001)     ;
(PID.TID 0000.0001) momStepping =  /* Momentum equation on/off flag */
(PID.TID 0000.0001)                   T
(PID.TID 0000.0001)     ;
(PID.TID 0000.0001) vectorInvariantMomentum= /* Vector-Invariant Momentum on/off */
(PID.TID 0000.0001)                   T
(PID.TID 0000.0001)     ;
(PID.TID 0000.0001) momAdvection =  /* Momentum advection on/off flag */
(PID.TID 0000.0001)                   T
(PID.TID 0000.0001)     ;
(PID.TID 0000.0001) momViscosity =  /* Momentum viscosity on/off flag */
(PID.TID 0000.0001)                   T
(PID.TID 0000.0001)     ;
(PID.TID 0000.0001) momImplVertAdv= /* Momentum implicit vert. advection on/off*/
(PID.TID 0000.0001)                   F
(PID.TID 0000.0001)     ;
(PID.TID 0000.0001) implicitViscosity = /* Implicit viscosity on/off flag */
(PID.TID 0000.0001)                   F
(PID.TID 0000.0001)     ;
(PID.TID 0000.0001) metricTerms =  /* metric-Terms on/off flag */
(PID.TID 0000.0001)                   T
(PID.TID 0000.0001)     ;
(PID.TID 0000.0001) useNHMTerms = /* Non-Hydrostatic Metric-Terms on/off */
(PID.TID 0000.0001)                   F
(PID.TID 0000.0001)     ;
(PID.TID 0000.0001) selectCoriMap = /* Coriolis Map options (0,1,2,3)*/
(PID.TID 0000.0001)                       2
(PID.TID 0000.0001)     0= f-Plane ; 1= Beta-Plane ; 2= Spherical ; 3= read from file
(PID.TID 0000.0001)     ;
(PID.TID 0000.0001) use3dCoriolis = /* 3-D Coriolis on/off flag */
(PID.TID 0000.0001)                   F
(PID.TID 0000.0001)     ;
(PID.TID 0000.0001) useCoriolis =  /* Coriolis on/off flag */
(PID.TID 0000.0001)                   T
(PID.TID 0000.0001)     ;
(PID.TID 0000.0001) useCDscheme =  /* CD scheme on/off flag */
(PID.TID 0000.0001)                   T
(PID.TID 0000.0001)     ;
(PID.TID 0000.0001) useEnergyConservingCoriolis= /* Flx-Form Coriolis scheme flag */
(PID.TID 0000.0001)                   F
(PID.TID 0000.0001)     ;
(PID.TID 0000.0001) useJamartWetPoints= /* Coriolis WetPoints method flag */
(PID.TID 0000.0001)                   F
(PID.TID 0000.0001)     ;
(PID.TID 0000.0001) useJamartMomAdv= /* V.I Non-linear terms Jamart flag */
(PID.TID 0000.0001)                   F
(PID.TID 0000.0001)     ;
(PID.TID 0000.0001) useAbsVorticity= /* V.I Works with f+zeta in Coriolis */
(PID.TID 0000.0001)                   F
(PID.TID 0000.0001)     ;
(PID.TID 0000.0001) selectVortScheme= /* V.I Scheme selector for Vorticity-Term */
(PID.TID 0000.0001)                       1
(PID.TID 0000.0001)    = 0 : enstrophy (Shallow-Water Eq.) conserving scheme by Sadourny, JAS 75
(PID.TID 0000.0001)    = 1 : same as 0 with modified hFac
(PID.TID 0000.0001)    = 2 : energy conserving scheme (used by Sadourny in JAS 75 paper)
(PID.TID 0000.0001)    = 3 : energy (general) and enstrophy (2D, nonDiv.) conserving scheme
(PID.TID 0000.0001)          from Sadourny (Burridge & Haseler, ECMWF Rep.4, 1977)
(PID.TID 0000.0001)     ;
(PID.TID 0000.0001) upwindVorticity= /* V.I Upwind bias vorticity flag */
(PID.TID 0000.0001)                   F
(PID.TID 0000.0001)     ;
(PID.TID 0000.0001) highOrderVorticity= /* V.I High order vort. advect. flag */
(PID.TID 0000.0001)                   F
(PID.TID 0000.0001)     ;
(PID.TID 0000.0001) upwindShear= /* V.I Upwind vertical Shear advection flag */
(PID.TID 0000.0001)                   F
(PID.TID 0000.0001)     ;
(PID.TID 0000.0001) selectKEscheme= /* V.I Kinetic Energy scheme selector */
(PID.TID 0000.0001)                       0
(PID.TID 0000.0001)     ;
(PID.TID 0000.0001) momForcing =  /* Momentum forcing on/off flag */
(PID.TID 0000.0001)                   T
(PID.TID 0000.0001)     ;
(PID.TID 0000.0001) momPressureForcing =  /* Momentum pressure term on/off flag */
(PID.TID 0000.0001)                   T
(PID.TID 0000.0001)     ;
(PID.TID 0000.0001) implicitIntGravWave= /* Implicit Internal Gravity Wave flag */
(PID.TID 0000.0001)                   F
(PID.TID 0000.0001)     ;
(PID.TID 0000.0001) staggerTimeStep =    /* Stagger time stepping on/off flag */
(PID.TID 0000.0001)                   T
(PID.TID 0000.0001)     ;
(PID.TID 0000.0001) doResetHFactors = /* reset thickness factors @ each time-step */
(PID.TID 0000.0001)                   T
(PID.TID 0000.0001)     ;
(PID.TID 0000.0001) multiDimAdvection =  /* enable/disable Multi-Dim Advection */
(PID.TID 0000.0001)                   T
(PID.TID 0000.0001)     ;
(PID.TID 0000.0001) useMultiDimAdvec =   /* Multi-Dim Advection is/is-not used */
(PID.TID 0000.0001)                   F
(PID.TID 0000.0001)     ;
(PID.TID 0000.0001) implicitDiffusion = /* Implicit Diffusion on/off flag */
(PID.TID 0000.0001)                   T
(PID.TID 0000.0001)     ;
(PID.TID 0000.0001) tempStepping =  /* Temperature equation on/off flag */
(PID.TID 0000.0001)                   T
(PID.TID 0000.0001)     ;
(PID.TID 0000.0001) tempAdvection=  /* Temperature advection on/off flag */
(PID.TID 0000.0001)                   T
(PID.TID 0000.0001)     ;
(PID.TID 0000.0001) tempImplVertAdv = /* Temp. implicit vert. advection on/off */
(PID.TID 0000.0001)                   F
(PID.TID 0000.0001)     ;
(PID.TID 0000.0001) tempForcing  =  /* Temperature forcing on/off flag */
(PID.TID 0000.0001)                   T
(PID.TID 0000.0001)     ;
(PID.TID 0000.0001) tempIsActiveTr = /* Temp. is a dynamically Active Tracer */
(PID.TID 0000.0001)                   T
(PID.TID 0000.0001)     ;
(PID.TID 0000.0001) saltStepping =  /* Salinity equation on/off flag */
(PID.TID 0000.0001)                   T
(PID.TID 0000.0001)     ;
(PID.TID 0000.0001) saltAdvection=  /* Salinity advection on/off flag */
(PID.TID 0000.0001)                   T
(PID.TID 0000.0001)     ;
(PID.TID 0000.0001) saltImplVertAdv = /* Sali. implicit vert. advection on/off */
(PID.TID 0000.0001)                   F
(PID.TID 0000.0001)     ;
(PID.TID 0000.0001) saltForcing  =  /* Salinity forcing on/off flag */
(PID.TID 0000.0001)                   T
(PID.TID 0000.0001)     ;
(PID.TID 0000.0001) saltIsActiveTr = /* Salt  is a dynamically Active Tracer */
(PID.TID 0000.0001)                   T
(PID.TID 0000.0001)     ;
(PID.TID 0000.0001)  readBinaryPrec = /* Precision used for reading binary files */
(PID.TID 0000.0001)                      64
(PID.TID 0000.0001)     ;
(PID.TID 0000.0001) writeBinaryPrec = /* Precision used for writing binary files */
(PID.TID 0000.0001)                      32
(PID.TID 0000.0001)     ;
(PID.TID 0000.0001)  globalFiles = /* write "global" (=not per tile) files */
(PID.TID 0000.0001)                   F
(PID.TID 0000.0001)     ;
(PID.TID 0000.0001)  useSingleCpuIO = /* only master MPI process does I/O */
(PID.TID 0000.0001)                   F
(PID.TID 0000.0001)     ;
(PID.TID 0000.0001) /* debLev[*]  : level of debug & auxiliary message printing */
(PID.TID 0000.0001) debLevZero =  0 ; /* level of disabled aux. msg printing */
(PID.TID 0000.0001)    debLevA =  1 ; /* level of minimum  aux. msg printing */
(PID.TID 0000.0001)    debLevB =  2 ; /* level of low aux. print (report read-file opening)*/
(PID.TID 0000.0001)    debLevC =  3 ; /* level of moderate debug prt (most pkgs debug msg) */
(PID.TID 0000.0001)    debLevD =  4 ; /* level of enhanced debug prt (add DEBUG_STATS prt) */
(PID.TID 0000.0001)    debLevE =  5 ; /* level of extensive debug printing */
(PID.TID 0000.0001) debugLevel =  /* select debug printing level */
(PID.TID 0000.0001)                       1
(PID.TID 0000.0001)     ;
(PID.TID 0000.0001) //
(PID.TID 0000.0001) // Elliptic solver(s) paramters ( PARM02 in namelist )
(PID.TID 0000.0001) //
(PID.TID 0000.0001) cg2dMaxIters =   /* Upper limit on 2d con. grad iterations  */
(PID.TID 0000.0001)                    1000
(PID.TID 0000.0001)     ;
(PID.TID 0000.0001) cg2dChkResFreq =   /* 2d con. grad convergence test frequency */
(PID.TID 0000.0001)                       1
(PID.TID 0000.0001)     ;
(PID.TID 0000.0001) cg2dTargetResidual =   /* 2d con. grad target residual  */
(PID.TID 0000.0001)                 1.000000000000000E-13
(PID.TID 0000.0001)     ;
(PID.TID 0000.0001) cg2dTargetResWunit =   /* CG2d target residual [W units] */
(PID.TID 0000.0001)                -1.000000000000000E+00
(PID.TID 0000.0001)     ;
(PID.TID 0000.0001) cg2dPreCondFreq =   /* Freq. for updating cg2d preconditioner */
(PID.TID 0000.0001)                       1
(PID.TID 0000.0001)     ;
(PID.TID 0000.0001) useSRCGSolver =  /* use single reduction CG solver(s) */
(PID.TID 0000.0001)                   F
(PID.TID 0000.0001)     ;
(PID.TID 0000.0001) printResidualFreq = /* Freq. for printing CG residual */
(PID.TID 0000.0001)                       0
(PID.TID 0000.0001)     ;
(PID.TID 0000.0001) //
(PID.TID 0000.0001) // Time stepping paramters ( PARM03 in namelist )
(PID.TID 0000.0001) //
(PID.TID 0000.0001) deltaTmom =   /* Momentum equation timestep ( s ) */
(PID.TID 0000.0001)                 1.800000000000000E+03
(PID.TID 0000.0001)     ;
(PID.TID 0000.0001) deltaTfreesurf = /* FreeSurface equation timestep ( s ) */
(PID.TID 0000.0001)                 1.800000000000000E+03
(PID.TID 0000.0001)     ;
(PID.TID 0000.0001) dTtracerLev =  /* Tracer equation timestep ( s ) */
(PID.TID 0000.0001)    30 @  1.800000000000000E+03              /* K =  1: 30 */
(PID.TID 0000.0001)     ;
(PID.TID 0000.0001) deltaTClock  =   /* Model clock timestep ( s ) */
(PID.TID 0000.0001)                 1.800000000000000E+03
(PID.TID 0000.0001)     ;
(PID.TID 0000.0001) cAdjFreq =   /* Convective adjustment interval ( s ) */
(PID.TID 0000.0001)                 1.000000000000000E+00
(PID.TID 0000.0001)     ;
(PID.TID 0000.0001) momForcingOutAB = /* =1: take Momentum Forcing out of Adams-Bash. stepping */
(PID.TID 0000.0001)                       0
(PID.TID 0000.0001)     ;
(PID.TID 0000.0001) tracForcingOutAB = /* =1: take T,S,pTr Forcing out of Adams-Bash. stepping */
(PID.TID 0000.0001)                       0
(PID.TID 0000.0001)     ;
(PID.TID 0000.0001) momDissip_In_AB = /* put Dissipation Tendency in Adams-Bash. stepping */
(PID.TID 0000.0001)                   T
(PID.TID 0000.0001)     ;
(PID.TID 0000.0001) doAB_onGtGs = /* apply AB on Tendencies (rather than on T,S)*/
(PID.TID 0000.0001)                   T
(PID.TID 0000.0001)     ;
(PID.TID 0000.0001) abEps =   /* Adams-Bashforth-2 stabilizing weight */
(PID.TID 0000.0001)                 1.000000000000000E-01
(PID.TID 0000.0001)     ;
(PID.TID 0000.0001) tauCD =   /* CD coupling time-scale ( s ) */
(PID.TID 0000.0001)                 4.000000000000000E+05
(PID.TID 0000.0001)     ;
(PID.TID 0000.0001) rCD =   /* Normalised CD coupling parameter */
(PID.TID 0000.0001)                 9.955000000000001E-01
(PID.TID 0000.0001)     ;
(PID.TID 0000.0001) epsAB_CD = /* AB-2 stabilizing weight for CD-scheme*/
(PID.TID 0000.0001)                 1.000000000000000E-01
(PID.TID 0000.0001)     ;
(PID.TID 0000.0001) pickupStrictlyMatch= /* stop if pickup do not strictly match */
(PID.TID 0000.0001)                   T
(PID.TID 0000.0001)     ;
(PID.TID 0000.0001) nIter0   =   /* Run starting timestep number */
(PID.TID 0000.0001)                    8640
(PID.TID 0000.0001)     ;
(PID.TID 0000.0001) nTimeSteps = /* Number of timesteps */
(PID.TID 0000.0001)                      10
(PID.TID 0000.0001)     ;
(PID.TID 0000.0001) nEndIter =   /* Run ending timestep number */
(PID.TID 0000.0001)                    8650
(PID.TID 0000.0001)     ;
(PID.TID 0000.0001) baseTime =   /* Model base time ( s ) */
(PID.TID 0000.0001)                 0.000000000000000E+00
(PID.TID 0000.0001)     ;
(PID.TID 0000.0001) startTime =  /* Run start time ( s ) */
(PID.TID 0000.0001)                 1.555200000000000E+07
(PID.TID 0000.0001)     ;
(PID.TID 0000.0001) endTime  =   /* Integration ending time ( s ) */
(PID.TID 0000.0001)                 1.557000000000000E+07
(PID.TID 0000.0001)     ;
(PID.TID 0000.0001) pChkPtFreq = /* Permanent restart/pickup file interval ( s ) */
(PID.TID 0000.0001)                 0.000000000000000E+00
(PID.TID 0000.0001)     ;
(PID.TID 0000.0001) chkPtFreq  = /* Rolling restart/pickup file interval ( s ) */
(PID.TID 0000.0001)                 0.000000000000000E+00
(PID.TID 0000.0001)     ;
(PID.TID 0000.0001) pickup_write_mdsio =   /* Model IO flag. */
(PID.TID 0000.0001)                   T
(PID.TID 0000.0001)     ;
(PID.TID 0000.0001) pickup_read_mdsio =   /* Model IO flag. */
(PID.TID 0000.0001)                   T
(PID.TID 0000.0001)     ;
(PID.TID 0000.0001) pickup_write_mnc =   /* Model IO flag. */
(PID.TID 0000.0001)                   F
(PID.TID 0000.0001)     ;
(PID.TID 0000.0001) pickup_read_mnc =   /* Model IO flag. */
(PID.TID 0000.0001)                   F
(PID.TID 0000.0001)     ;
(PID.TID 0000.0001) pickup_write_immed =   /* Model IO flag. */
(PID.TID 0000.0001)                   F
(PID.TID 0000.0001)     ;
(PID.TID 0000.0001) writePickupAtEnd =   /* Model IO flag. */
(PID.TID 0000.0001)                   T
(PID.TID 0000.0001)     ;
(PID.TID 0000.0001) dumpFreq =   /* Model state write out interval ( s ). */
(PID.TID 0000.0001)                 0.000000000000000E+00
(PID.TID 0000.0001)     ;
(PID.TID 0000.0001) dumpInitAndLast= /* write out Initial & Last iter. model state */
(PID.TID 0000.0001)                   T
(PID.TID 0000.0001)     ;
(PID.TID 0000.0001) snapshot_mdsio =   /* Model IO flag. */
(PID.TID 0000.0001)                   F
(PID.TID 0000.0001)     ;
(PID.TID 0000.0001) snapshot_mnc =   /* Model IO flag. */
(PID.TID 0000.0001)                   T
(PID.TID 0000.0001)     ;
(PID.TID 0000.0001) monitorFreq =   /* Monitor output interval ( s ). */
(PID.TID 0000.0001)                 1.000000000000000E+00
(PID.TID 0000.0001)     ;
(PID.TID 0000.0001) monitorSelect = /* select group of variables to monitor */
(PID.TID 0000.0001)                       2
(PID.TID 0000.0001)     ;
(PID.TID 0000.0001) monitor_stdio =   /* Model IO flag. */
(PID.TID 0000.0001)                   T
(PID.TID 0000.0001)     ;
(PID.TID 0000.0001) monitor_mnc =   /* Model IO flag. */
(PID.TID 0000.0001)                   F
(PID.TID 0000.0001)     ;
(PID.TID 0000.0001) externForcingPeriod =   /* forcing period (s) */
(PID.TID 0000.0001)                 0.000000000000000E+00
(PID.TID 0000.0001)     ;
(PID.TID 0000.0001) externForcingCycle =   /* period of the cyle (s). */
(PID.TID 0000.0001)                 0.000000000000000E+00
(PID.TID 0000.0001)     ;
(PID.TID 0000.0001) tauThetaClimRelax =   /* relaxation time scale (s) */
(PID.TID 0000.0001)                 0.000000000000000E+00
(PID.TID 0000.0001)     ;
(PID.TID 0000.0001) tauSaltClimRelax =   /* relaxation time scale (s) */
(PID.TID 0000.0001)                 0.000000000000000E+00
(PID.TID 0000.0001)     ;
(PID.TID 0000.0001) latBandClimRelax =   /* max. Lat. where relaxation */
(PID.TID 0000.0001)                 1.800000000000000E+02
(PID.TID 0000.0001)     ;
(PID.TID 0000.0001) //
(PID.TID 0000.0001) // Gridding paramters ( PARM04 in namelist )
(PID.TID 0000.0001) //
(PID.TID 0000.0001) usingCartesianGrid = /* Cartesian coordinates flag ( True/False ) */
(PID.TID 0000.0001)                   F
(PID.TID 0000.0001)     ;
(PID.TID 0000.0001) usingCylindricalGrid = /* Cylindrical coordinates flag ( True/False ) */
(PID.TID 0000.0001)                   F
(PID.TID 0000.0001)     ;
(PID.TID 0000.0001) usingSphericalPolarGrid = /* Spherical coordinates flag ( True/False ) */
(PID.TID 0000.0001)                   T
(PID.TID 0000.0001)     ;
(PID.TID 0000.0001) usingCurvilinearGrid = /* Curvilinear coordinates flag ( True/False ) */
(PID.TID 0000.0001)                   F
(PID.TID 0000.0001)     ;
(PID.TID 0000.0001) selectSigmaCoord = /* Hybrid-Sigma Vert. Coordinate option */
(PID.TID 0000.0001)                       0
(PID.TID 0000.0001)     ;
(PID.TID 0000.0001) Ro_SeaLevel = /* r(1) ( units of r ==  m ) */
(PID.TID 0000.0001)                 0.000000000000000E+00
(PID.TID 0000.0001)     ;
(PID.TID 0000.0001) rSigmaBnd = /* r/sigma transition ( units of r ==  m ) */
(PID.TID 0000.0001)                 1.234567000000000E+05
(PID.TID 0000.0001)     ;
(PID.TID 0000.0001) rkSign =   /* index orientation relative to vertical coordinate */
(PID.TID 0000.0001)                -1.000000000000000E+00
(PID.TID 0000.0001)     ;
(PID.TID 0000.0001) gravitySign = /* gravity orientation relative to vertical coordinate */
(PID.TID 0000.0001)                -1.000000000000000E+00
(PID.TID 0000.0001)     ;
(PID.TID 0000.0001) mass2rUnit = /* convert mass per unit area [kg/m2] to r-units [m] */
(PID.TID 0000.0001)                 9.708737864077669E-04
(PID.TID 0000.0001)     ;
(PID.TID 0000.0001) rUnit2mass = /* convert r-units [m] to mass per unit area [kg/m2] */
(PID.TID 0000.0001)                 1.030000000000000E+03
(PID.TID 0000.0001)     ;
(PID.TID 0000.0001) drC =   /* C spacing ( units of r ) */
(PID.TID 0000.0001)                 1.500000000000000E+01,      /* K =  1 */
(PID.TID 0000.0001)    29 @  3.000000000000000E+01              /* K =  2: 30 */
(PID.TID 0000.0001)     ;
(PID.TID 0000.0001) drF =   /* W spacing ( units of r ) */
(PID.TID 0000.0001)    30 @  3.000000000000000E+01              /* K =  1: 30 */
(PID.TID 0000.0001)     ;
(PID.TID 0000.0001) delX = /* U spacing ( m - cartesian, degrees - spherical ) */
(PID.TID 0000.0001)    50 @  3.000000000000000E-01              /* I =  1: 50 */
(PID.TID 0000.0001)     ;
(PID.TID 0000.0001) delY = /* V spacing ( m - cartesian, degrees - spherical ) */
(PID.TID 0000.0001)   100 @  1.000000000000000E-01              /* J =  1:100 */
(PID.TID 0000.0001)     ;
(PID.TID 0000.0001) xgOrigin = /* X-axis origin of West  edge (cartesian: m, lat-lon: deg.) */
(PID.TID 0000.0001)                 0.000000000000000E+00
(PID.TID 0000.0001)     ;
(PID.TID 0000.0001) ygOrigin = /* Y-axis origin of South edge (cartesian: m, lat-lon: deg.) */
(PID.TID 0000.0001)                -8.000000000000000E+01
(PID.TID 0000.0001)     ;
(PID.TID 0000.0001) rSphere =  /* Radius ( ignored - cartesian, m - spherical ) */
(PID.TID 0000.0001)                 6.370000000000000E+06
(PID.TID 0000.0001)     ;
(PID.TID 0000.0001) deepAtmosphere = /* Deep/Shallow Atmosphere flag (True/False) */
(PID.TID 0000.0001)                   F
(PID.TID 0000.0001)     ;
(PID.TID 0000.0001) xC =  /* xC(:,1,:,1) : P-point X coord ( deg. or m if cartesian) */
(PID.TID 0000.0001)                 1.500000000000001E-01,      /* I =  1 */
(PID.TID 0000.0001)                 4.500000000000001E-01,      /* I =  2 */
(PID.TID 0000.0001)                 7.500000000000002E-01,      /* I =  3 */
(PID.TID 0000.0001)                 1.050000000000000E+00,      /* I =  4 */
(PID.TID 0000.0001)                 1.350000000000000E+00,      /* I =  5 */
(PID.TID 0000.0001)                 1.650000000000000E+00,      /* I =  6 */
(PID.TID 0000.0001)                 1.950000000000000E+00,      /* I =  7 */
(PID.TID 0000.0001)                 2.250000000000000E+00,      /* I =  8 */
(PID.TID 0000.0001)                 2.550000000000000E+00,      /* I =  9 */
(PID.TID 0000.0001)                 2.850000000000000E+00,      /* I = 10 */
(PID.TID 0000.0001)                 3.149999999999999E+00,      /* I = 11 */
(PID.TID 0000.0001)                 3.449999999999999E+00,      /* I = 12 */
(PID.TID 0000.0001)                 3.749999999999999E+00,      /* I = 13 */
(PID.TID 0000.0001)                 4.049999999999999E+00,      /* I = 14 */
(PID.TID 0000.0001)                 4.350000000000000E+00,      /* I = 15 */
(PID.TID 0000.0001)                 4.649999999999999E+00,      /* I = 16 */
(PID.TID 0000.0001)                 4.949999999999999E+00,      /* I = 17 */
(PID.TID 0000.0001)                 5.249999999999998E+00,      /* I = 18 */
(PID.TID 0000.0001)                 5.549999999999999E+00,      /* I = 19 */
(PID.TID 0000.0001)                 5.849999999999998E+00,      /* I = 20 */
(PID.TID 0000.0001)                 6.149999999999999E+00,      /* I = 21 */
(PID.TID 0000.0001)                 6.449999999999998E+00,      /* I = 22 */
(PID.TID 0000.0001)                 6.749999999999998E+00,      /* I = 23 */
(PID.TID 0000.0001)                 7.049999999999997E+00,      /* I = 24 */
(PID.TID 0000.0001)                 7.349999999999997E+00,      /* I = 25 */
(PID.TID 0000.0001)                 7.649999999999997E+00,      /* I = 26 */
(PID.TID 0000.0001)                 7.949999999999998E+00,      /* I = 27 */
(PID.TID 0000.0001)                 8.249999999999998E+00,      /* I = 28 */
(PID.TID 0000.0001)                 8.549999999999999E+00,      /* I = 29 */
(PID.TID 0000.0001)                 8.850000000000000E+00,      /* I = 30 */
(PID.TID 0000.0001)                 9.150000000000000E+00,      /* I = 31 */
(PID.TID 0000.0001)                 9.450000000000001E+00,      /* I = 32 */
(PID.TID 0000.0001)                 9.750000000000002E+00,      /* I = 33 */
(PID.TID 0000.0001)                 1.005000000000000E+01,      /* I = 34 */
(PID.TID 0000.0001)                 1.035000000000000E+01,      /* I = 35 */
(PID.TID 0000.0001)                 1.065000000000000E+01,      /* I = 36 */
(PID.TID 0000.0001)                 1.095000000000001E+01,      /* I = 37 */
(PID.TID 0000.0001)                 1.125000000000001E+01,      /* I = 38 */
(PID.TID 0000.0001)                 1.155000000000000E+01,      /* I = 39 */
(PID.TID 0000.0001)                 1.185000000000001E+01,      /* I = 40 */
(PID.TID 0000.0001)                 1.215000000000001E+01,      /* I = 41 */
(PID.TID 0000.0001)                 1.245000000000001E+01,      /* I = 42 */
(PID.TID 0000.0001)                 1.275000000000001E+01,      /* I = 43 */
(PID.TID 0000.0001)                 1.305000000000001E+01,      /* I = 44 */
(PID.TID 0000.0001)                 1.335000000000001E+01,      /* I = 45 */
(PID.TID 0000.0001)                 1.365000000000001E+01,      /* I = 46 */
(PID.TID 0000.0001)                 1.395000000000001E+01,      /* I = 47 */
(PID.TID 0000.0001)                 1.425000000000001E+01,      /* I = 48 */
(PID.TID 0000.0001)                 1.455000000000001E+01,      /* I = 49 */
(PID.TID 0000.0001)                 1.485000000000001E+01       /* I = 50 */
(PID.TID 0000.0001)     ;
(PID.TID 0000.0001) yC =  /* yC(1,:,1,:) : P-point Y coord ( deg. or m if cartesian) */
(PID.TID 0000.0001)                -7.995000000000000E+01,      /* J =  1 */
(PID.TID 0000.0001)                -7.985000000000001E+01,      /* J =  2 */
(PID.TID 0000.0001)                -7.975000000000001E+01,      /* J =  3 */
(PID.TID 0000.0001)      . . .
(PID.TID 0000.0001)                -7.775000000000013E+01,      /* J = 23 */
(PID.TID 0000.0001)                -7.765000000000013E+01,      /* J = 24 */
(PID.TID 0000.0001)                -7.755000000000014E+01,      /* J = 25 */
(PID.TID 0000.0001)                -7.745000000000014E+01,      /* J = 26 */
(PID.TID 0000.0001)                -7.735000000000015E+01,      /* J = 27 */
(PID.TID 0000.0001)                -7.725000000000016E+01,      /* J = 28 */
(PID.TID 0000.0001)      . . .
(PID.TID 0000.0001)                -7.525000000000027E+01,      /* J = 48 */
(PID.TID 0000.0001)                -7.515000000000028E+01,      /* J = 49 */
(PID.TID 0000.0001)                -7.505000000000028E+01,      /* J = 50 */
(PID.TID 0000.0001)                -7.495000000000029E+01,      /* J = 51 */
(PID.TID 0000.0001)                -7.485000000000029E+01,      /* J = 52 */
(PID.TID 0000.0001)                -7.475000000000030E+01,      /* J = 53 */
(PID.TID 0000.0001)      . . .
(PID.TID 0000.0001)                -7.275000000000041E+01,      /* J = 73 */
(PID.TID 0000.0001)                -7.265000000000042E+01,      /* J = 74 */
(PID.TID 0000.0001)                -7.255000000000042E+01,      /* J = 75 */
(PID.TID 0000.0001)                -7.245000000000043E+01,      /* J = 76 */
(PID.TID 0000.0001)                -7.235000000000043E+01,      /* J = 77 */
(PID.TID 0000.0001)                -7.225000000000044E+01,      /* J = 78 */
(PID.TID 0000.0001)      . . .
(PID.TID 0000.0001)                -7.025000000000055E+01,      /* J = 98 */
(PID.TID 0000.0001)                -7.015000000000056E+01,      /* J = 99 */
(PID.TID 0000.0001)                -7.005000000000057E+01       /* J =100 */
(PID.TID 0000.0001)     ;
(PID.TID 0000.0001) rcoord = /* P-point R coordinate (  units of r ) */
(PID.TID 0000.0001)                -1.500000000000000E+01,      /* K =  1 */
(PID.TID 0000.0001)                -4.500000000000000E+01,      /* K =  2 */
(PID.TID 0000.0001)                -7.500000000000000E+01,      /* K =  3 */
(PID.TID 0000.0001)                -1.050000000000000E+02,      /* K =  4 */
(PID.TID 0000.0001)                -1.350000000000000E+02,      /* K =  5 */
(PID.TID 0000.0001)                -1.650000000000000E+02,      /* K =  6 */
(PID.TID 0000.0001)                -1.950000000000000E+02,      /* K =  7 */
(PID.TID 0000.0001)                -2.250000000000000E+02,      /* K =  8 */
(PID.TID 0000.0001)                -2.550000000000000E+02,      /* K =  9 */
(PID.TID 0000.0001)                -2.850000000000000E+02,      /* K = 10 */
(PID.TID 0000.0001)                -3.150000000000000E+02,      /* K = 11 */
(PID.TID 0000.0001)                -3.450000000000000E+02,      /* K = 12 */
(PID.TID 0000.0001)                -3.750000000000000E+02,      /* K = 13 */
(PID.TID 0000.0001)                -4.050000000000000E+02,      /* K = 14 */
(PID.TID 0000.0001)                -4.350000000000000E+02,      /* K = 15 */
(PID.TID 0000.0001)                -4.650000000000000E+02,      /* K = 16 */
(PID.TID 0000.0001)                -4.950000000000000E+02,      /* K = 17 */
(PID.TID 0000.0001)                -5.250000000000000E+02,      /* K = 18 */
(PID.TID 0000.0001)                -5.550000000000000E+02,      /* K = 19 */
(PID.TID 0000.0001)                -5.850000000000000E+02,      /* K = 20 */
(PID.TID 0000.0001)                -6.150000000000000E+02,      /* K = 21 */
(PID.TID 0000.0001)                -6.450000000000000E+02,      /* K = 22 */
(PID.TID 0000.0001)                -6.750000000000000E+02,      /* K = 23 */
(PID.TID 0000.0001)                -7.050000000000000E+02,      /* K = 24 */
(PID.TID 0000.0001)                -7.350000000000000E+02,      /* K = 25 */
(PID.TID 0000.0001)                -7.650000000000000E+02,      /* K = 26 */
(PID.TID 0000.0001)                -7.950000000000000E+02,      /* K = 27 */
(PID.TID 0000.0001)                -8.250000000000000E+02,      /* K = 28 */
(PID.TID 0000.0001)                -8.550000000000000E+02,      /* K = 29 */
(PID.TID 0000.0001)                -8.850000000000000E+02       /* K = 30 */
(PID.TID 0000.0001)     ;
(PID.TID 0000.0001) rF =   /* W-Interf. R coordinate (  units of r ) */
(PID.TID 0000.0001)                 0.000000000000000E+00,      /* K =  1 */
(PID.TID 0000.0001)                -3.000000000000000E+01,      /* K =  2 */
(PID.TID 0000.0001)                -6.000000000000000E+01,      /* K =  3 */
(PID.TID 0000.0001)                -9.000000000000000E+01,      /* K =  4 */
(PID.TID 0000.0001)                -1.200000000000000E+02,      /* K =  5 */
(PID.TID 0000.0001)                -1.500000000000000E+02,      /* K =  6 */
(PID.TID 0000.0001)                -1.800000000000000E+02,      /* K =  7 */
(PID.TID 0000.0001)                -2.100000000000000E+02,      /* K =  8 */
(PID.TID 0000.0001)                -2.400000000000000E+02,      /* K =  9 */
(PID.TID 0000.0001)                -2.700000000000000E+02,      /* K = 10 */
(PID.TID 0000.0001)                -3.000000000000000E+02,      /* K = 11 */
(PID.TID 0000.0001)                -3.300000000000000E+02,      /* K = 12 */
(PID.TID 0000.0001)                -3.600000000000000E+02,      /* K = 13 */
(PID.TID 0000.0001)                -3.900000000000000E+02,      /* K = 14 */
(PID.TID 0000.0001)                -4.200000000000000E+02,      /* K = 15 */
(PID.TID 0000.0001)                -4.500000000000000E+02,      /* K = 16 */
(PID.TID 0000.0001)                -4.800000000000000E+02,      /* K = 17 */
(PID.TID 0000.0001)                -5.100000000000000E+02,      /* K = 18 */
(PID.TID 0000.0001)                -5.400000000000000E+02,      /* K = 19 */
(PID.TID 0000.0001)                -5.700000000000000E+02,      /* K = 20 */
(PID.TID 0000.0001)                -6.000000000000000E+02,      /* K = 21 */
(PID.TID 0000.0001)                -6.300000000000000E+02,      /* K = 22 */
(PID.TID 0000.0001)                -6.600000000000000E+02,      /* K = 23 */
(PID.TID 0000.0001)                -6.900000000000000E+02,      /* K = 24 */
(PID.TID 0000.0001)                -7.200000000000000E+02,      /* K = 25 */
(PID.TID 0000.0001)                -7.500000000000000E+02,      /* K = 26 */
(PID.TID 0000.0001)                -7.800000000000000E+02,      /* K = 27 */
(PID.TID 0000.0001)                -8.100000000000000E+02,      /* K = 28 */
(PID.TID 0000.0001)                -8.400000000000000E+02,      /* K = 29 */
(PID.TID 0000.0001)                -8.700000000000000E+02,      /* K = 30 */
(PID.TID 0000.0001)                -9.000000000000000E+02       /* K = 31 */
(PID.TID 0000.0001)     ;
(PID.TID 0000.0001) deepFacC = /* deep-model grid factor @ cell-Center (-) */
(PID.TID 0000.0001)    30 @  1.000000000000000E+00              /* K =  1: 30 */
(PID.TID 0000.0001)     ;
(PID.TID 0000.0001) deepFacF = /* deep-model grid factor @ W-Interface (-) */
(PID.TID 0000.0001)    31 @  1.000000000000000E+00              /* K =  1: 31 */
(PID.TID 0000.0001)     ;
(PID.TID 0000.0001) rVel2wUnit = /* convert units: rVel -> wSpeed (=1 if z-coord)*/
(PID.TID 0000.0001)    31 @  1.000000000000000E+00              /* K =  1: 31 */
(PID.TID 0000.0001)     ;
(PID.TID 0000.0001) wUnit2rVel = /* convert units: wSpeed -> rVel (=1 if z-coord)*/
(PID.TID 0000.0001)    31 @  1.000000000000000E+00              /* K =  1: 31 */
(PID.TID 0000.0001)     ;
(PID.TID 0000.0001) dBdrRef = /* Vertical grad. of reference buoyancy [(m/s/r)^2] */
(PID.TID 0000.0001)    30 @  0.000000000000000E+00              /* K =  1: 30 */
(PID.TID 0000.0001)     ;
(PID.TID 0000.0001) rotateGrid = /* use rotated grid ( True/False ) */
(PID.TID 0000.0001)                   F
(PID.TID 0000.0001)     ;
(PID.TID 0000.0001) phiEuler = /* Euler angle, rotation about original z-coordinate [rad] */
(PID.TID 0000.0001)                 0.000000000000000E+00
(PID.TID 0000.0001)     ;
(PID.TID 0000.0001) thetaEuler = /* Euler angle, rotation about new x-coordinate [rad] */
(PID.TID 0000.0001)                 0.000000000000000E+00
(PID.TID 0000.0001)     ;
(PID.TID 0000.0001) psiEuler = /* Euler angle, rotation about new z-coordinate [rad] */
(PID.TID 0000.0001)                 0.000000000000000E+00
(PID.TID 0000.0001)     ;
(PID.TID 0000.0001) dxF =  /* dxF(:,1,:,1) ( units: m ) */
(PID.TID 0000.0001)    50 @  5.820391490558872E+03              /* I =  1: 50 */
(PID.TID 0000.0001)     ;
(PID.TID 0000.0001) dxF =  /* dxF(1,:,1,:) ( units: m ) */
(PID.TID 0000.0001)                 5.820391490558872E+03,      /* J =  1 */
(PID.TID 0000.0001)                 5.877701765291692E+03,      /* J =  2 */
(PID.TID 0000.0001)                 5.934994135525598E+03,      /* J =  3 */
(PID.TID 0000.0001)      . . .
(PID.TID 0000.0001)                 7.076813247621209E+03,      /* J = 23 */
(PID.TID 0000.0001)                 7.133689397375063E+03,      /* J = 24 */
(PID.TID 0000.0001)                 7.190543816673855E+03,      /* J = 25 */
(PID.TID 0000.0001)                 7.247376332329164E+03,      /* J = 26 */
(PID.TID 0000.0001)                 7.304186771219292E+03,      /* J = 27 */
(PID.TID 0000.0001)                 7.360974960289787E+03,      /* J = 28 */
(PID.TID 0000.0001)      . . .
(PID.TID 0000.0001)                 8.491800393599013E+03,      /* J = 48 */
(PID.TID 0000.0001)                 8.548081485571185E+03,      /* J = 49 */
(PID.TID 0000.0001)                 8.604336538604706E+03,      /* J = 50 */
(PID.TID 0000.0001)                 8.660565381336924E+03,      /* J = 51 */
(PID.TID 0000.0001)                 8.716767842485036E+03,      /* J = 52 */
(PID.TID 0000.0001)                 8.772943750846600E+03,      /* J = 53 */
(PID.TID 0000.0001)      . . .
(PID.TID 0000.0001)                 9.890622914885218E+03,      /* J = 73 */
(PID.TID 0000.0001)                 9.946201814818334E+03,      /* J = 74 */
(PID.TID 0000.0001)                 1.000175041689580E+04,      /* J = 75 */
(PID.TID 0000.0001)                 1.005726855190695E+04,      /* J = 76 */
(PID.TID 0000.0001)                 1.011275605073392E+04,      /* J = 77 */
(PID.TID 0000.0001)                 1.016821274435215E+04,      /* J = 78 */
(PID.TID 0000.0001)      . . .
(PID.TID 0000.0001)                 1.127061807330668E+04,      /* J = 98 */
(PID.TID 0000.0001)                 1.132538898360582E+04,      /* J = 99 */
(PID.TID 0000.0001)                 1.138012539480601E+04       /* J =100 */
(PID.TID 0000.0001)     ;
(PID.TID 0000.0001) dyF =  /* dyF(:,1,:,1) ( units: m ) */
(PID.TID 0000.0001)    50 @  1.111774733520388E+04              /* I =  1: 50 */
(PID.TID 0000.0001)     ;
(PID.TID 0000.0001) dyF =  /* dyF(1,:,1,:) ( units: m ) */
(PID.TID 0000.0001)   100 @  1.111774733520388E+04              /* J =  1:100 */
(PID.TID 0000.0001)     ;
(PID.TID 0000.0001) dxG =  /* dxG(:,1,:,1) ( units: m ) */
(PID.TID 0000.0001)    50 @  5.791729693558576E+03              /* I =  1: 50 */
(PID.TID 0000.0001)     ;
(PID.TID 0000.0001) dxG =  /* dxG(1,:,1,:) ( units: m ) */
(PID.TID 0000.0001)                 5.791729693558576E+03,      /* J =  1 */
(PID.TID 0000.0001)                 5.849048855077854E+03,      /* J =  2 */
(PID.TID 0000.0001)                 5.906350199379949E+03,      /* J =  3 */
(PID.TID 0000.0001)      . . .
(PID.TID 0000.0001)                 7.048367077963129E+03,      /* J = 23 */
(PID.TID 0000.0001)                 7.105254027978149E+03,      /* J = 24 */
(PID.TID 0000.0001)                 7.162119334157175E+03,      /* J = 25 */
(PID.TID 0000.0001)                 7.218962823278620E+03,      /* J = 26 */
(PID.TID 0000.0001)                 7.275784322187360E+03,      /* J = 27 */
(PID.TID 0000.0001)                 7.332583657795253E+03,      /* J = 28 */
(PID.TID 0000.0001)      . . .
(PID.TID 0000.0001)                 8.463650136583461E+03,      /* J = 48 */
(PID.TID 0000.0001)                 8.519944183739159E+03,      /* J = 49 */
(PID.TID 0000.0001)                 8.576212277667308E+03,      /* J = 50 */
(PID.TID 0000.0001)                 8.632454246965530E+03,      /* J = 51 */
(PID.TID 0000.0001)                 8.688669920311038E+03,      /* J = 52 */
(PID.TID 0000.0001)                 8.744859126461139E+03,      /* J = 53 */
(PID.TID 0000.0001)      . . .
(PID.TID 0000.0001)                 9.862822156126382E+03,      /* J = 73 */
(PID.TID 0000.0001)                 9.918416141504455E+03,      /* J = 74 */
(PID.TID 0000.0001)                 9.973979913666863E+03,      /* J = 75 */
(PID.TID 0000.0001)                 1.002951330335672E+04,      /* J = 76 */
(PID.TID 0000.0001)                 1.008501614140969E+04,      /* J = 77 */
(PID.TID 0000.0001)                 1.014048825875450E+04,      /* J = 78 */
(PID.TID 0000.0001)      . . .
(PID.TID 0000.0001)                 1.124321973312895E+04,      /* J = 98 */
(PID.TID 0000.0001)                 1.129800783041847E+04,      /* J = 99 */
(PID.TID 0000.0001)                 1.135276151201679E+04       /* J =100 */
(PID.TID 0000.0001)     ;
(PID.TID 0000.0001) dyG =  /* dyG(:,1,:,1) ( units: m ) */
(PID.TID 0000.0001)    50 @  1.111774733520388E+04              /* I =  1: 50 */
(PID.TID 0000.0001)     ;
(PID.TID 0000.0001) dyG =  /* dyG(1,:,1,:) ( units: m ) */
(PID.TID 0000.0001)   100 @  1.111774733520388E+04              /* J =  1:100 */
(PID.TID 0000.0001)     ;
(PID.TID 0000.0001) dxC =  /* dxC(:,1,:,1) ( units: m ) */
(PID.TID 0000.0001)    50 @  5.820391490558872E+03              /* I =  1: 50 */
(PID.TID 0000.0001)     ;
(PID.TID 0000.0001) dxC =  /* dxC(1,:,1,:) ( units: m ) */
(PID.TID 0000.0001)                 5.820391490558872E+03,      /* J =  1 */
(PID.TID 0000.0001)                 5.877701765291692E+03,      /* J =  2 */
(PID.TID 0000.0001)                 5.934994135525598E+03,      /* J =  3 */
(PID.TID 0000.0001)      . . .
(PID.TID 0000.0001)                 7.076813247621209E+03,      /* J = 23 */
(PID.TID 0000.0001)                 7.133689397375063E+03,      /* J = 24 */
(PID.TID 0000.0001)                 7.190543816673855E+03,      /* J = 25 */
(PID.TID 0000.0001)                 7.247376332329164E+03,      /* J = 26 */
(PID.TID 0000.0001)                 7.304186771219292E+03,      /* J = 27 */
(PID.TID 0000.0001)                 7.360974960289787E+03,      /* J = 28 */
(PID.TID 0000.0001)      . . .
(PID.TID 0000.0001)                 8.491800393599013E+03,      /* J = 48 */
(PID.TID 0000.0001)                 8.548081485571185E+03,      /* J = 49 */
(PID.TID 0000.0001)                 8.604336538604706E+03,      /* J = 50 */
(PID.TID 0000.0001)                 8.660565381336924E+03,      /* J = 51 */
(PID.TID 0000.0001)                 8.716767842485036E+03,      /* J = 52 */
(PID.TID 0000.0001)                 8.772943750846600E+03,      /* J = 53 */
(PID.TID 0000.0001)      . . .
(PID.TID 0000.0001)                 9.890622914885218E+03,      /* J = 73 */
(PID.TID 0000.0001)                 9.946201814818334E+03,      /* J = 74 */
(PID.TID 0000.0001)                 1.000175041689580E+04,      /* J = 75 */
(PID.TID 0000.0001)                 1.005726855190695E+04,      /* J = 76 */
(PID.TID 0000.0001)                 1.011275605073392E+04,      /* J = 77 */
(PID.TID 0000.0001)                 1.016821274435215E+04,      /* J = 78 */
(PID.TID 0000.0001)      . . .
(PID.TID 0000.0001)                 1.127061807330668E+04,      /* J = 98 */
(PID.TID 0000.0001)                 1.132538898360582E+04,      /* J = 99 */
(PID.TID 0000.0001)                 1.138012539480601E+04       /* J =100 */
(PID.TID 0000.0001)     ;
(PID.TID 0000.0001) dyC =  /* dyC(:,1,:,1) ( units: m ) */
(PID.TID 0000.0001)    50 @  1.111774733520388E+04              /* I =  1: 50 */
(PID.TID 0000.0001)     ;
(PID.TID 0000.0001) dyC =  /* dyC(1,:,1,:) ( units: m ) */
(PID.TID 0000.0001)   100 @  1.111774733520388E+04              /* J =  1:100 */
(PID.TID 0000.0001)     ;
(PID.TID 0000.0001) dxV =  /* dxV(:,1,:,1) ( units: m ) */
(PID.TID 0000.0001)    50 @  5.791729693558576E+03              /* I =  1: 50 */
(PID.TID 0000.0001)     ;
(PID.TID 0000.0001) dxV =  /* dxV(1,:,1,:) ( units: m ) */
(PID.TID 0000.0001)                 5.791729693558576E+03,      /* J =  1 */
(PID.TID 0000.0001)                 5.849048855077854E+03,      /* J =  2 */
(PID.TID 0000.0001)                 5.906350199379949E+03,      /* J =  3 */
(PID.TID 0000.0001)      . . .
(PID.TID 0000.0001)                 7.048367077963129E+03,      /* J = 23 */
(PID.TID 0000.0001)                 7.105254027978149E+03,      /* J = 24 */
(PID.TID 0000.0001)                 7.162119334157175E+03,      /* J = 25 */
(PID.TID 0000.0001)                 7.218962823278620E+03,      /* J = 26 */
(PID.TID 0000.0001)                 7.275784322187360E+03,      /* J = 27 */
(PID.TID 0000.0001)                 7.332583657795253E+03,      /* J = 28 */
(PID.TID 0000.0001)      . . .
(PID.TID 0000.0001)                 8.463650136583461E+03,      /* J = 48 */
(PID.TID 0000.0001)                 8.519944183739159E+03,      /* J = 49 */
(PID.TID 0000.0001)                 8.576212277667308E+03,      /* J = 50 */
(PID.TID 0000.0001)                 8.632454246965530E+03,      /* J = 51 */
(PID.TID 0000.0001)                 8.688669920311038E+03,      /* J = 52 */
(PID.TID 0000.0001)                 8.744859126461139E+03,      /* J = 53 */
(PID.TID 0000.0001)      . . .
(PID.TID 0000.0001)                 9.862822156126382E+03,      /* J = 73 */
(PID.TID 0000.0001)                 9.918416141504455E+03,      /* J = 74 */
(PID.TID 0000.0001)                 9.973979913666863E+03,      /* J = 75 */
(PID.TID 0000.0001)                 1.002951330335672E+04,      /* J = 76 */
(PID.TID 0000.0001)                 1.008501614140969E+04,      /* J = 77 */
(PID.TID 0000.0001)                 1.014048825875450E+04,      /* J = 78 */
(PID.TID 0000.0001)      . . .
(PID.TID 0000.0001)                 1.124321973312895E+04,      /* J = 98 */
(PID.TID 0000.0001)                 1.129800783041847E+04,      /* J = 99 */
(PID.TID 0000.0001)                 1.135276151201679E+04       /* J =100 */
(PID.TID 0000.0001)     ;
(PID.TID 0000.0001) dyU =  /* dyU(:,1,:,1) ( units: m ) */
(PID.TID 0000.0001)    50 @  1.111774733520388E+04              /* I =  1: 50 */
(PID.TID 0000.0001)     ;
(PID.TID 0000.0001) dyU =  /* dyU(1,:,1,:) ( units: m ) */
(PID.TID 0000.0001)   100 @  1.111774733520388E+04              /* J =  1:100 */
(PID.TID 0000.0001)     ;
(PID.TID 0000.0001) rA  =  /* rA (:,1,:,1) ( units: m^2 ) */
(PID.TID 0000.0001)    50 @  6.470963377080289E+07              /* I =  1: 50 */
(PID.TID 0000.0001)     ;
(PID.TID 0000.0001) rA  =  /* rA (1,:,1,:) ( units: m^2 ) */
(PID.TID 0000.0001)                 6.470963377080289E+07,      /* J =  1 */
(PID.TID 0000.0001)                 6.534679484410104E+07,      /* J =  2 */
(PID.TID 0000.0001)                 6.598375685977945E+07,      /* J =  3 */
(PID.TID 0000.0001)      . . .
(PID.TID 0000.0001)                 7.867821163932665E+07,      /* J = 23 */
(PID.TID 0000.0001)                 7.931054622142966E+07,      /* J = 24 */
(PID.TID 0000.0001)                 7.994263920984067E+07,      /* J = 25 */
(PID.TID 0000.0001)                 8.057448867913349E+07,      /* J = 26 */
(PID.TID 0000.0001)                 8.120609270456599E+07,      /* J = 27 */
(PID.TID 0000.0001)                 8.183744936212724E+07,      /* J = 28 */
(PID.TID 0000.0001)      . . .
(PID.TID 0000.0001)                 9.440967921416211E+07,      /* J = 48 */
(PID.TID 0000.0001)                 9.503539809503193E+07,      /* J = 49 */
(PID.TID 0000.0001)                 9.566082748163140E+07,      /* J = 50 */
(PID.TID 0000.0001)                 9.628596546870193E+07,      /* J = 51 */
(PID.TID 0000.0001)                 9.691081015209354E+07,      /* J = 52 */
(PID.TID 0000.0001)                 9.753535962826957E+07,      /* J = 53 */
(PID.TID 0000.0001)      . . .
(PID.TID 0000.0001)                 1.099614325987181E+08,      /* J = 73 */
(PID.TID 0000.0001)                 1.105793446869293E+08,      /* J = 74 */
(PID.TID 0000.0001)                 1.111969199312560E+08,      /* J = 75 */
(PID.TID 0000.0001)                 1.118141564504991E+08,      /* J = 76 */
(PID.TID 0000.0001)                 1.124310523644033E+08,      /* J = 77 */
(PID.TID 0000.0001)                 1.130476057938687E+08,      /* J = 78 */
(PID.TID 0000.0001)      . . .
(PID.TID 0000.0001)                 1.253038681465364E+08,      /* J = 98 */
(PID.TID 0000.0001)                 1.259127972112936E+08,      /* J = 99 */
(PID.TID 0000.0001)                 1.265213427237870E+08       /* J =100 */
(PID.TID 0000.0001)     ;
(PID.TID 0000.0001) rAw =  /* rAw(:,1,:,1) ( units: m^2 ) */
(PID.TID 0000.0001)    50 @  6.470963377080289E+07              /* I =  1: 50 */
(PID.TID 0000.0001)     ;
(PID.TID 0000.0001) rAw =  /* rAw(1,:,1,:) ( units: m^2 ) */
(PID.TID 0000.0001)                 6.470963377080289E+07,      /* J =  1 */
(PID.TID 0000.0001)                 6.534679484410104E+07,      /* J =  2 */
(PID.TID 0000.0001)                 6.598375685977945E+07,      /* J =  3 */
(PID.TID 0000.0001)      . . .
(PID.TID 0000.0001)                 7.867821163932665E+07,      /* J = 23 */
(PID.TID 0000.0001)                 7.931054622142966E+07,      /* J = 24 */
(PID.TID 0000.0001)                 7.994263920984067E+07,      /* J = 25 */
(PID.TID 0000.0001)                 8.057448867913349E+07,      /* J = 26 */
(PID.TID 0000.0001)                 8.120609270456599E+07,      /* J = 27 */
(PID.TID 0000.0001)                 8.183744936212724E+07,      /* J = 28 */
(PID.TID 0000.0001)      . . .
(PID.TID 0000.0001)                 9.440967921416211E+07,      /* J = 48 */
(PID.TID 0000.0001)                 9.503539809503193E+07,      /* J = 49 */
(PID.TID 0000.0001)                 9.566082748163140E+07,      /* J = 50 */
(PID.TID 0000.0001)                 9.628596546870193E+07,      /* J = 51 */
(PID.TID 0000.0001)                 9.691081015209354E+07,      /* J = 52 */
(PID.TID 0000.0001)                 9.753535962826957E+07,      /* J = 53 */
(PID.TID 0000.0001)      . . .
(PID.TID 0000.0001)                 1.099614325987181E+08,      /* J = 73 */
(PID.TID 0000.0001)                 1.105793446869293E+08,      /* J = 74 */
(PID.TID 0000.0001)                 1.111969199312560E+08,      /* J = 75 */
(PID.TID 0000.0001)                 1.118141564504991E+08,      /* J = 76 */
(PID.TID 0000.0001)                 1.124310523644033E+08,      /* J = 77 */
(PID.TID 0000.0001)                 1.130476057938687E+08,      /* J = 78 */
(PID.TID 0000.0001)      . . .
(PID.TID 0000.0001)                 1.253038681465364E+08,      /* J = 98 */
(PID.TID 0000.0001)                 1.259127972112936E+08,      /* J = 99 */
(PID.TID 0000.0001)                 1.265213427237870E+08       /* J =100 */
(PID.TID 0000.0001)     ;
(PID.TID 0000.0001) rAs =  /* rAs(:,1,:,1) ( units: m^2 ) */
(PID.TID 0000.0001)    50 @  6.439097919401864E+07              /* I =  1: 50 */
(PID.TID 0000.0001)     ;
(PID.TID 0000.0001) rAs =  /* rAs(1,:,1,:) ( units: m^2 ) */
(PID.TID 0000.0001)                 6.439097919401864E+07,      /* J =  1 */
(PID.TID 0000.0001)                 6.502823906837179E+07,      /* J =  2 */
(PID.TID 0000.0001)                 6.566530085543716E+07,      /* J =  3 */
(PID.TID 0000.0001)      . . .
(PID.TID 0000.0001)                 7.836195435256335E+07,      /* J = 23 */
(PID.TID 0000.0001)                 7.899440900921808E+07,      /* J = 24 */
(PID.TID 0000.0001)                 7.962662303520055E+07,      /* J = 25 */
(PID.TID 0000.0001)                 8.025859450470714E+07,      /* J = 26 */
(PID.TID 0000.0001)                 8.089032149259475E+07,      /* J = 27 */
(PID.TID 0000.0001)                 8.152180207452223E+07,      /* J = 28 */
(PID.TID 0000.0001)      . . .
(PID.TID 0000.0001)                 9.409671180895932E+07,      /* J = 48 */
(PID.TID 0000.0001)                 9.472257472228888E+07,      /* J = 49 */
(PID.TID 0000.0001)                 9.534814909420149E+07,      /* J = 50 */
(PID.TID 0000.0001)                 9.597343301913190E+07,      /* J = 51 */
(PID.TID 0000.0001)                 9.659842459236403E+07,      /* J = 52 */
(PID.TID 0000.0001)                 9.722312190998378E+07,      /* J = 53 */
(PID.TID 0000.0001)      . . .
(PID.TID 0000.0001)                 1.096523508263446E+08,      /* J = 73 */
(PID.TID 0000.0001)                 1.102704306306916E+08,      /* J = 74 */
(PID.TID 0000.0001)                 1.108881745321664E+08,      /* J = 75 */
(PID.TID 0000.0001)                 1.115055806490511E+08,      /* J = 76 */
(PID.TID 0000.0001)                 1.121226471005947E+08,      /* J = 77 */
(PID.TID 0000.0001)                 1.127393720071080E+08,      /* J = 78 */
(PID.TID 0000.0001)      . . .
(PID.TID 0000.0001)                 1.249992603617116E+08,      /* J = 98 */
(PID.TID 0000.0001)                 1.256083805070198E+08,      /* J = 99 */
(PID.TID 0000.0001)                 1.262171180274426E+08       /* J =100 */
(PID.TID 0000.0001)     ;
(PID.TID 0000.0001) globalArea = /* Integrated horizontal Area (m^2) */
(PID.TID 0000.0001)                 4.665024516720134E+11
(PID.TID 0000.0001)     ;
(PID.TID 0000.0001) // =======================================================
(PID.TID 0000.0001) // End of Model config. summary
(PID.TID 0000.0001) // =======================================================
(PID.TID 0000.0001) 
(PID.TID 0000.0001) == Packages configuration : Check & print summary ==
(PID.TID 0000.0001) 
(PID.TID 0000.0001) SHELFICE_CHECK: #define ALLOW_SHELFICE
(PID.TID 0000.0001) CTRL_CHECK: ctrl package
(PID.TID 0000.0001) COST_CHECK: cost package
(PID.TID 0000.0001) GRDCHK_CHECK: grdchk package
(PID.TID 0000.0001) GAD_CHECK: #define ALLOW_GENERIC_ADVDIFF
(PID.TID 0000.0001) // =======================================================
(PID.TID 0000.0001) // CONFIG_CHECK : Normal End
(PID.TID 0000.0001) // =======================================================
(PID.TID 0000.0001) 
(PID.TID 0000.0001) INI_CG2D: CG2D normalisation factor =  1.0404366262810520E-03
(PID.TID 0000.0001) 
(PID.TID 0000.0001)  nRecords = 243 ; filePrec =  64 ; fileIter =      8640
(PID.TID 0000.0001)     nDims =   2 , dims:
(PID.TID 0000.0001)    1:  50   1  50
(PID.TID 0000.0001)    2: 100   1 100
(PID.TID 0000.0001)     nFlds =  11 , nFl3D =   8 , fields:
(PID.TID 0000.0001)  >Uvel    < >Vvel    < >Theta   < >Salt    < >GuNm1   < >GvNm1   < >GtNm1   < >GsNm1   < >EtaN    < >dEtaHdt < >EtaH    <
(PID.TID 0000.0001)   nTimRec =   0 , timeList:
(PID.TID 0000.0001) READ_MFLDS_3D_RL: read field: "Uvel    ", #   1 in fldList, rec=   1
(PID.TID 0000.0001) READ_MFLDS_3D_RL: read field: "Vvel    ", #   2 in fldList, rec=   2
(PID.TID 0000.0001) READ_MFLDS_3D_RL: read field: "Theta   ", #   3 in fldList, rec=   3
(PID.TID 0000.0001) READ_MFLDS_3D_RL: read field: "Salt    ", #   4 in fldList, rec=   4
(PID.TID 0000.0001) READ_MFLDS_3D_RL: read field: "GuNm1   ", #   5 in fldList, rec=   5
(PID.TID 0000.0001) READ_MFLDS_3D_RL: read field: "GvNm1   ", #   6 in fldList, rec=   6
(PID.TID 0000.0001) READ_MFLDS_3D_RL: read field: "GtNm1   ", #   7 in fldList, rec=   7
(PID.TID 0000.0001) READ_MFLDS_3D_RL: read field: "GsNm1   ", #   8 in fldList, rec=   8
(PID.TID 0000.0001) READ_MFLDS_3D_RL: read field: "EtaN    ", #   9 in fldList, rec= 241
(PID.TID 0000.0001) READ_MFLDS_3D_RL: read field: "dEtaHdt ", #  10 in fldList, rec= 242
(PID.TID 0000.0001) READ_MFLDS_3D_RL: read field: "EtaH    ", #  11 in fldList, rec= 243
(PID.TID 0000.0001) READ_MFLDS_CHECK: - normal end ; reset MFLDS file-name: pickup.0000008640
 SURF_ADJUSTMENT: Iter=        -1 Nb_pts,Vol=       343  8.64061790E+10
 SURF_ADJUSTMENT: Iter=      8640 Nb_pts,Vol=       343  8.64061794E+10
(PID.TID 0000.0001) // =======================================================
(PID.TID 0000.0001) // Begin MONITOR dynamic field statistics
(PID.TID 0000.0001) // =======================================================
(PID.TID 0000.0001) %MON time_tsnumber                =                  8640
(PID.TID 0000.0001) %MON time_secondsf                =   1.5552000000000E+07
(PID.TID 0000.0001) %MON dynstat_eta_max              =   1.1547478263152E-02
(PID.TID 0000.0001) %MON dynstat_eta_min              =  -2.6792518859505E-03
(PID.TID 0000.0001) %MON dynstat_eta_mean             =  -2.8068109805926E-16
(PID.TID 0000.0001) %MON dynstat_eta_sd               =   1.0200397966504E-03
(PID.TID 0000.0001) %MON dynstat_eta_del2             =   2.5371559200346E-05
(PID.TID 0000.0001) %MON dynstat_uvel_max             =   7.0225293882088E-03
(PID.TID 0000.0001) %MON dynstat_uvel_min             =  -1.1431056075099E-02
(PID.TID 0000.0001) %MON dynstat_uvel_mean            =   2.7714308408867E-05
(PID.TID 0000.0001) %MON dynstat_uvel_sd              =   1.1597613875186E-03
(PID.TID 0000.0001) %MON dynstat_uvel_del2            =   1.3535706652903E-06
(PID.TID 0000.0001) %MON dynstat_vvel_max             =   3.9338955473099E-02
(PID.TID 0000.0001) %MON dynstat_vvel_min             =  -1.3256941080851E-02
(PID.TID 0000.0001) %MON dynstat_vvel_mean            =   4.8656105946971E-07
(PID.TID 0000.0001) %MON dynstat_vvel_sd              =   2.7777746829805E-03
(PID.TID 0000.0001) %MON dynstat_vvel_del2            =   4.9315502354929E-06
(PID.TID 0000.0001) %MON dynstat_wvel_max             =   4.2878246713501E-05
(PID.TID 0000.0001) %MON dynstat_wvel_min             =  -1.2010769874736E-04
(PID.TID 0000.0001) %MON dynstat_wvel_mean            =   6.0608187872178E-12
(PID.TID 0000.0001) %MON dynstat_wvel_sd              =   4.2035962324366E-06
(PID.TID 0000.0001) %MON dynstat_wvel_del2            =   1.8678097711372E-08
(PID.TID 0000.0001) %MON dynstat_theta_max            =  -1.8364995507330E+00
(PID.TID 0000.0001) %MON dynstat_theta_min            =  -2.0000000000000E+00
(PID.TID 0000.0001) %MON dynstat_theta_mean           =  -1.9143211407061E+00
(PID.TID 0000.0001) %MON dynstat_theta_sd             =   3.1120635711534E-02
(PID.TID 0000.0001) %MON dynstat_theta_del2           =   6.3329018210602E-06
(PID.TID 0000.0001) %MON dynstat_salt_max             =   3.4425235078521E+01
(PID.TID 0000.0001) %MON dynstat_salt_min             =   3.4119681589956E+01
(PID.TID 0000.0001) %MON dynstat_salt_mean            =   3.4391202129073E+01
(PID.TID 0000.0001) %MON dynstat_salt_sd              =   2.4001470464679E-02
(PID.TID 0000.0001) %MON dynstat_salt_del2            =   3.6379539423634E-06
(PID.TID 0000.0001) %MON advcfl_uvel_max              =   3.4012427019763E-03
(PID.TID 0000.0001) %MON advcfl_vvel_max              =   6.3691067728586E-03
(PID.TID 0000.0001) %MON advcfl_wvel_max              =   7.2064619248418E-03
(PID.TID 0000.0001) %MON advcfl_W_hf_max              =   7.2064619248418E-03
(PID.TID 0000.0001) %MON pe_b_mean                    =   8.1394707749097E-09
(PID.TID 0000.0001) %MON ke_max                       =   7.7392672876306E-04
(PID.TID 0000.0001) %MON ke_mean                      =   4.4718480429073E-06
(PID.TID 0000.0001) %MON ke_vol                       =   2.9250345890999E+14
(PID.TID 0000.0001) %MON vort_r_min                   =  -2.3549373278644E-06
(PID.TID 0000.0001) %MON vort_r_max                   =   4.2468259247500E-06
(PID.TID 0000.0001) %MON vort_a_mean                  =  -1.4007437274364E-04
(PID.TID 0000.0001) %MON vort_a_sd                    =   1.7886551130468E-06
(PID.TID 0000.0001) %MON vort_p_mean                  =  -1.5035286409096E-04
(PID.TID 0000.0001) %MON vort_p_sd                    =   7.4650169174600E-05
(PID.TID 0000.0001) %MON surfExpan_theta_mean         =  -8.1445679796965E-23
(PID.TID 0000.0001) %MON surfExpan_salt_mean          =   1.1664850444969E-10
(PID.TID 0000.0001) // =======================================================
(PID.TID 0000.0001) // End MONITOR dynamic field statistics
(PID.TID 0000.0001) // =======================================================
(PID.TID 0000.0001) SOLVE_FOR_PRESSURE: putPmEinXvector =    F
 cg2d: Sum(rhs),rhsMax =   7.94736970460494E-13  5.27879962774467E-02
(PID.TID 0000.0001)                    cg2d_init_res =    5.68552511024113E+00
(PID.TID 0000.0001)                       cg2d_iters =   208
(PID.TID 0000.0001)                         cg2d_res =    7.96992759281891E-14
 SURF_ADJUSTMENT: Iter=      8641 Nb_pts,Vol=       343  8.64319980E+10
(PID.TID 0000.0001) // =======================================================
(PID.TID 0000.0001) // Begin MONITOR dynamic field statistics
(PID.TID 0000.0001) // =======================================================
(PID.TID 0000.0001) %MON time_tsnumber                =                  8641
(PID.TID 0000.0001) %MON time_secondsf                =   1.5553800000000E+07
(PID.TID 0000.0001) %MON dynstat_eta_max              =   1.6226833149937E-02
(PID.TID 0000.0001) %MON dynstat_eta_min              =  -8.0241380819163E-03
(PID.TID 0000.0001) %MON dynstat_eta_mean             =  -2.8019488468198E-16
(PID.TID 0000.0001) %MON dynstat_eta_sd               =   1.0058016438335E-03
(PID.TID 0000.0001) %MON dynstat_eta_del2             =   2.6540208095402E-05
(PID.TID 0000.0001) %MON dynstat_uvel_max             =   6.9633703375320E-03
(PID.TID 0000.0001) %MON dynstat_uvel_min             =  -1.2086746113396E-02
(PID.TID 0000.0001) %MON dynstat_uvel_mean            =   2.4861869786433E-05
(PID.TID 0000.0001) %MON dynstat_uvel_sd              =   1.1698791094731E-03
(PID.TID 0000.0001) %MON dynstat_uvel_del2            =   1.7014012479410E-06
(PID.TID 0000.0001) %MON dynstat_vvel_max             =   4.1403495510507E-02
(PID.TID 0000.0001) %MON dynstat_vvel_min             =  -1.3258888217828E-02
(PID.TID 0000.0001) %MON dynstat_vvel_mean            =   4.7274491814642E-06
(PID.TID 0000.0001) %MON dynstat_vvel_sd              =   2.7807705548688E-03
(PID.TID 0000.0001) %MON dynstat_vvel_del2            =   4.9351410405172E-06
(PID.TID 0000.0001) %MON dynstat_wvel_max             =   6.3920549231317E-05
(PID.TID 0000.0001) %MON dynstat_wvel_min             =  -1.2002663948464E-04
(PID.TID 0000.0001) %MON dynstat_wvel_mean            =   3.7803244801538E-09
(PID.TID 0000.0001) %MON dynstat_wvel_sd              =   4.1390138005572E-06
(PID.TID 0000.0001) %MON dynstat_wvel_del2            =   1.8821381017469E-08
(PID.TID 0000.0001) %MON dynstat_theta_max            =  -1.8769133293577E+00
(PID.TID 0000.0001) %MON dynstat_theta_min            =  -2.0039541742478E+00
(PID.TID 0000.0001) %MON dynstat_theta_mean           =  -1.9143649706436E+00
(PID.TID 0000.0001) %MON dynstat_theta_sd             =   3.1239861809683E-02
(PID.TID 0000.0001) %MON dynstat_theta_del2           =   6.2797474269967E-06
(PID.TID 0000.0001) %MON dynstat_salt_max             =   3.4409203425016E+01
(PID.TID 0000.0001) %MON dynstat_salt_min             =   3.4118327357799E+01
(PID.TID 0000.0001) %MON dynstat_salt_mean            =   3.4391184702196E+01
(PID.TID 0000.0001) %MON dynstat_salt_sd              =   2.4079775891797E-02
(PID.TID 0000.0001) %MON dynstat_salt_del2            =   3.6752905508879E-06
(PID.TID 0000.0001) %MON advcfl_uvel_max              =   3.5963393704612E-03
(PID.TID 0000.0001) %MON advcfl_vvel_max              =   6.7033626212144E-03
(PID.TID 0000.0001) %MON advcfl_wvel_max              =   7.2015983690782E-03
(PID.TID 0000.0001) %MON advcfl_W_hf_max              =   8.2536162581703E-03
(PID.TID 0000.0001) %MON pe_b_mean                    =  -3.5881411408130E-07
(PID.TID 0000.0001) %MON ke_max                       =   7.7997968771676E-04
(PID.TID 0000.0001) %MON ke_mean                      =   4.4915588113952E-06
(PID.TID 0000.0001) %MON ke_vol                       =   2.9250345891036E+14
(PID.TID 0000.0001) %MON vort_r_min                   =  -2.3577016281591E-06
(PID.TID 0000.0001) %MON vort_r_max                   =   4.3101771129570E-06
(PID.TID 0000.0001) %MON vort_a_mean                  =  -1.4007437273731E-04
(PID.TID 0000.0001) %MON vort_a_sd                    =   1.7887997066359E-06
(PID.TID 0000.0001) %MON vort_p_mean                  =  -1.5035286408468E-04
(PID.TID 0000.0001) %MON vort_p_sd                    =   7.4646066835771E-05
(PID.TID 0000.0001) %MON surfExpan_theta_mean         =   2.6839940595963E-11
(PID.TID 0000.0001) %MON surfExpan_salt_mean          =   1.9380416399431E-09
(PID.TID 0000.0001) // =======================================================
(PID.TID 0000.0001) // End MONITOR dynamic field statistics
(PID.TID 0000.0001) // =======================================================
 cg2d: Sum(rhs),rhsMax =   6.09356640667025E-13  6.89222812810889E-02
(PID.TID 0000.0001)                    cg2d_init_res =    1.44853626476651E+01
(PID.TID 0000.0001)                       cg2d_iters =   212
(PID.TID 0000.0001)                         cg2d_res =    8.82497664547317E-14
 SURF_ADJUSTMENT: Iter=      8642 Nb_pts,Vol=       343  8.64329516E+10
(PID.TID 0000.0001) // =======================================================
(PID.TID 0000.0001) // Begin MONITOR dynamic field statistics
(PID.TID 0000.0001) // =======================================================
(PID.TID 0000.0001) %MON time_tsnumber                =                  8642
(PID.TID 0000.0001) %MON time_secondsf                =   1.5555600000000E+07
(PID.TID 0000.0001) %MON dynstat_eta_max              =   1.5141246180582E-02
(PID.TID 0000.0001) %MON dynstat_eta_min              =  -9.8761664193713E-03
(PID.TID 0000.0001) %MON dynstat_eta_mean             =  -2.7997129690132E-16
(PID.TID 0000.0001) %MON dynstat_eta_sd               =   1.0612245387182E-03
(PID.TID 0000.0001) %MON dynstat_eta_del2             =   2.7629085803745E-05
(PID.TID 0000.0001) %MON dynstat_uvel_max             =   6.8618297917834E-03
(PID.TID 0000.0001) %MON dynstat_uvel_min             =  -1.2293722875334E-02
(PID.TID 0000.0001) %MON dynstat_uvel_mean            =   2.4896913929612E-05
(PID.TID 0000.0001) %MON dynstat_uvel_sd              =   1.1769922815201E-03
(PID.TID 0000.0001) %MON dynstat_uvel_del2            =   2.0528128289978E-06
(PID.TID 0000.0001) %MON dynstat_vvel_max             =   4.1021106103178E-02
(PID.TID 0000.0001) %MON dynstat_vvel_min             =  -1.3243010025256E-02
(PID.TID 0000.0001) %MON dynstat_vvel_mean            =  -1.5591395388143E-07
(PID.TID 0000.0001) %MON dynstat_vvel_sd              =   2.7027429397502E-03
(PID.TID 0000.0001) %MON dynstat_vvel_del2            =   4.7768412937286E-06
(PID.TID 0000.0001) %MON dynstat_wvel_max             =   5.3709759565176E-05
(PID.TID 0000.0001) %MON dynstat_wvel_min             =  -1.2011728572023E-04
(PID.TID 0000.0001) %MON dynstat_wvel_mean            =   1.1606409350514E-09
(PID.TID 0000.0001) %MON dynstat_wvel_sd              =   4.0506043745120E-06
(PID.TID 0000.0001) %MON dynstat_wvel_del2            =   1.7749800499093E-08
(PID.TID 0000.0001) %MON dynstat_theta_max            =  -1.8819014818968E+00
(PID.TID 0000.0001) %MON dynstat_theta_min            =  -2.0064116740261E+00
(PID.TID 0000.0001) %MON dynstat_theta_mean           =  -1.9143923725316E+00
(PID.TID 0000.0001) %MON dynstat_theta_sd             =   3.1315463636870E-02
(PID.TID 0000.0001) %MON dynstat_theta_del2           =   6.2568062537037E-06
(PID.TID 0000.0001) %MON dynstat_salt_max             =   3.4407234546266E+01
(PID.TID 0000.0001) %MON dynstat_salt_min             =   3.4117526354060E+01
(PID.TID 0000.0001) %MON dynstat_salt_mean            =   3.4391173810004E+01
(PID.TID 0000.0001) %MON dynstat_salt_sd              =   2.4128438714219E-02
(PID.TID 0000.0001) %MON dynstat_salt_del2            =   3.6989662468416E-06
(PID.TID 0000.0001) %MON advcfl_uvel_max              =   3.6579240741314E-03
(PID.TID 0000.0001) %MON advcfl_vvel_max              =   6.6414525136685E-03
(PID.TID 0000.0001) %MON advcfl_wvel_max              =   7.2070371432135E-03
(PID.TID 0000.0001) %MON advcfl_W_hf_max              =   7.2070371432135E-03
(PID.TID 0000.0001) %MON pe_b_mean                    =  -3.7410967138472E-07
(PID.TID 0000.0001) %MON ke_max                       =   7.6330520662409E-04
(PID.TID 0000.0001) %MON ke_mean                      =   4.2883067130892E-06
(PID.TID 0000.0001) %MON ke_vol                       =   2.9250348472901E+14
(PID.TID 0000.0001) %MON vort_r_min                   =  -2.4337888518985E-06
(PID.TID 0000.0001) %MON vort_r_max                   =   4.2571732727344E-06
(PID.TID 0000.0001) %MON vort_a_mean                  =  -1.4007437268903E-04
(PID.TID 0000.0001) %MON vort_a_sd                    =   1.7870795681346E-06
(PID.TID 0000.0001) %MON vort_p_mean                  =  -1.5035285109642E-04
(PID.TID 0000.0001) %MON vort_p_sd                    =   7.4652286062691E-05
(PID.TID 0000.0001) %MON surfExpan_theta_mean         =   9.9880528467790E-12
(PID.TID 0000.0001) %MON surfExpan_salt_mean          =   4.2151259997620E-10
(PID.TID 0000.0001) // =======================================================
(PID.TID 0000.0001) // End MONITOR dynamic field statistics
(PID.TID 0000.0001) // =======================================================
 cg2d: Sum(rhs),rhsMax =   5.08044425756235E-13  8.30033658997357E-02
(PID.TID 0000.0001)                    cg2d_init_res =    1.22360226362976E+01
(PID.TID 0000.0001)                       cg2d_iters =   209
(PID.TID 0000.0001)                         cg2d_res =    9.17123244594649E-14
 SURF_ADJUSTMENT: Iter=      8643 Nb_pts,Vol=       343  8.64325785E+10
(PID.TID 0000.0001) // =======================================================
(PID.TID 0000.0001) // Begin MONITOR dynamic field statistics
(PID.TID 0000.0001) // =======================================================
(PID.TID 0000.0001) %MON time_tsnumber                =                  8643
(PID.TID 0000.0001) %MON time_secondsf                =   1.5557400000000E+07
(PID.TID 0000.0001) %MON dynstat_eta_max              =   1.5393024271490E-02
(PID.TID 0000.0001) %MON dynstat_eta_min              =  -1.1404765836374E-02
(PID.TID 0000.0001) %MON dynstat_eta_mean             =  -2.8008490002348E-16
(PID.TID 0000.0001) %MON dynstat_eta_sd               =   1.1201129821884E-03
(PID.TID 0000.0001) %MON dynstat_eta_del2             =   2.9559661096591E-05
(PID.TID 0000.0001) %MON dynstat_uvel_max             =   6.9797979568547E-03
(PID.TID 0000.0001) %MON dynstat_uvel_min             =  -1.2553937546058E-02
(PID.TID 0000.0001) %MON dynstat_uvel_mean            =   2.5075724445634E-05
(PID.TID 0000.0001) %MON dynstat_uvel_sd              =   1.2032277134313E-03
(PID.TID 0000.0001) %MON dynstat_uvel_del2            =   2.8083629428324E-06
(PID.TID 0000.0001) %MON dynstat_vvel_max             =   3.9239990486272E-02
(PID.TID 0000.0001) %MON dynstat_vvel_min             =  -1.3238913202595E-02
(PID.TID 0000.0001) %MON dynstat_vvel_mean            =  -8.3568471592271E-06
(PID.TID 0000.0001) %MON dynstat_vvel_sd              =   2.5964088258944E-03
(PID.TID 0000.0001) %MON dynstat_vvel_del2            =   4.8731013308293E-06
(PID.TID 0000.0001) %MON dynstat_wvel_max             =   4.7253046588877E-05
(PID.TID 0000.0001) %MON dynstat_wvel_min             =  -1.2022730456842E-04
(PID.TID 0000.0001) %MON dynstat_wvel_mean            =  -5.0242599878039E-09
(PID.TID 0000.0001) %MON dynstat_wvel_sd              =   4.0240590767162E-06
(PID.TID 0000.0001) %MON dynstat_wvel_del2            =   1.7397870403559E-08
(PID.TID 0000.0001) %MON dynstat_theta_max            =  -1.8848513039972E+00
(PID.TID 0000.0001) %MON dynstat_theta_min            =  -2.0088616142582E+00
(PID.TID 0000.0001) %MON dynstat_theta_mean           =  -1.9144196815480E+00
(PID.TID 0000.0001) %MON dynstat_theta_sd             =   3.1391498034149E-02
(PID.TID 0000.0001) %MON dynstat_theta_del2           =   6.2399141000031E-06
(PID.TID 0000.0001) %MON dynstat_salt_max             =   3.4406075370991E+01
(PID.TID 0000.0001) %MON dynstat_salt_min             =   3.4116727590863E+01
(PID.TID 0000.0001) %MON dynstat_salt_mean            =   3.4391162963151E+01
(PID.TID 0000.0001) %MON dynstat_salt_sd              =   2.4176991722384E-02
(PID.TID 0000.0001) %MON dynstat_salt_del2            =   3.7234817416149E-06
(PID.TID 0000.0001) %MON advcfl_uvel_max              =   3.7159262974808E-03
(PID.TID 0000.0001) %MON advcfl_vvel_max              =   6.3530840147479E-03
(PID.TID 0000.0001) %MON advcfl_wvel_max              =   7.2136382741051E-03
(PID.TID 0000.0001) %MON advcfl_W_hf_max              =   7.2136382741051E-03
(PID.TID 0000.0001) %MON pe_b_mean                    =  -4.1971661074097E-07
(PID.TID 0000.0001) %MON ke_max                       =   7.4886776621205E-04
(PID.TID 0000.0001) %MON ke_mean                      =   4.0405023755833E-06
(PID.TID 0000.0001) %MON ke_vol                       =   2.9250348568263E+14
(PID.TID 0000.0001) %MON vort_r_min                   =  -2.6073584275883E-06
(PID.TID 0000.0001) %MON vort_r_max                   =   4.1727181784197E-06
(PID.TID 0000.0001) %MON vort_a_mean                  =  -1.4007437251683E-04
(PID.TID 0000.0001) %MON vort_a_sd                    =   1.7855700741177E-06
(PID.TID 0000.0001) %MON vort_p_mean                  =  -1.5035285068332E-04
(PID.TID 0000.0001) %MON vort_p_sd                    =   7.4661252674831E-05
(PID.TID 0000.0001) %MON surfExpan_theta_mean         =  -5.2485525822760E-11
(PID.TID 0000.0001) %MON surfExpan_salt_mean          =  -9.7199327725460E-10
(PID.TID 0000.0001) // =======================================================
(PID.TID 0000.0001) // End MONITOR dynamic field statistics
(PID.TID 0000.0001) // =======================================================
 cg2d: Sum(rhs),rhsMax =   4.30497759836002E-13  9.80476981168039E-02
(PID.TID 0000.0001)                    cg2d_init_res =    1.08094292026418E+01
(PID.TID 0000.0001)                       cg2d_iters =   208
(PID.TID 0000.0001)                         cg2d_res =    9.44440912178700E-14
 SURF_ADJUSTMENT: Iter=      8644 Nb_pts,Vol=       343  8.64310080E+10
(PID.TID 0000.0001) // =======================================================
(PID.TID 0000.0001) // Begin MONITOR dynamic field statistics
(PID.TID 0000.0001) // =======================================================
(PID.TID 0000.0001) %MON time_tsnumber                =                  8644
(PID.TID 0000.0001) %MON time_secondsf                =   1.5559200000000E+07
(PID.TID 0000.0001) %MON dynstat_eta_max              =   1.7514151818963E-02
(PID.TID 0000.0001) %MON dynstat_eta_min              =  -1.2998945376967E-02
(PID.TID 0000.0001) %MON dynstat_eta_mean             =  -2.7988091849300E-16
(PID.TID 0000.0001) %MON dynstat_eta_sd               =   1.1914514855917E-03
(PID.TID 0000.0001) %MON dynstat_eta_del2             =   3.1796011462447E-05
(PID.TID 0000.0001) %MON dynstat_uvel_max             =   1.1370220502666E-02
(PID.TID 0000.0001) %MON dynstat_uvel_min             =  -1.7371029920221E-02
(PID.TID 0000.0001) %MON dynstat_uvel_mean            =   2.4230669770256E-05
(PID.TID 0000.0001) %MON dynstat_uvel_sd              =   1.2628026750766E-03
(PID.TID 0000.0001) %MON dynstat_uvel_del2            =   3.8884215517262E-06
(PID.TID 0000.0001) %MON dynstat_vvel_max             =   3.8631469791283E-02
(PID.TID 0000.0001) %MON dynstat_vvel_min             =  -1.3252622742653E-02
(PID.TID 0000.0001) %MON dynstat_vvel_mean            =  -1.8068072503972E-05
(PID.TID 0000.0001) %MON dynstat_vvel_sd              =   2.4851007485978E-03
(PID.TID 0000.0001) %MON dynstat_vvel_del2            =   5.4522506213077E-06
(PID.TID 0000.0001) %MON dynstat_wvel_max             =   4.5439336652069E-05
(PID.TID 0000.0001) %MON dynstat_wvel_min             =  -1.2036709348958E-04
(PID.TID 0000.0001) %MON dynstat_wvel_mean            =  -1.0608318828412E-08
(PID.TID 0000.0001) %MON dynstat_wvel_sd              =   4.0337193016288E-06
(PID.TID 0000.0001) %MON dynstat_wvel_del2            =   1.7308883588271E-08
(PID.TID 0000.0001) %MON dynstat_theta_max            =  -1.8867162858851E+00
(PID.TID 0000.0001) %MON dynstat_theta_min            =  -2.0112997290040E+00
(PID.TID 0000.0001) %MON dynstat_theta_mean           =  -1.9144468555505E+00
(PID.TID 0000.0001) %MON dynstat_theta_sd             =   3.1467808542122E-02
(PID.TID 0000.0001) %MON dynstat_theta_del2           =   6.2287422199955E-06
(PID.TID 0000.0001) %MON dynstat_salt_max             =   3.4405347356706E+01
(PID.TID 0000.0001) %MON dynstat_salt_min             =   3.4115935495257E+01
(PID.TID 0000.0001) %MON dynstat_salt_mean            =   3.4391152169780E+01
(PID.TID 0000.0001) %MON dynstat_salt_sd              =   2.4225359045101E-02
(PID.TID 0000.0001) %MON dynstat_salt_del2            =   3.7491109315420E-06
(PID.TID 0000.0001) %MON advcfl_uvel_max              =   4.8478863760925E-03
(PID.TID 0000.0001) %MON advcfl_vvel_max              =   6.2545625051331E-03
(PID.TID 0000.0001) %MON advcfl_wvel_max              =   7.2220256093748E-03
(PID.TID 0000.0001) %MON advcfl_W_hf_max              =   7.2220256093748E-03
(PID.TID 0000.0001) %MON pe_b_mean                    =  -5.0376150077325E-07
(PID.TID 0000.0001) %MON ke_max                       =   7.3030009199743E-04
(PID.TID 0000.0001) %MON ke_mean                      =   3.8330837340863E-06
(PID.TID 0000.0001) %MON ke_vol                       =   2.9250348530947E+14
(PID.TID 0000.0001) %MON vort_r_min                   =  -2.8336510622229E-06
(PID.TID 0000.0001) %MON vort_r_max                   =   4.4074483026131E-06
(PID.TID 0000.0001) %MON vort_a_mean                  =  -1.4007437209591E-04
(PID.TID 0000.0001) %MON vort_a_sd                    =   1.7854104116300E-06
(PID.TID 0000.0001) %MON vort_p_mean                  =  -1.5035285059856E-04
(PID.TID 0000.0001) %MON vort_p_sd                    =   7.4673180007538E-05
(PID.TID 0000.0001) %MON surfExpan_theta_mean         =  -1.4193004613096E-10
(PID.TID 0000.0001) %MON surfExpan_salt_mean          =  -2.1617597616896E-09
(PID.TID 0000.0001) // =======================================================
(PID.TID 0000.0001) // End MONITOR dynamic field statistics
(PID.TID 0000.0001) // =======================================================
 cg2d: Sum(rhs),rhsMax =   3.64783981558585E-13  1.14437850755897E-01
(PID.TID 0000.0001)                    cg2d_init_res =    9.68788197011829E+00
(PID.TID 0000.0001)                       cg2d_iters =   209
(PID.TID 0000.0001)                         cg2d_res =    7.99925235291918E-14
 SURF_ADJUSTMENT: Iter=      8645 Nb_pts,Vol=       343  8.64281826E+10
(PID.TID 0000.0001) // =======================================================
(PID.TID 0000.0001) // Begin MONITOR dynamic field statistics
(PID.TID 0000.0001) // =======================================================
(PID.TID 0000.0001) %MON time_tsnumber                =                  8645
(PID.TID 0000.0001) %MON time_secondsf                =   1.5561000000000E+07
(PID.TID 0000.0001) %MON dynstat_eta_max              =   1.9847725191656E-02
(PID.TID 0000.0001) %MON dynstat_eta_min              =  -1.4835615707231E-02
(PID.TID 0000.0001) %MON dynstat_eta_mean             =  -2.7978285396879E-16
(PID.TID 0000.0001) %MON dynstat_eta_sd               =   1.2894504267078E-03
(PID.TID 0000.0001) %MON dynstat_eta_del2             =   3.4561443639801E-05
(PID.TID 0000.0001) %MON dynstat_uvel_max             =   1.6880779232969E-02
(PID.TID 0000.0001) %MON dynstat_uvel_min             =  -2.2782210852810E-02
(PID.TID 0000.0001) %MON dynstat_uvel_mean            =   2.2167493159805E-05
(PID.TID 0000.0001) %MON dynstat_uvel_sd              =   1.3599108164337E-03
(PID.TID 0000.0001) %MON dynstat_uvel_del2            =   5.1348628889734E-06
(PID.TID 0000.0001) %MON dynstat_vvel_max             =   3.8885369811270E-02
(PID.TID 0000.0001) %MON dynstat_vvel_min             =  -1.5119781908854E-02
(PID.TID 0000.0001) %MON dynstat_vvel_mean            =  -2.7366251351099E-05
(PID.TID 0000.0001) %MON dynstat_vvel_sd              =   2.3948967841702E-03
(PID.TID 0000.0001) %MON dynstat_vvel_del2            =   6.5324812061129E-06
(PID.TID 0000.0001) %MON dynstat_wvel_max             =   5.1339795222530E-05
(PID.TID 0000.0001) %MON dynstat_wvel_min             =  -1.2053606668147E-04
(PID.TID 0000.0001) %MON dynstat_wvel_mean            =  -1.4177190430747E-08
(PID.TID 0000.0001) %MON dynstat_wvel_sd              =   4.0835252183174E-06
(PID.TID 0000.0001) %MON dynstat_wvel_del2            =   1.7555881555059E-08
(PID.TID 0000.0001) %MON dynstat_theta_max            =  -1.8880265598716E+00
(PID.TID 0000.0001) %MON dynstat_theta_min            =  -2.0137313923461E+00
(PID.TID 0000.0001) %MON dynstat_theta_mean           =  -1.9144738955367E+00
(PID.TID 0000.0001) %MON dynstat_theta_sd             =   3.1544377602369E-02
(PID.TID 0000.0001) %MON dynstat_theta_del2           =   6.2231386085971E-06
(PID.TID 0000.0001) %MON dynstat_salt_max             =   3.4404839660150E+01
(PID.TID 0000.0001) %MON dynstat_salt_min             =   3.4115149299052E+01
(PID.TID 0000.0001) %MON dynstat_salt_mean            =   3.4391141428183E+01
(PID.TID 0000.0001) %MON dynstat_salt_sd              =   2.4273544642899E-02
(PID.TID 0000.0001) %MON dynstat_salt_del2            =   3.7758552002203E-06
(PID.TID 0000.0001) %MON advcfl_uvel_max              =   6.3580323169003E-03
(PID.TID 0000.0001) %MON advcfl_vvel_max              =   6.2956697566470E-03
(PID.TID 0000.0001) %MON advcfl_wvel_max              =   7.2321640008882E-03
(PID.TID 0000.0001) %MON advcfl_W_hf_max              =   7.2321640008882E-03
(PID.TID 0000.0001) %MON pe_b_mean                    =  -6.2137262365169E-07
(PID.TID 0000.0001) %MON ke_max                       =   7.1111819014469E-04
(PID.TID 0000.0001) %MON ke_mean                      =   3.7404793751422E-06
(PID.TID 0000.0001) %MON ke_vol                       =   2.9250348373901E+14
(PID.TID 0000.0001) %MON vort_r_min                   =  -3.0487760687739E-06
(PID.TID 0000.0001) %MON vort_r_max                   =   5.7536518770440E-06
(PID.TID 0000.0001) %MON vort_a_mean                  =  -1.4007437127430E-04
(PID.TID 0000.0001) %MON vort_a_sd                    =   1.7875506744225E-06
(PID.TID 0000.0001) %MON vort_p_mean                  =  -1.5035285068237E-04
(PID.TID 0000.0001) %MON vort_p_sd                    =   7.4687327549616E-05
(PID.TID 0000.0001) %MON surfExpan_theta_mean         =  -2.2986987952990E-10
(PID.TID 0000.0001) %MON surfExpan_salt_mean          =  -2.8955081063821E-09
(PID.TID 0000.0001) // =======================================================
(PID.TID 0000.0001) // End MONITOR dynamic field statistics
(PID.TID 0000.0001) // =======================================================
 cg2d: Sum(rhs),rhsMax =   3.15471973088947E-13  1.32278984753067E-01
(PID.TID 0000.0001)                    cg2d_init_res =    8.84332348283348E+00
(PID.TID 0000.0001)                       cg2d_iters =   208
(PID.TID 0000.0001)                         cg2d_res =    8.97374871525843E-14
 SURF_ADJUSTMENT: Iter=      8646 Nb_pts,Vol=       343  8.64244212E+10
(PID.TID 0000.0001) // =======================================================
(PID.TID 0000.0001) // Begin MONITOR dynamic field statistics
(PID.TID 0000.0001) // =======================================================
(PID.TID 0000.0001) %MON time_tsnumber                =                  8646
(PID.TID 0000.0001) %MON time_secondsf                =   1.5562800000000E+07
(PID.TID 0000.0001) %MON dynstat_eta_max              =   2.2406481559830E-02
(PID.TID 0000.0001) %MON dynstat_eta_min              =  -1.6960276119814E-02
(PID.TID 0000.0001) %MON dynstat_eta_mean             =  -2.7975663466433E-16
(PID.TID 0000.0001) %MON dynstat_eta_sd               =   1.4157790034352E-03
(PID.TID 0000.0001) %MON dynstat_eta_del2             =   3.7860571545787E-05
(PID.TID 0000.0001) %MON dynstat_uvel_max             =   2.2469607813303E-02
(PID.TID 0000.0001) %MON dynstat_uvel_min             =  -2.8469978158402E-02
(PID.TID 0000.0001) %MON dynstat_uvel_mean            =   1.9258660035687E-05
(PID.TID 0000.0001) %MON dynstat_uvel_sd              =   1.4883407388185E-03
(PID.TID 0000.0001) %MON dynstat_uvel_del2            =   6.4197585630655E-06
(PID.TID 0000.0001) %MON dynstat_vvel_max             =   4.2232847588704E-02
(PID.TID 0000.0001) %MON dynstat_vvel_min             =  -2.6207118196477E-02
(PID.TID 0000.0001) %MON dynstat_vvel_mean            =  -3.4351821850009E-05
(PID.TID 0000.0001) %MON dynstat_vvel_sd              =   2.3481703966142E-03
(PID.TID 0000.0001) %MON dynstat_vvel_del2            =   7.9643513315380E-06
(PID.TID 0000.0001) %MON dynstat_wvel_max             =   5.7207039820231E-05
(PID.TID 0000.0001) %MON dynstat_wvel_min             =  -1.2072066309903E-04
(PID.TID 0000.0001) %MON dynstat_wvel_mean            =  -1.5296580089994E-08
(PID.TID 0000.0001) %MON dynstat_wvel_sd              =   4.1754604754949E-06
(PID.TID 0000.0001) %MON dynstat_wvel_del2            =   1.8150142904648E-08
(PID.TID 0000.0001) %MON dynstat_theta_max            =  -1.8889854338438E+00
(PID.TID 0000.0001) %MON dynstat_theta_min            =  -2.0161521676019E+00
(PID.TID 0000.0001) %MON dynstat_theta_mean           =  -1.9145008022488E+00
(PID.TID 0000.0001) %MON dynstat_theta_sd             =   3.1621190207382E-02
(PID.TID 0000.0001) %MON dynstat_theta_del2           =   6.2229386278822E-06
(PID.TID 0000.0001) %MON dynstat_salt_max             =   3.4404471269249E+01
(PID.TID 0000.0001) %MON dynstat_salt_min             =   3.4114367236228E+01
(PID.TID 0000.0001) %MON dynstat_salt_mean            =   3.4391130737576E+01
(PID.TID 0000.0001) %MON dynstat_salt_sd              =   2.4321549538629E-02
(PID.TID 0000.0001) %MON dynstat_salt_del2            =   3.8037007899395E-06
(PID.TID 0000.0001) %MON advcfl_uvel_max              =   7.9453676538261E-03
(PID.TID 0000.0001) %MON advcfl_vvel_max              =   6.8376374608691E-03
(PID.TID 0000.0001) %MON advcfl_wvel_max              =   7.2432397859416E-03
(PID.TID 0000.0001) %MON advcfl_W_hf_max              =   7.2432397859416E-03
(PID.TID 0000.0001) %MON pe_b_mean                    =  -7.5772973354096E-07
(PID.TID 0000.0001) %MON ke_max                       =   8.0378337302613E-04
(PID.TID 0000.0001) %MON ke_mean                      =   3.8102902639584E-06
(PID.TID 0000.0001) %MON ke_vol                       =   2.9250348091363E+14
(PID.TID 0000.0001) %MON vort_r_min                   =  -4.1179628367589E-06
(PID.TID 0000.0001) %MON vort_r_max                   =   7.1863445622514E-06
(PID.TID 0000.0001) %MON vort_a_mean                  =  -1.4007436990899E-04
(PID.TID 0000.0001) %MON vort_a_sd                    =   1.7925166936363E-06
(PID.TID 0000.0001) %MON vort_p_mean                  =  -1.5035285082657E-04
(PID.TID 0000.0001) %MON vort_p_sd                    =   7.4702946995365E-05
(PID.TID 0000.0001) %MON surfExpan_theta_mean         =  -2.9060442144311E-10
(PID.TID 0000.0001) %MON surfExpan_salt_mean          =  -3.0979452770191E-09
(PID.TID 0000.0001) // =======================================================
(PID.TID 0000.0001) // End MONITOR dynamic field statistics
(PID.TID 0000.0001) // =======================================================
 cg2d: Sum(rhs),rhsMax =   2.74349038495783E-13  1.51611291202112E-01
(PID.TID 0000.0001)                    cg2d_init_res =    8.20462686407349E+00
(PID.TID 0000.0001)                       cg2d_iters =   207
(PID.TID 0000.0001)                         cg2d_res =    8.96645770115227E-14
 SURF_ADJUSTMENT: Iter=      8647 Nb_pts,Vol=       343  8.64203113E+10
(PID.TID 0000.0001) // =======================================================
(PID.TID 0000.0001) // Begin MONITOR dynamic field statistics
(PID.TID 0000.0001) // =======================================================
(PID.TID 0000.0001) %MON time_tsnumber                =                  8647
(PID.TID 0000.0001) %MON time_secondsf                =   1.5564600000000E+07
(PID.TID 0000.0001) %MON dynstat_eta_max              =   2.5151540858060E-02
(PID.TID 0000.0001) %MON dynstat_eta_min              =  -1.9445391564864E-02
(PID.TID 0000.0001) %MON dynstat_eta_mean             =  -2.7954889325898E-16
(PID.TID 0000.0001) %MON dynstat_eta_sd               =   1.5607169883828E-03
(PID.TID 0000.0001) %MON dynstat_eta_del2             =   4.1685105769247E-05
(PID.TID 0000.0001) %MON dynstat_uvel_max             =   2.7883508062910E-02
(PID.TID 0000.0001) %MON dynstat_uvel_min             =  -3.4150786828826E-02
(PID.TID 0000.0001) %MON dynstat_uvel_mean            =   1.6045484382056E-05
(PID.TID 0000.0001) %MON dynstat_uvel_sd              =   1.6357861424009E-03
(PID.TID 0000.0001) %MON dynstat_uvel_del2            =   7.6524352020112E-06
(PID.TID 0000.0001) %MON dynstat_vvel_max             =   4.5262415656301E-02
(PID.TID 0000.0001) %MON dynstat_vvel_min             =  -3.7314915526352E-02
(PID.TID 0000.0001) %MON dynstat_vvel_mean            =  -3.7373661805933E-05
(PID.TID 0000.0001) %MON dynstat_vvel_sd              =   2.3573283123375E-03
(PID.TID 0000.0001) %MON dynstat_vvel_del2            =   9.5822605561717E-06
(PID.TID 0000.0001) %MON dynstat_wvel_max             =   6.2774021545608E-05
(PID.TID 0000.0001) %MON dynstat_wvel_min             =  -1.2090944550556E-04
(PID.TID 0000.0001) %MON dynstat_wvel_mean            =  -1.4078352752357E-08
(PID.TID 0000.0001) %MON dynstat_wvel_sd              =   4.3082509008934E-06
(PID.TID 0000.0001) %MON dynstat_wvel_del2            =   1.9059138890724E-08
(PID.TID 0000.0001) %MON dynstat_theta_max            =  -1.8896974645694E+00
(PID.TID 0000.0001) %MON dynstat_theta_min            =  -2.0185601705009E+00
(PID.TID 0000.0001) %MON dynstat_theta_mean           =  -1.9145275765613E+00
(PID.TID 0000.0001) %MON dynstat_theta_sd             =   3.1698232843185E-02
(PID.TID 0000.0001) %MON dynstat_theta_del2           =   6.2279726481854E-06
(PID.TID 0000.0001) %MON dynstat_salt_max             =   3.4404200453912E+01
(PID.TID 0000.0001) %MON dynstat_salt_min             =   3.4113588157062E+01
(PID.TID 0000.0001) %MON dynstat_salt_mean            =   3.4391120097577E+01
(PID.TID 0000.0001) %MON dynstat_salt_sd              =   2.4369372859903E-02
(PID.TID 0000.0001) %MON dynstat_salt_del2            =   3.8326234143963E-06
(PID.TID 0000.0001) %MON advcfl_uvel_max              =   9.5307609831231E-03
(PID.TID 0000.0001) %MON advcfl_vvel_max              =   7.3281345334556E-03
(PID.TID 0000.0001) %MON advcfl_wvel_max              =   7.2545667303339E-03
(PID.TID 0000.0001) %MON advcfl_W_hf_max              =   7.3307499673187E-03
(PID.TID 0000.0001) %MON pe_b_mean                    =  -8.9378275701653E-07
(PID.TID 0000.0001) %MON ke_max                       =   9.8555031140477E-04
(PID.TID 0000.0001) %MON ke_mean                      =   4.0572535358065E-06
(PID.TID 0000.0001) %MON ke_vol                       =   2.9250347715217E+14
(PID.TID 0000.0001) %MON vort_r_min                   =  -5.8633472876454E-06
(PID.TID 0000.0001) %MON vort_r_max                   =   8.7956979191099E-06
(PID.TID 0000.0001) %MON vort_a_mean                  =  -1.4007436794413E-04
(PID.TID 0000.0001) %MON vort_a_sd                    =   1.8003514925474E-06
(PID.TID 0000.0001) %MON vort_p_mean                  =  -1.5035285078698E-04
(PID.TID 0000.0001) %MON vort_p_sd                    =   7.4719269870127E-05
(PID.TID 0000.0001) %MON surfExpan_theta_mean         =  -3.0590920419866E-10
(PID.TID 0000.0001) %MON surfExpan_salt_mean          =  -2.8108741599570E-09
(PID.TID 0000.0001) // =======================================================
(PID.TID 0000.0001) // End MONITOR dynamic field statistics
(PID.TID 0000.0001) // =======================================================
 cg2d: Sum(rhs),rhsMax =   2.43573824304510E-13  1.72463286850144E-01
(PID.TID 0000.0001)                    cg2d_init_res =    7.71959293108251E+00
(PID.TID 0000.0001)                       cg2d_iters =   205
(PID.TID 0000.0001)                         cg2d_res =    9.33664267953686E-14
 SURF_ADJUSTMENT: Iter=      8648 Nb_pts,Vol=       343  8.64165427E+10
(PID.TID 0000.0001) // =======================================================
(PID.TID 0000.0001) // Begin MONITOR dynamic field statistics
(PID.TID 0000.0001) // =======================================================
(PID.TID 0000.0001) %MON time_tsnumber                =                  8648
(PID.TID 0000.0001) %MON time_secondsf                =   1.5566400000000E+07
(PID.TID 0000.0001) %MON dynstat_eta_max              =   2.8024188926568E-02
(PID.TID 0000.0001) %MON dynstat_eta_min              =  -2.2374660760858E-02
(PID.TID 0000.0001) %MON dynstat_eta_mean             =  -2.8041526159605E-16
(PID.TID 0000.0001) %MON dynstat_eta_sd               =   1.7097298398231E-03
(PID.TID 0000.0001) %MON dynstat_eta_del2             =   4.6029389322115E-05
(PID.TID 0000.0001) %MON dynstat_uvel_max             =   3.6279554756922E-02
(PID.TID 0000.0001) %MON dynstat_uvel_min             =  -3.9591315004855E-02
(PID.TID 0000.0001) %MON dynstat_uvel_mean            =   1.2962773691741E-05
(PID.TID 0000.0001) %MON dynstat_uvel_sd              =   1.7889808223292E-03
(PID.TID 0000.0001) %MON dynstat_uvel_del2            =   8.7761486595246E-06
(PID.TID 0000.0001) %MON dynstat_vvel_max             =   4.8316271578787E-02
(PID.TID 0000.0001) %MON dynstat_vvel_min             =  -4.7955572298092E-02
(PID.TID 0000.0001) %MON dynstat_vvel_mean            =  -3.5378304360888E-05
(PID.TID 0000.0001) %MON dynstat_vvel_sd              =   2.4214540333061E-03
(PID.TID 0000.0001) %MON dynstat_vvel_del2            =   1.1267441065737E-05
(PID.TID 0000.0001) %MON dynstat_wvel_max             =   6.7864277406070E-05
(PID.TID 0000.0001) %MON dynstat_wvel_min             =  -1.2109391005905E-04
(PID.TID 0000.0001) %MON dynstat_wvel_mean            =  -1.0901824072289E-08
(PID.TID 0000.0001) %MON dynstat_wvel_sd              =   4.4759592924893E-06
(PID.TID 0000.0001) %MON dynstat_wvel_del2            =   2.0218128427218E-08
(PID.TID 0000.0001) %MON dynstat_theta_max            =  -1.8902290205076E+00
(PID.TID 0000.0001) %MON dynstat_theta_min            =  -2.0209555090421E+00
(PID.TID 0000.0001) %MON dynstat_theta_mean           =  -1.9145542194215E+00
(PID.TID 0000.0001) %MON dynstat_theta_sd             =   3.1775492877749E-02
(PID.TID 0000.0001) %MON dynstat_theta_del2           =   6.2380751295866E-06
(PID.TID 0000.0001) %MON dynstat_salt_max             =   3.4404000685811E+01
(PID.TID 0000.0001) %MON dynstat_salt_min             =   3.4112811467404E+01
(PID.TID 0000.0001) %MON dynstat_salt_mean            =   3.4391109507986E+01
(PID.TID 0000.0001) %MON dynstat_salt_sd              =   2.4417013109961E-02
(PID.TID 0000.0001) %MON dynstat_salt_del2            =   3.8625916238223E-06
(PID.TID 0000.0001) %MON advcfl_uvel_max              =   1.1049097117736E-02
(PID.TID 0000.0001) %MON advcfl_vvel_max              =   7.8225638899376E-03
(PID.TID 0000.0001) %MON advcfl_wvel_max              =   7.2656346035429E-03
(PID.TID 0000.0001) %MON advcfl_W_hf_max              =   9.9214194273849E-03
(PID.TID 0000.0001) %MON pe_b_mean                    =  -1.0108895833061E-06
(PID.TID 0000.0001) %MON ke_max                       =   1.2120820040265E-03
(PID.TID 0000.0001) %MON ke_mean                      =   4.4655330561275E-06
(PID.TID 0000.0001) %MON ke_vol                       =   2.9250347304230E+14
(PID.TID 0000.0001) %MON vort_r_min                   =  -7.5353292589642E-06
(PID.TID 0000.0001) %MON vort_r_max                   =   1.0946419234659E-05
(PID.TID 0000.0001) %MON vort_a_mean                  =  -1.4007436551210E-04
(PID.TID 0000.0001) %MON vort_a_sd                    =   1.8106864861043E-06
(PID.TID 0000.0001) %MON vort_p_mean                  =  -1.5035285040580E-04
(PID.TID 0000.0001) %MON vort_p_sd                    =   7.4735520526205E-05
(PID.TID 0000.0001) %MON surfExpan_theta_mean         =  -2.6568501986138E-10
(PID.TID 0000.0001) %MON surfExpan_salt_mean          =  -2.1248381262425E-09
(PID.TID 0000.0001) // =======================================================
(PID.TID 0000.0001) // End MONITOR dynamic field statistics
(PID.TID 0000.0001) // =======================================================
 cg2d: Sum(rhs),rhsMax =   2.14048966268657E-13  1.94860196410857E-01
(PID.TID 0000.0001)                    cg2d_init_res =    7.35011818130783E+00
(PID.TID 0000.0001)                       cg2d_iters =   206
(PID.TID 0000.0001)                         cg2d_res =    9.52318577537261E-14
 SURF_ADJUSTMENT: Iter=      8649 Nb_pts,Vol=       343  8.64137714E+10
(PID.TID 0000.0001) // =======================================================
(PID.TID 0000.0001) // Begin MONITOR dynamic field statistics
(PID.TID 0000.0001) // =======================================================
(PID.TID 0000.0001) %MON time_tsnumber                =                  8649
(PID.TID 0000.0001) %MON time_secondsf                =   1.5568200000000E+07
(PID.TID 0000.0001) %MON dynstat_eta_max              =   3.0967593489183E-02
(PID.TID 0000.0001) %MON dynstat_eta_min              =  -2.5824818705192E-02
(PID.TID 0000.0001) %MON dynstat_eta_mean             =  -2.7984116530264E-16
(PID.TID 0000.0001) %MON dynstat_eta_sd               =   1.8488360169648E-03
(PID.TID 0000.0001) %MON dynstat_eta_del2             =   5.0894136760861E-05
(PID.TID 0000.0001) %MON dynstat_uvel_max             =   4.5695109757094E-02
(PID.TID 0000.0001) %MON dynstat_uvel_min             =  -4.4617931951066E-02
(PID.TID 0000.0001) %MON dynstat_uvel_mean            =   1.0285003957862E-05
(PID.TID 0000.0001) %MON dynstat_uvel_sd              =   1.9368807222945E-03
(PID.TID 0000.0001) %MON dynstat_uvel_del2            =   9.7662274520099E-06
(PID.TID 0000.0001) %MON dynstat_vvel_max             =   5.2381689475824E-02
(PID.TID 0000.0001) %MON dynstat_vvel_min             =  -5.7736983120738E-02
(PID.TID 0000.0001) %MON dynstat_vvel_mean            =  -2.8180032554185E-05
(PID.TID 0000.0001) %MON dynstat_vvel_sd              =   2.5286737138132E-03
(PID.TID 0000.0001) %MON dynstat_vvel_del2            =   1.2949688344915E-05
(PID.TID 0000.0001) %MON dynstat_wvel_max             =   7.2391353891519E-05
(PID.TID 0000.0001) %MON dynstat_wvel_min             =  -1.2126576781246E-04
(PID.TID 0000.0001) %MON dynstat_wvel_mean            =  -6.2717170483316E-09
(PID.TID 0000.0001) %MON dynstat_wvel_sd              =   4.6681832514200E-06
(PID.TID 0000.0001) %MON dynstat_wvel_del2            =   2.1549314761563E-08
(PID.TID 0000.0001) %MON dynstat_theta_max            =  -1.8906268463716E+00
(PID.TID 0000.0001) %MON dynstat_theta_min            =  -2.0233383100787E+00
(PID.TID 0000.0001) %MON dynstat_theta_mean           =  -1.9145807317615E+00
(PID.TID 0000.0001) %MON dynstat_theta_sd             =   3.1852958132735E-02
(PID.TID 0000.0001) %MON dynstat_theta_del2           =   6.2530828415573E-06
(PID.TID 0000.0001) %MON dynstat_salt_max             =   3.4403853252922E+01
(PID.TID 0000.0001) %MON dynstat_salt_min             =   3.4112036804170E+01
(PID.TID 0000.0001) %MON dynstat_salt_mean            =   3.4391098968704E+01
(PID.TID 0000.0001) %MON dynstat_salt_sd              =   2.4464468585312E-02
(PID.TID 0000.0001) %MON dynstat_salt_del2            =   3.8935654460712E-06
(PID.TID 0000.0001) %MON advcfl_uvel_max              =   1.2451919398470E-02
(PID.TID 0000.0001) %MON advcfl_vvel_max              =   9.3478081920650E-03
(PID.TID 0000.0001) %MON advcfl_wvel_max              =   7.2759460687478E-03
(PID.TID 0000.0001) %MON advcfl_W_hf_max              =   1.3290484665519E-02
(PID.TID 0000.0001) %MON pe_b_mean                    =  -1.0935099225175E-06
(PID.TID 0000.0001) %MON ke_max                       =   1.4581098041848E-03
(PID.TID 0000.0001) %MON ke_mean                      =   4.9974374056738E-06
(PID.TID 0000.0001) %MON ke_vol                       =   2.9250346927367E+14
(PID.TID 0000.0001) %MON vort_r_min                   =  -9.0722966567814E-06
(PID.TID 0000.0001) %MON vort_r_max                   =   1.3026338311769E-05
(PID.TID 0000.0001) %MON vort_a_mean                  =  -1.4007436298721E-04
(PID.TID 0000.0001) %MON vort_a_sd                    =   1.8229018047000E-06
(PID.TID 0000.0001) %MON vort_p_mean                  =  -1.5035284977302E-04
(PID.TID 0000.0001) %MON vort_p_sd                    =   7.4750963532759E-05
(PID.TID 0000.0001) %MON surfExpan_theta_mean         =  -1.6766998773023E-10
(PID.TID 0000.0001) %MON surfExpan_salt_mean          =  -1.1474815169503E-09
(PID.TID 0000.0001) // =======================================================
(PID.TID 0000.0001) // End MONITOR dynamic field statistics
(PID.TID 0000.0001) // =======================================================
 cg2d: Sum(rhs),rhsMax =   1.93241175014749E-13  2.18828142464126E-01
(PID.TID 0000.0001)                    cg2d_init_res =    7.06806473721547E+00
(PID.TID 0000.0001)                       cg2d_iters =   206
(PID.TID 0000.0001)                         cg2d_res =    8.02997648813185E-14
 SURF_ADJUSTMENT: Iter=      8650 Nb_pts,Vol=       343  8.64125255E+10
(PID.TID 0000.0001) // =======================================================
(PID.TID 0000.0001) // Begin MONITOR dynamic field statistics
(PID.TID 0000.0001) // =======================================================
(PID.TID 0000.0001) %MON time_tsnumber                =                  8650
(PID.TID 0000.0001) %MON time_secondsf                =   1.5570000000000E+07
(PID.TID 0000.0001) %MON dynstat_eta_max              =   3.3939435250799E-02
(PID.TID 0000.0001) %MON dynstat_eta_min              =  -2.9854640686644E-02
(PID.TID 0000.0001) %MON dynstat_eta_mean             =  -2.8022360779693E-16
(PID.TID 0000.0001) %MON dynstat_eta_sd               =   1.9677529541325E-03
(PID.TID 0000.0001) %MON dynstat_eta_del2             =   5.6288446079496E-05
(PID.TID 0000.0001) %MON dynstat_uvel_max             =   5.5885135689742E-02
(PID.TID 0000.0001) %MON dynstat_uvel_min             =  -4.9121053720247E-02
(PID.TID 0000.0001) %MON dynstat_uvel_mean            =   8.1972789588925E-06
(PID.TID 0000.0001) %MON dynstat_uvel_sd              =   2.0719355054591E-03
(PID.TID 0000.0001) %MON dynstat_uvel_del2            =   1.0628310559309E-05
(PID.TID 0000.0001) %MON dynstat_vvel_max             =   5.6721817895787E-02
(PID.TID 0000.0001) %MON dynstat_vvel_min             =  -6.6376984424027E-02
(PID.TID 0000.0001) %MON dynstat_vvel_mean            =  -1.6511019116960E-05
(PID.TID 0000.0001) %MON dynstat_vvel_sd              =   2.6624203391835E-03
(PID.TID 0000.0001) %MON dynstat_vvel_del2            =   1.4597125597820E-05
(PID.TID 0000.0001) %MON dynstat_wvel_max             =   7.6707394254451E-05
(PID.TID 0000.0001) %MON dynstat_wvel_min             =  -1.2141590816584E-04
(PID.TID 0000.0001) %MON dynstat_wvel_mean            =  -7.5459184803538E-10
(PID.TID 0000.0001) %MON dynstat_wvel_sd              =   4.8716185326659E-06
(PID.TID 0000.0001) %MON dynstat_wvel_del2            =   2.2979380786223E-08
(PID.TID 0000.0001) %MON dynstat_theta_max            =  -1.8909252190282E+00
(PID.TID 0000.0001) %MON dynstat_theta_min            =  -2.0257087208331E+00
(PID.TID 0000.0001) %MON dynstat_theta_mean           =  -1.9146071144700E+00
(PID.TID 0000.0001) %MON dynstat_theta_sd             =   3.1930616563233E-02
(PID.TID 0000.0001) %MON dynstat_theta_del2           =   6.2741357676341E-06
(PID.TID 0000.0001) %MON dynstat_salt_max             =   3.4403744426573E+01
(PID.TID 0000.0001) %MON dynstat_salt_min             =   3.4111263903266E+01
(PID.TID 0000.0001) %MON dynstat_salt_mean            =   3.4391088479722E+01
(PID.TID 0000.0001) %MON dynstat_salt_sd              =   2.4511737402568E-02
(PID.TID 0000.0001) %MON dynstat_salt_del2            =   3.9255039839213E-06
(PID.TID 0000.0001) %MON advcfl_uvel_max              =   1.4506939674367E-02
(PID.TID 0000.0001) %MON advcfl_vvel_max              =   1.0746652928955E-02
(PID.TID 0000.0001) %MON advcfl_wvel_max              =   7.2849544899506E-03
(PID.TID 0000.0001) %MON advcfl_W_hf_max              =   1.6730642134549E-02
(PID.TID 0000.0001) %MON pe_b_mean                    =  -1.1305726375863E-06
(PID.TID 0000.0001) %MON ke_max                       =   1.8743135079428E-03
(PID.TID 0000.0001) %MON ke_mean                      =   5.6054068345568E-06
(PID.TID 0000.0001) %MON ke_vol                       =   2.9250346650236E+14
(PID.TID 0000.0001) %MON vort_r_min                   =  -1.0429912706351E-05
(PID.TID 0000.0001) %MON vort_r_max                   =   1.5008884672195E-05
(PID.TID 0000.0001) %MON vort_a_mean                  =  -1.4007436093225E-04
(PID.TID 0000.0001) %MON vort_a_sd                    =   1.8363182688216E-06
(PID.TID 0000.0001) %MON vort_p_mean                  =  -1.5035284919112E-04
(PID.TID 0000.0001) %MON vort_p_sd                    =   7.4764963102536E-05
(PID.TID 0000.0001) %MON surfExpan_theta_mean         =  -1.7184670487194E-11
(PID.TID 0000.0001) %MON surfExpan_salt_mean          =   6.1629764594790E-12
(PID.TID 0000.0001) // =======================================================
(PID.TID 0000.0001) // End MONITOR dynamic field statistics
(PID.TID 0000.0001) // =======================================================
(PID.TID 0000.0001) %CHECKPOINT      8650 ckptA
 --> objf_shelfice(bi,bj) =  0.000000000000000D+00
 --> objf_shifwflx(bi,bj) =  0.000000000000000D+00
 --> objf_test(bi,bj)   =  0.370477598618925D+06
 --> objf_tracer(bi,bj) =  0.000000000000000D+00
 --> objf_atl(bi,bj)    =  0.000000000000000D+00
  local fc =  0.370477598618925D+06
 global fc =  0.370477598618925D+06
(PID.TID 0000.0001) SOLVE_FOR_PRESSURE: putPmEinXvector =    F
 cg2d: Sum(rhs),rhsMax =   7.94736970460494E-13  5.27879962774467E-02
 SURF_ADJUSTMENT: Iter=      8641 Nb_pts,Vol=       343  8.64319980E+10
 cg2d: Sum(rhs),rhsMax =   6.09356640667025E-13  6.89222812810889E-02
 SURF_ADJUSTMENT: Iter=      8642 Nb_pts,Vol=       343  8.64329516E+10
 cg2d: Sum(rhs),rhsMax =   5.08044425756235E-13  8.30033658997357E-02
 SURF_ADJUSTMENT: Iter=      8643 Nb_pts,Vol=       343  8.64325785E+10
 cg2d: Sum(rhs),rhsMax =   4.30497759836002E-13  9.80476981168039E-02
 SURF_ADJUSTMENT: Iter=      8644 Nb_pts,Vol=       343  8.64310080E+10
 cg2d: Sum(rhs),rhsMax =   3.64783981558585E-13  1.14437850755897E-01
 SURF_ADJUSTMENT: Iter=      8645 Nb_pts,Vol=       343  8.64281826E+10
 cg2d: Sum(rhs),rhsMax =   3.15471973088947E-13  1.32278984753067E-01
 SURF_ADJUSTMENT: Iter=      8646 Nb_pts,Vol=       343  8.64244212E+10
 cg2d: Sum(rhs),rhsMax =   2.74349038495783E-13  1.51611291202112E-01
 SURF_ADJUSTMENT: Iter=      8647 Nb_pts,Vol=       343  8.64203113E+10
 cg2d: Sum(rhs),rhsMax =   2.43573824304510E-13  1.72463286850144E-01
 SURF_ADJUSTMENT: Iter=      8648 Nb_pts,Vol=       343  8.64165427E+10
 cg2d: Sum(rhs),rhsMax =   2.14048966268657E-13  1.94860196410857E-01
 SURF_ADJUSTMENT: Iter=      8649 Nb_pts,Vol=       343  8.64137714E+10
 cg2d: Sum(rhs),rhsMax =   1.93241175014749E-13  2.18828142464126E-01
 SURF_ADJUSTMENT: Iter=      8650 Nb_pts,Vol=       343  8.64125255E+10
(PID.TID 0000.0001) Did not write pickup because writePickupAtEnd = FALSE
 cg2d: Sum(rhs),rhsMax =   2.14048966268657E-13  1.94860196410857E-01
 SURF_ADJUSTMENT: Iter=      8649 Nb_pts,Vol=       343  8.64137714E+10
 cg2d: Sum(rhs),rhsMax =   1.93241175014749E-13  2.18828142464126E-01
 SURF_ADJUSTMENT: Iter=      8650 Nb_pts,Vol=       343  8.64125255E+10
(PID.TID 0000.0001) Did not write pickup because writePickupAtEnd = FALSE
 cg2d: Sum(rhs),rhsMax =   1.93241175014749E-13  2.18828142464126E-01
(PID.TID 0000.0001) Did not write pickup because writePickupAtEnd = FALSE
(PID.TID 0000.0001) // =======================================================
(PID.TID 0000.0001) // Begin MONITOR dynamic field statistics
(PID.TID 0000.0001) // =======================================================
(PID.TID 0000.0001) %MON ad_time_tsnumber             =                  8650
(PID.TID 0000.0001) %MON ad_time_secondsf             =   1.5570000000000E+07
(PID.TID 0000.0001) %MON ad_dynstat_adeta_max         =   0.0000000000000E+00
(PID.TID 0000.0001) %MON ad_dynstat_adeta_min         =   0.0000000000000E+00
(PID.TID 0000.0001) %MON ad_dynstat_adeta_mean        =   0.0000000000000E+00
(PID.TID 0000.0001) %MON ad_dynstat_adeta_sd          =   0.0000000000000E+00
(PID.TID 0000.0001) %MON ad_dynstat_adeta_del2        =   0.0000000000000E+00
(PID.TID 0000.0001) %MON ad_dynstat_aduvel_max        =   0.0000000000000E+00
(PID.TID 0000.0001) %MON ad_dynstat_aduvel_min        =   0.0000000000000E+00
(PID.TID 0000.0001) %MON ad_dynstat_aduvel_mean       =   0.0000000000000E+00
(PID.TID 0000.0001) %MON ad_dynstat_aduvel_sd         =   0.0000000000000E+00
(PID.TID 0000.0001) %MON ad_dynstat_aduvel_del2       =   0.0000000000000E+00
(PID.TID 0000.0001) %MON ad_dynstat_advvel_max        =   0.0000000000000E+00
(PID.TID 0000.0001) %MON ad_dynstat_advvel_min        =   0.0000000000000E+00
(PID.TID 0000.0001) %MON ad_dynstat_advvel_mean       =   0.0000000000000E+00
(PID.TID 0000.0001) %MON ad_dynstat_advvel_sd         =   0.0000000000000E+00
(PID.TID 0000.0001) %MON ad_dynstat_advvel_del2       =   0.0000000000000E+00
(PID.TID 0000.0001) %MON ad_dynstat_adwvel_max        =   0.0000000000000E+00
(PID.TID 0000.0001) %MON ad_dynstat_adwvel_min        =   0.0000000000000E+00
(PID.TID 0000.0001) %MON ad_dynstat_adwvel_mean       =   0.0000000000000E+00
(PID.TID 0000.0001) %MON ad_dynstat_adwvel_sd         =   0.0000000000000E+00
(PID.TID 0000.0001) %MON ad_dynstat_adwvel_del2       =   0.0000000000000E+00
(PID.TID 0000.0001) %MON ad_dynstat_adtheta_max       =  -3.7818504380565E+00
(PID.TID 0000.0001) %MON ad_dynstat_adtheta_min       =  -4.0514174416662E+00
(PID.TID 0000.0001) %MON ad_dynstat_adtheta_mean      =  -3.8292142289401E+00
(PID.TID 0000.0001) %MON ad_dynstat_adtheta_sd        =   6.3861233126467E-02
(PID.TID 0000.0001) %MON ad_dynstat_adtheta_del2      =   1.2548271535268E-05
(PID.TID 0000.0001) %MON ad_dynstat_adsalt_max        =   0.0000000000000E+00
(PID.TID 0000.0001) %MON ad_dynstat_adsalt_min        =   0.0000000000000E+00
(PID.TID 0000.0001) %MON ad_dynstat_adsalt_mean       =   0.0000000000000E+00
(PID.TID 0000.0001) %MON ad_dynstat_adsalt_sd         =   0.0000000000000E+00
(PID.TID 0000.0001) %MON ad_dynstat_adsalt_del2       =   0.0000000000000E+00
(PID.TID 0000.0001) %MON ad_dynstat_adsst_max         =   0.0000000000000E+00
(PID.TID 0000.0001) %MON ad_dynstat_adsst_min         =   0.0000000000000E+00
(PID.TID 0000.0001) %MON ad_dynstat_adsst_mean        =   0.0000000000000E+00
(PID.TID 0000.0001) %MON ad_dynstat_adsst_sd          =   0.0000000000000E+00
(PID.TID 0000.0001) %MON ad_dynstat_adsst_del2        =   0.0000000000000E+00
(PID.TID 0000.0001) %MON ad_dynstat_adsss_max         =   0.0000000000000E+00
(PID.TID 0000.0001) %MON ad_dynstat_adsss_min         =   0.0000000000000E+00
(PID.TID 0000.0001) %MON ad_dynstat_adsss_mean        =   0.0000000000000E+00
(PID.TID 0000.0001) %MON ad_dynstat_adsss_sd          =   0.0000000000000E+00
(PID.TID 0000.0001) %MON ad_dynstat_adsss_del2        =   0.0000000000000E+00
(PID.TID 0000.0001) %MON ad_forcing_adqnet_max        =   0.0000000000000E+00
(PID.TID 0000.0001) %MON ad_forcing_adqnet_min        =   0.0000000000000E+00
(PID.TID 0000.0001) %MON ad_forcing_adqnet_mean       =   0.0000000000000E+00
(PID.TID 0000.0001) %MON ad_forcing_adqnet_sd         =   0.0000000000000E+00
(PID.TID 0000.0001) %MON ad_forcing_adqnet_del2       =   0.0000000000000E+00
(PID.TID 0000.0001) %MON ad_forcing_adempmr_max       =   0.0000000000000E+00
(PID.TID 0000.0001) %MON ad_forcing_adempmr_min       =   0.0000000000000E+00
(PID.TID 0000.0001) %MON ad_forcing_adempmr_mean      =   0.0000000000000E+00
(PID.TID 0000.0001) %MON ad_forcing_adempmr_sd        =   0.0000000000000E+00
(PID.TID 0000.0001) %MON ad_forcing_adempmr_del2      =   0.0000000000000E+00
(PID.TID 0000.0001) %MON ad_forcing_adfu_max          =   0.0000000000000E+00
(PID.TID 0000.0001) %MON ad_forcing_adfu_min          =   0.0000000000000E+00
(PID.TID 0000.0001) %MON ad_forcing_adfu_mean         =   0.0000000000000E+00
(PID.TID 0000.0001) %MON ad_forcing_adfu_sd           =   0.0000000000000E+00
(PID.TID 0000.0001) %MON ad_forcing_adfu_del2         =   0.0000000000000E+00
(PID.TID 0000.0001) %MON ad_forcing_adfv_max          =   0.0000000000000E+00
(PID.TID 0000.0001) %MON ad_forcing_adfv_min          =   0.0000000000000E+00
(PID.TID 0000.0001) %MON ad_forcing_adfv_mean         =   0.0000000000000E+00
(PID.TID 0000.0001) %MON ad_forcing_adfv_sd           =   0.0000000000000E+00
(PID.TID 0000.0001) %MON ad_forcing_adfv_del2         =   0.0000000000000E+00
(PID.TID 0000.0001) %MON ad_advcfl_aduvel_max         =   0.0000000000000E+00
(PID.TID 0000.0001) %MON ad_advcfl_advvel_max         =   0.0000000000000E+00
(PID.TID 0000.0001) %MON ad_advcfl_adwvel_max         =   0.0000000000000E+00
(PID.TID 0000.0001) %MON ad_advcfl_adW_hf_max         =   0.0000000000000E+00
(PID.TID 0000.0001) // =======================================================
(PID.TID 0000.0001) // End MONITOR dynamic field statistics
(PID.TID 0000.0001) // =======================================================
 cg2d: Sum(rhs),rhsMax =  -6.10622663543836E-16  4.12098593952407E-05
 cg2d: Sum(rhs),rhsMax =   2.14048966268657E-13  1.94860196410857E-01
(PID.TID 0000.0001) // =======================================================
(PID.TID 0000.0001) // Begin MONITOR dynamic field statistics
(PID.TID 0000.0001) // =======================================================
(PID.TID 0000.0001) %MON ad_time_tsnumber             =                  8649
(PID.TID 0000.0001) %MON ad_time_secondsf             =   1.5568200000000E+07
(PID.TID 0000.0001) %MON ad_dynstat_adeta_max         =   1.4943580825874E-02
(PID.TID 0000.0001) %MON ad_dynstat_adeta_min         =  -2.1125096665748E-02
(PID.TID 0000.0001) %MON ad_dynstat_adeta_mean        =  -2.0632747708925E-07
(PID.TID 0000.0001) %MON ad_dynstat_adeta_sd          =   2.3286311805422E-03
(PID.TID 0000.0001) %MON ad_dynstat_adeta_del2        =   3.4862900090581E-05
(PID.TID 0000.0001) %MON ad_dynstat_aduvel_max        =   4.5126241562865E-04
(PID.TID 0000.0001) %MON ad_dynstat_aduvel_min        =  -6.9117283950181E-04
(PID.TID 0000.0001) %MON ad_dynstat_aduvel_mean       =  -1.4777602877232E-06
(PID.TID 0000.0001) %MON ad_dynstat_aduvel_sd         =   9.2626737026399E-06
(PID.TID 0000.0001) %MON ad_dynstat_aduvel_del2       =   3.5850227280476E-08
(PID.TID 0000.0001) %MON ad_dynstat_advvel_max        =   1.4450038464775E-03
(PID.TID 0000.0001) %MON ad_dynstat_advvel_min        =  -2.1636411742217E-03
(PID.TID 0000.0001) %MON ad_dynstat_advvel_mean       =   5.4488701292648E-04
(PID.TID 0000.0001) %MON ad_dynstat_advvel_sd         =   3.4278063147479E-04
(PID.TID 0000.0001) %MON ad_dynstat_advvel_del2       =   5.1827704944860E-07
(PID.TID 0000.0001) %MON ad_dynstat_adwvel_max        =   6.2978483402638E-03
(PID.TID 0000.0001) %MON ad_dynstat_adwvel_min        =  -2.2795211119664E-03
(PID.TID 0000.0001) %MON ad_dynstat_adwvel_mean       =  -1.3315424584269E-06
(PID.TID 0000.0001) %MON ad_dynstat_adwvel_sd         =   3.3497479931115E-05
(PID.TID 0000.0001) %MON ad_dynstat_adwvel_del2       =   2.9520935015755E-07
(PID.TID 0000.0001) %MON ad_dynstat_adtheta_max       =  -3.7826857922806E+00
(PID.TID 0000.0001) %MON ad_dynstat_adtheta_min       =  -4.0530692580450E+00
(PID.TID 0000.0001) %MON ad_dynstat_adtheta_mean      =  -3.8269174296633E+00
(PID.TID 0000.0001) %MON ad_dynstat_adtheta_sd        =   5.7759509360874E-02
(PID.TID 0000.0001) %MON ad_dynstat_adtheta_del2      =   1.7219201565447E-05
(PID.TID 0000.0001) %MON ad_dynstat_adsalt_max        =   3.5166874085066E-03
(PID.TID 0000.0001) %MON ad_dynstat_adsalt_min        =  -3.2831747393116E-04
(PID.TID 0000.0001) %MON ad_dynstat_adsalt_mean       =   1.2972183427877E-04
(PID.TID 0000.0001) %MON ad_dynstat_adsalt_sd         =   5.4122886288566E-04
(PID.TID 0000.0001) %MON ad_dynstat_adsalt_del2       =   8.3606194436941E-07
(PID.TID 0000.0001) %MON ad_dynstat_adsst_max         =   0.0000000000000E+00
(PID.TID 0000.0001) %MON ad_dynstat_adsst_min         =   0.0000000000000E+00
(PID.TID 0000.0001) %MON ad_dynstat_adsst_mean        =   0.0000000000000E+00
(PID.TID 0000.0001) %MON ad_dynstat_adsst_sd          =   0.0000000000000E+00
(PID.TID 0000.0001) %MON ad_dynstat_adsst_del2        =   0.0000000000000E+00
(PID.TID 0000.0001) %MON ad_dynstat_adsss_max         =   0.0000000000000E+00
(PID.TID 0000.0001) %MON ad_dynstat_adsss_min         =   0.0000000000000E+00
(PID.TID 0000.0001) %MON ad_dynstat_adsss_mean        =   0.0000000000000E+00
(PID.TID 0000.0001) %MON ad_dynstat_adsss_sd          =   0.0000000000000E+00
(PID.TID 0000.0001) %MON ad_dynstat_adsss_del2        =   0.0000000000000E+00
(PID.TID 0000.0001) %MON ad_forcing_adqnet_max        =   0.0000000000000E+00
(PID.TID 0000.0001) %MON ad_forcing_adqnet_min        =   0.0000000000000E+00
(PID.TID 0000.0001) %MON ad_forcing_adqnet_mean       =   0.0000000000000E+00
(PID.TID 0000.0001) %MON ad_forcing_adqnet_sd         =   0.0000000000000E+00
(PID.TID 0000.0001) %MON ad_forcing_adqnet_del2       =   0.0000000000000E+00
(PID.TID 0000.0001) %MON ad_forcing_adempmr_max       =   0.0000000000000E+00
(PID.TID 0000.0001) %MON ad_forcing_adempmr_min       =   0.0000000000000E+00
(PID.TID 0000.0001) %MON ad_forcing_adempmr_mean      =   0.0000000000000E+00
(PID.TID 0000.0001) %MON ad_forcing_adempmr_sd        =   0.0000000000000E+00
(PID.TID 0000.0001) %MON ad_forcing_adempmr_del2      =   0.0000000000000E+00
(PID.TID 0000.0001) %MON ad_forcing_adfu_max          =   0.0000000000000E+00
(PID.TID 0000.0001) %MON ad_forcing_adfu_min          =   0.0000000000000E+00
(PID.TID 0000.0001) %MON ad_forcing_adfu_mean         =   0.0000000000000E+00
(PID.TID 0000.0001) %MON ad_forcing_adfu_sd           =   0.0000000000000E+00
(PID.TID 0000.0001) %MON ad_forcing_adfu_del2         =   0.0000000000000E+00
(PID.TID 0000.0001) %MON ad_forcing_adfv_max          =   0.0000000000000E+00
(PID.TID 0000.0001) %MON ad_forcing_adfv_min          =   0.0000000000000E+00
(PID.TID 0000.0001) %MON ad_forcing_adfv_mean         =   0.0000000000000E+00
(PID.TID 0000.0001) %MON ad_forcing_adfv_sd           =   0.0000000000000E+00
(PID.TID 0000.0001) %MON ad_forcing_adfv_del2         =   0.0000000000000E+00
(PID.TID 0000.0001) %MON ad_advcfl_aduvel_max         =   1.7580103749685E-04
(PID.TID 0000.0001) %MON ad_advcfl_advvel_max         =   3.5030064959896E-04
(PID.TID 0000.0001) %MON ad_advcfl_adwvel_max         =   3.7787090041583E-01
(PID.TID 0000.0001) %MON ad_advcfl_adW_hf_max         =   1.8893545020791E+00
(PID.TID 0000.0001) // =======================================================
(PID.TID 0000.0001) // End MONITOR dynamic field statistics
(PID.TID 0000.0001) // =======================================================
 cg2d: Sum(rhs),rhsMax =   1.24119464706141E-15  7.35109528273684E-04
 cg2d: Sum(rhs),rhsMax =   2.74349038495783E-13  1.51611291202112E-01
 SURF_ADJUSTMENT: Iter=      8647 Nb_pts,Vol=       343  8.64203113E+10
 cg2d: Sum(rhs),rhsMax =   2.43573824304510E-13  1.72463286850144E-01
 SURF_ADJUSTMENT: Iter=      8648 Nb_pts,Vol=       343  8.64165427E+10
 cg2d: Sum(rhs),rhsMax =   2.43573824304510E-13  1.72463286850144E-01
(PID.TID 0000.0001) // =======================================================
(PID.TID 0000.0001) // Begin MONITOR dynamic field statistics
(PID.TID 0000.0001) // =======================================================
(PID.TID 0000.0001) %MON ad_time_tsnumber             =                  8648
(PID.TID 0000.0001) %MON ad_time_secondsf             =   1.5566400000000E+07
(PID.TID 0000.0001) %MON ad_dynstat_adeta_max         =   2.6240958377040E-02
(PID.TID 0000.0001) %MON ad_dynstat_adeta_min         =  -4.0923681769183E-02
(PID.TID 0000.0001) %MON ad_dynstat_adeta_mean        =  -1.2906541749409E-05
(PID.TID 0000.0001) %MON ad_dynstat_adeta_sd          =   4.3219204511255E-03
(PID.TID 0000.0001) %MON ad_dynstat_adeta_del2        =   6.4190023609162E-05
(PID.TID 0000.0001) %MON ad_dynstat_aduvel_max        =   5.9141261787847E-04
(PID.TID 0000.0001) %MON ad_dynstat_aduvel_min        =  -9.8597860803632E-04
(PID.TID 0000.0001) %MON ad_dynstat_aduvel_mean       =  -1.2785196091160E-04
(PID.TID 0000.0001) %MON ad_dynstat_aduvel_sd         =   7.2835386705266E-05
(PID.TID 0000.0001) %MON ad_dynstat_aduvel_del2       =   1.7723769092548E-07
(PID.TID 0000.0001) %MON ad_dynstat_advvel_max        =   1.7317192346489E-03
(PID.TID 0000.0001) %MON ad_dynstat_advvel_min        =  -3.2180745157828E-03
(PID.TID 0000.0001) %MON ad_dynstat_advvel_mean       =   6.4257062977394E-04
(PID.TID 0000.0001) %MON ad_dynstat_advvel_sd         =   4.2735435442091E-04
(PID.TID 0000.0001) %MON ad_dynstat_advvel_del2       =   6.8173743525516E-07
(PID.TID 0000.0001) %MON ad_dynstat_adwvel_max        =   4.7741390515869E-03
(PID.TID 0000.0001) %MON ad_dynstat_adwvel_min        =  -2.4622594466019E-03
(PID.TID 0000.0001) %MON ad_dynstat_adwvel_mean       =  -1.7402290617542E-06
(PID.TID 0000.0001) %MON ad_dynstat_adwvel_sd         =   2.8278342827888E-05
(PID.TID 0000.0001) %MON ad_dynstat_adwvel_del2       =   2.5301592089188E-07
(PID.TID 0000.0001) %MON ad_dynstat_adtheta_max       =  -3.7831831731740E+00
(PID.TID 0000.0001) %MON ad_dynstat_adtheta_min       =  -4.0555742105144E+00
(PID.TID 0000.0001) %MON ad_dynstat_adtheta_mean      =  -3.8255092693432E+00
(PID.TID 0000.0001) %MON ad_dynstat_adtheta_sd        =   5.4433082175638E-02
(PID.TID 0000.0001) %MON ad_dynstat_adtheta_del2      =   2.3191425143813E-05
(PID.TID 0000.0001) %MON ad_dynstat_adsalt_max        =   6.6488844503840E-03
(PID.TID 0000.0001) %MON ad_dynstat_adsalt_min        =  -1.8520269045535E-03
(PID.TID 0000.0001) %MON ad_dynstat_adsalt_mean       =   2.0650384743131E-04
(PID.TID 0000.0001) %MON ad_dynstat_adsalt_sd         =   8.7672433080615E-04
(PID.TID 0000.0001) %MON ad_dynstat_adsalt_del2       =   1.3915654233499E-06
(PID.TID 0000.0001) %MON ad_dynstat_adsst_max         =   0.0000000000000E+00
(PID.TID 0000.0001) %MON ad_dynstat_adsst_min         =   0.0000000000000E+00
(PID.TID 0000.0001) %MON ad_dynstat_adsst_mean        =   0.0000000000000E+00
(PID.TID 0000.0001) %MON ad_dynstat_adsst_sd          =   0.0000000000000E+00
(PID.TID 0000.0001) %MON ad_dynstat_adsst_del2        =   0.0000000000000E+00
(PID.TID 0000.0001) %MON ad_dynstat_adsss_max         =   0.0000000000000E+00
(PID.TID 0000.0001) %MON ad_dynstat_adsss_min         =   0.0000000000000E+00
(PID.TID 0000.0001) %MON ad_dynstat_adsss_mean        =   0.0000000000000E+00
(PID.TID 0000.0001) %MON ad_dynstat_adsss_sd          =   0.0000000000000E+00
(PID.TID 0000.0001) %MON ad_dynstat_adsss_del2        =   0.0000000000000E+00
(PID.TID 0000.0001) %MON ad_forcing_adqnet_max        =   0.0000000000000E+00
(PID.TID 0000.0001) %MON ad_forcing_adqnet_min        =   0.0000000000000E+00
(PID.TID 0000.0001) %MON ad_forcing_adqnet_mean       =   0.0000000000000E+00
(PID.TID 0000.0001) %MON ad_forcing_adqnet_sd         =   0.0000000000000E+00
(PID.TID 0000.0001) %MON ad_forcing_adqnet_del2       =   0.0000000000000E+00
(PID.TID 0000.0001) %MON ad_forcing_adempmr_max       =   0.0000000000000E+00
(PID.TID 0000.0001) %MON ad_forcing_adempmr_min       =   0.0000000000000E+00
(PID.TID 0000.0001) %MON ad_forcing_adempmr_mean      =   0.0000000000000E+00
(PID.TID 0000.0001) %MON ad_forcing_adempmr_sd        =   0.0000000000000E+00
(PID.TID 0000.0001) %MON ad_forcing_adempmr_del2      =   0.0000000000000E+00
(PID.TID 0000.0001) %MON ad_forcing_adfu_max          =   0.0000000000000E+00
(PID.TID 0000.0001) %MON ad_forcing_adfu_min          =   0.0000000000000E+00
(PID.TID 0000.0001) %MON ad_forcing_adfu_mean         =   0.0000000000000E+00
(PID.TID 0000.0001) %MON ad_forcing_adfu_sd           =   0.0000000000000E+00
(PID.TID 0000.0001) %MON ad_forcing_adfu_del2         =   0.0000000000000E+00
(PID.TID 0000.0001) %MON ad_forcing_adfv_max          =   0.0000000000000E+00
(PID.TID 0000.0001) %MON ad_forcing_adfv_min          =   0.0000000000000E+00
(PID.TID 0000.0001) %MON ad_forcing_adfv_mean         =   0.0000000000000E+00
(PID.TID 0000.0001) %MON ad_forcing_adfv_sd           =   0.0000000000000E+00
(PID.TID 0000.0001) %MON ad_forcing_adfv_del2         =   0.0000000000000E+00
(PID.TID 0000.0001) %MON ad_advcfl_aduvel_max         =   2.4488330853588E-04
(PID.TID 0000.0001) %MON ad_advcfl_advvel_max         =   5.2101688892203E-04
(PID.TID 0000.0001) %MON ad_advcfl_adwvel_max         =   2.8644834309521E-01
(PID.TID 0000.0001) %MON ad_advcfl_adW_hf_max         =   1.4322417154761E+00
(PID.TID 0000.0001) // =======================================================
(PID.TID 0000.0001) // End MONITOR dynamic field statistics
(PID.TID 0000.0001) // =======================================================
 cg2d: Sum(rhs),rhsMax =   2.75821032680312E-16  1.54722379079894E-03
 cg2d: Sum(rhs),rhsMax =   2.74349038495783E-13  1.51611291202112E-01
(PID.TID 0000.0001) // =======================================================
(PID.TID 0000.0001) // Begin MONITOR dynamic field statistics
(PID.TID 0000.0001) // =======================================================
(PID.TID 0000.0001) %MON ad_time_tsnumber             =                  8647
(PID.TID 0000.0001) %MON ad_time_secondsf             =   1.5564600000000E+07
(PID.TID 0000.0001) %MON ad_dynstat_adeta_max         =   3.2967814726285E-02
(PID.TID 0000.0001) %MON ad_dynstat_adeta_min         =  -6.0523335637218E-02
(PID.TID 0000.0001) %MON ad_dynstat_adeta_mean        =  -4.0273704986963E-05
(PID.TID 0000.0001) %MON ad_dynstat_adeta_sd          =   5.9698984361574E-03
(PID.TID 0000.0001) %MON ad_dynstat_adeta_del2        =   8.8267578499966E-05
(PID.TID 0000.0001) %MON ad_dynstat_aduvel_max        =   9.6855340038936E-04
(PID.TID 0000.0001) %MON ad_dynstat_aduvel_min        =  -1.1663237910245E-03
(PID.TID 0000.0001) %MON ad_dynstat_aduvel_mean       =  -3.1796340184194E-04
(PID.TID 0000.0001) %MON ad_dynstat_aduvel_sd         =   1.4585010339742E-04
(PID.TID 0000.0001) %MON ad_dynstat_aduvel_del2       =   2.9269156787934E-07
(PID.TID 0000.0001) %MON ad_dynstat_advvel_max        =   1.7445339236786E-03
(PID.TID 0000.0001) %MON ad_dynstat_advvel_min        =  -3.7054184706451E-03
(PID.TID 0000.0001) %MON ad_dynstat_advvel_mean       =   5.7554313134877E-04
(PID.TID 0000.0001) %MON ad_dynstat_advvel_sd         =   4.3901924203946E-04
(PID.TID 0000.0001) %MON ad_dynstat_advvel_del2       =   7.5521806844925E-07
(PID.TID 0000.0001) %MON ad_dynstat_adwvel_max        =   4.3667536693170E-03
(PID.TID 0000.0001) %MON ad_dynstat_adwvel_min        =  -2.6242356510251E-03
(PID.TID 0000.0001) %MON ad_dynstat_adwvel_mean       =  -3.2601413413851E-06
(PID.TID 0000.0001) %MON ad_dynstat_adwvel_sd         =   3.4371323275542E-05
(PID.TID 0000.0001) %MON ad_dynstat_adwvel_del2       =   2.9451376975658E-07
(PID.TID 0000.0001) %MON ad_dynstat_adtheta_max       =  -3.7834210303688E+00
(PID.TID 0000.0001) %MON ad_dynstat_adtheta_min       =  -4.0541779661012E+00
(PID.TID 0000.0001) %MON ad_dynstat_adtheta_mean      =  -3.8241055197882E+00
(PID.TID 0000.0001) %MON ad_dynstat_adtheta_sd        =   5.1504841804330E-02
(PID.TID 0000.0001) %MON ad_dynstat_adtheta_del2      =   2.9826236299262E-05
(PID.TID 0000.0001) %MON ad_dynstat_adsalt_max        =   1.0855448825221E-02
(PID.TID 0000.0001) %MON ad_dynstat_adsalt_min        =  -4.3617184586970E-03
(PID.TID 0000.0001) %MON ad_dynstat_adsalt_mean       =   2.8289376027849E-04
(PID.TID 0000.0001) %MON ad_dynstat_adsalt_sd         =   1.2132336883295E-03
(PID.TID 0000.0001) %MON ad_dynstat_adsalt_del2       =   2.0722621864893E-06
(PID.TID 0000.0001) %MON ad_dynstat_adsst_max         =   0.0000000000000E+00
(PID.TID 0000.0001) %MON ad_dynstat_adsst_min         =   0.0000000000000E+00
(PID.TID 0000.0001) %MON ad_dynstat_adsst_mean        =   0.0000000000000E+00
(PID.TID 0000.0001) %MON ad_dynstat_adsst_sd          =   0.0000000000000E+00
(PID.TID 0000.0001) %MON ad_dynstat_adsst_del2        =   0.0000000000000E+00
(PID.TID 0000.0001) %MON ad_dynstat_adsss_max         =   0.0000000000000E+00
(PID.TID 0000.0001) %MON ad_dynstat_adsss_min         =   0.0000000000000E+00
(PID.TID 0000.0001) %MON ad_dynstat_adsss_mean        =   0.0000000000000E+00
(PID.TID 0000.0001) %MON ad_dynstat_adsss_sd          =   0.0000000000000E+00
(PID.TID 0000.0001) %MON ad_dynstat_adsss_del2        =   0.0000000000000E+00
(PID.TID 0000.0001) %MON ad_forcing_adqnet_max        =   0.0000000000000E+00
(PID.TID 0000.0001) %MON ad_forcing_adqnet_min        =   0.0000000000000E+00
(PID.TID 0000.0001) %MON ad_forcing_adqnet_mean       =   0.0000000000000E+00
(PID.TID 0000.0001) %MON ad_forcing_adqnet_sd         =   0.0000000000000E+00
(PID.TID 0000.0001) %MON ad_forcing_adqnet_del2       =   0.0000000000000E+00
(PID.TID 0000.0001) %MON ad_forcing_adempmr_max       =   0.0000000000000E+00
(PID.TID 0000.0001) %MON ad_forcing_adempmr_min       =   0.0000000000000E+00
(PID.TID 0000.0001) %MON ad_forcing_adempmr_mean      =   0.0000000000000E+00
(PID.TID 0000.0001) %MON ad_forcing_adempmr_sd        =   0.0000000000000E+00
(PID.TID 0000.0001) %MON ad_forcing_adempmr_del2      =   0.0000000000000E+00
(PID.TID 0000.0001) %MON ad_forcing_adfu_max          =   0.0000000000000E+00
(PID.TID 0000.0001) %MON ad_forcing_adfu_min          =   0.0000000000000E+00
(PID.TID 0000.0001) %MON ad_forcing_adfu_mean         =   0.0000000000000E+00
(PID.TID 0000.0001) %MON ad_forcing_adfu_sd           =   0.0000000000000E+00
(PID.TID 0000.0001) %MON ad_forcing_adfu_del2         =   0.0000000000000E+00
(PID.TID 0000.0001) %MON ad_forcing_adfv_max          =   0.0000000000000E+00
(PID.TID 0000.0001) %MON ad_forcing_adfv_min          =   0.0000000000000E+00
(PID.TID 0000.0001) %MON ad_forcing_adfv_mean         =   0.0000000000000E+00
(PID.TID 0000.0001) %MON ad_forcing_adfv_sd           =   0.0000000000000E+00
(PID.TID 0000.0001) %MON ad_forcing_adfv_del2         =   0.0000000000000E+00
(PID.TID 0000.0001) %MON ad_advcfl_aduvel_max         =   2.8967487371659E-04
(PID.TID 0000.0001) %MON ad_advcfl_advvel_max         =   5.9991948423236E-04
(PID.TID 0000.0001) %MON ad_advcfl_adwvel_max         =   2.6200522015902E-01
(PID.TID 0000.0001) %MON ad_advcfl_adW_hf_max         =   1.3100261007951E+00
(PID.TID 0000.0001) // =======================================================
(PID.TID 0000.0001) // End MONITOR dynamic field statistics
(PID.TID 0000.0001) // =======================================================
 cg2d: Sum(rhs),rhsMax =   6.76542155630955E-16  2.39085460492654E-03
 cg2d: Sum(rhs),rhsMax =   3.64783981558585E-13  1.14437850755897E-01
 SURF_ADJUSTMENT: Iter=      8645 Nb_pts,Vol=       343  8.64281826E+10
 cg2d: Sum(rhs),rhsMax =   3.15471973088947E-13  1.32278984753067E-01
 SURF_ADJUSTMENT: Iter=      8646 Nb_pts,Vol=       343  8.64244212E+10
 cg2d: Sum(rhs),rhsMax =   3.15471973088947E-13  1.32278984753067E-01
(PID.TID 0000.0001) // =======================================================
(PID.TID 0000.0001) // Begin MONITOR dynamic field statistics
(PID.TID 0000.0001) // =======================================================
(PID.TID 0000.0001) %MON ad_time_tsnumber             =                  8646
(PID.TID 0000.0001) %MON ad_time_secondsf             =   1.5562800000000E+07
(PID.TID 0000.0001) %MON ad_dynstat_adeta_max         =   3.7298162726497E-02
(PID.TID 0000.0001) %MON ad_dynstat_adeta_min         =  -7.5381956638780E-02
(PID.TID 0000.0001) %MON ad_dynstat_adeta_mean        =  -7.9568621678128E-05
(PID.TID 0000.0001) %MON ad_dynstat_adeta_sd          =   6.9497921195663E-03
(PID.TID 0000.0001) %MON ad_dynstat_adeta_del2        =   1.0271032144947E-04
(PID.TID 0000.0001) %MON ad_dynstat_aduvel_max        =   1.2007284126015E-03
(PID.TID 0000.0001) %MON ad_dynstat_aduvel_min        =  -1.4166530058829E-03
(PID.TID 0000.0001) %MON ad_dynstat_aduvel_mean       =  -4.9787371332641E-04
(PID.TID 0000.0001) %MON ad_dynstat_aduvel_sd         =   2.0035753474215E-04
(PID.TID 0000.0001) %MON ad_dynstat_aduvel_del2       =   3.6416834170074E-07
(PID.TID 0000.0001) %MON ad_dynstat_advvel_max        =   1.4832390557076E-03
(PID.TID 0000.0001) %MON ad_dynstat_advvel_min        =  -3.6375518525015E-03
(PID.TID 0000.0001) %MON ad_dynstat_advvel_mean       =   3.6231856277403E-04
(PID.TID 0000.0001) %MON ad_dynstat_advvel_sd         =   4.1219916251719E-04
(PID.TID 0000.0001) %MON ad_dynstat_advvel_del2       =   7.3206209415124E-07
(PID.TID 0000.0001) %MON ad_dynstat_adwvel_max        =   3.4323212255013E-03
(PID.TID 0000.0001) %MON ad_dynstat_adwvel_min        =  -2.3906203504392E-03
(PID.TID 0000.0001) %MON ad_dynstat_adwvel_mean       =  -4.7340656876189E-06
(PID.TID 0000.0001) %MON ad_dynstat_adwvel_sd         =   4.3516354172082E-05
(PID.TID 0000.0001) %MON ad_dynstat_adwvel_del2       =   3.4005304373789E-07
(PID.TID 0000.0001) %MON ad_dynstat_adtheta_max       =  -3.7835874792212E+00
(PID.TID 0000.0001) %MON ad_dynstat_adtheta_min       =  -4.0494727929806E+00
(PID.TID 0000.0001) %MON ad_dynstat_adtheta_mean      =  -3.8227087753278E+00
(PID.TID 0000.0001) %MON ad_dynstat_adtheta_sd        =   4.9043596043907E-02
(PID.TID 0000.0001) %MON ad_dynstat_adtheta_del2      =   3.6671287188652E-05
(PID.TID 0000.0001) %MON ad_dynstat_adsalt_max        =   1.5890269566424E-02
(PID.TID 0000.0001) %MON ad_dynstat_adsalt_min        =  -7.6326931623344E-03
(PID.TID 0000.0001) %MON ad_dynstat_adsalt_mean       =   3.5954467482938E-04
(PID.TID 0000.0001) %MON ad_dynstat_adsalt_sd         =   1.5501048886327E-03
(PID.TID 0000.0001) %MON ad_dynstat_adsalt_del2       =   2.8731232669219E-06
(PID.TID 0000.0001) %MON ad_dynstat_adsst_max         =   0.0000000000000E+00
(PID.TID 0000.0001) %MON ad_dynstat_adsst_min         =   0.0000000000000E+00
(PID.TID 0000.0001) %MON ad_dynstat_adsst_mean        =   0.0000000000000E+00
(PID.TID 0000.0001) %MON ad_dynstat_adsst_sd          =   0.0000000000000E+00
(PID.TID 0000.0001) %MON ad_dynstat_adsst_del2        =   0.0000000000000E+00
(PID.TID 0000.0001) %MON ad_dynstat_adsss_max         =   0.0000000000000E+00
(PID.TID 0000.0001) %MON ad_dynstat_adsss_min         =   0.0000000000000E+00
(PID.TID 0000.0001) %MON ad_dynstat_adsss_mean        =   0.0000000000000E+00
(PID.TID 0000.0001) %MON ad_dynstat_adsss_sd          =   0.0000000000000E+00
(PID.TID 0000.0001) %MON ad_dynstat_adsss_del2        =   0.0000000000000E+00
(PID.TID 0000.0001) %MON ad_forcing_adqnet_max        =   0.0000000000000E+00
(PID.TID 0000.0001) %MON ad_forcing_adqnet_min        =   0.0000000000000E+00
(PID.TID 0000.0001) %MON ad_forcing_adqnet_mean       =   0.0000000000000E+00
(PID.TID 0000.0001) %MON ad_forcing_adqnet_sd         =   0.0000000000000E+00
(PID.TID 0000.0001) %MON ad_forcing_adqnet_del2       =   0.0000000000000E+00
(PID.TID 0000.0001) %MON ad_forcing_adempmr_max       =   0.0000000000000E+00
(PID.TID 0000.0001) %MON ad_forcing_adempmr_min       =   0.0000000000000E+00
(PID.TID 0000.0001) %MON ad_forcing_adempmr_mean      =   0.0000000000000E+00
(PID.TID 0000.0001) %MON ad_forcing_adempmr_sd        =   0.0000000000000E+00
(PID.TID 0000.0001) %MON ad_forcing_adempmr_del2      =   0.0000000000000E+00
(PID.TID 0000.0001) %MON ad_forcing_adfu_max          =   0.0000000000000E+00
(PID.TID 0000.0001) %MON ad_forcing_adfu_min          =   0.0000000000000E+00
(PID.TID 0000.0001) %MON ad_forcing_adfu_mean         =   0.0000000000000E+00
(PID.TID 0000.0001) %MON ad_forcing_adfu_sd           =   0.0000000000000E+00
(PID.TID 0000.0001) %MON ad_forcing_adfu_del2         =   0.0000000000000E+00
(PID.TID 0000.0001) %MON ad_forcing_adfv_max          =   0.0000000000000E+00
(PID.TID 0000.0001) %MON ad_forcing_adfv_min          =   0.0000000000000E+00
(PID.TID 0000.0001) %MON ad_forcing_adfv_mean         =   0.0000000000000E+00
(PID.TID 0000.0001) %MON ad_forcing_adfv_sd           =   0.0000000000000E+00
(PID.TID 0000.0001) %MON ad_forcing_adfv_del2         =   0.0000000000000E+00
(PID.TID 0000.0001) %MON ad_advcfl_aduvel_max         =   3.6621811155031E-04
(PID.TID 0000.0001) %MON ad_advcfl_advvel_max         =   5.8893165468602E-04
(PID.TID 0000.0001) %MON ad_advcfl_adwvel_max         =   2.0593927353008E-01
(PID.TID 0000.0001) %MON ad_advcfl_adW_hf_max         =   1.0296963676504E+00
(PID.TID 0000.0001) // =======================================================
(PID.TID 0000.0001) // End MONITOR dynamic field statistics
(PID.TID 0000.0001) // =======================================================
 cg2d: Sum(rhs),rhsMax =  -1.93248195223816E-15  3.11955609981462E-03
 cg2d: Sum(rhs),rhsMax =   3.64783981558585E-13  1.14437850755897E-01
(PID.TID 0000.0001) // =======================================================
(PID.TID 0000.0001) // Begin MONITOR dynamic field statistics
(PID.TID 0000.0001) // =======================================================
(PID.TID 0000.0001) %MON ad_time_tsnumber             =                  8645
(PID.TID 0000.0001) %MON ad_time_secondsf             =   1.5561000000000E+07
(PID.TID 0000.0001) %MON ad_dynstat_adeta_max         =   3.5455879038728E-02
(PID.TID 0000.0001) %MON ad_dynstat_adeta_min         =  -8.3145663736650E-02
(PID.TID 0000.0001) %MON ad_dynstat_adeta_mean        =  -1.2429776974245E-04
(PID.TID 0000.0001) %MON ad_dynstat_adeta_sd          =   7.0989470799078E-03
(PID.TID 0000.0001) %MON ad_dynstat_adeta_del2        =   1.0561351989157E-04
(PID.TID 0000.0001) %MON ad_dynstat_aduvel_max        =   1.3032284468475E-03
(PID.TID 0000.0001) %MON ad_dynstat_aduvel_min        =  -1.6255824797477E-03
(PID.TID 0000.0001) %MON ad_dynstat_aduvel_mean       =  -6.0120152489069E-04
(PID.TID 0000.0001) %MON ad_dynstat_aduvel_sd         =   2.1890734065018E-04
(PID.TID 0000.0001) %MON ad_dynstat_aduvel_del2       =   3.8381427124432E-07
(PID.TID 0000.0001) %MON ad_dynstat_advvel_max        =   1.0624762771297E-03
(PID.TID 0000.0001) %MON ad_dynstat_advvel_min        =  -3.3387710196823E-03
(PID.TID 0000.0001) %MON ad_dynstat_advvel_mean       =   4.1954252489878E-05
(PID.TID 0000.0001) %MON ad_dynstat_advvel_sd         =   3.8032542420689E-04
(PID.TID 0000.0001) %MON ad_dynstat_advvel_del2       =   6.2890250960643E-07
(PID.TID 0000.0001) %MON ad_dynstat_adwvel_max        =   2.3418608123610E-03
(PID.TID 0000.0001) %MON ad_dynstat_adwvel_min        =  -1.8101693618996E-03
(PID.TID 0000.0001) %MON ad_dynstat_adwvel_mean       =  -5.8547751771862E-06
(PID.TID 0000.0001) %MON ad_dynstat_adwvel_sd         =   5.3085758677812E-05
(PID.TID 0000.0001) %MON ad_dynstat_adwvel_del2       =   3.8617819599655E-07
(PID.TID 0000.0001) %MON ad_dynstat_adtheta_max       =  -3.7709360716722E+00
(PID.TID 0000.0001) %MON ad_dynstat_adtheta_min       =  -4.0422177366957E+00
(PID.TID 0000.0001) %MON ad_dynstat_adtheta_mean      =  -3.8213189979872E+00
(PID.TID 0000.0001) %MON ad_dynstat_adtheta_sd        =   4.7112227898479E-02
(PID.TID 0000.0001) %MON ad_dynstat_adtheta_del2      =   4.3579616391141E-05
(PID.TID 0000.0001) %MON ad_dynstat_adsalt_max        =   2.1246588611434E-02
(PID.TID 0000.0001) %MON ad_dynstat_adsalt_min        =  -1.1337463066238E-02
(PID.TID 0000.0001) %MON ad_dynstat_adsalt_mean       =   4.3701308154171E-04
(PID.TID 0000.0001) %MON ad_dynstat_adsalt_sd         =   1.8865709438339E-03
(PID.TID 0000.0001) %MON ad_dynstat_adsalt_del2       =   3.7400669792708E-06
(PID.TID 0000.0001) %MON ad_dynstat_adsst_max         =   0.0000000000000E+00
(PID.TID 0000.0001) %MON ad_dynstat_adsst_min         =   0.0000000000000E+00
(PID.TID 0000.0001) %MON ad_dynstat_adsst_mean        =   0.0000000000000E+00
(PID.TID 0000.0001) %MON ad_dynstat_adsst_sd          =   0.0000000000000E+00
(PID.TID 0000.0001) %MON ad_dynstat_adsst_del2        =   0.0000000000000E+00
(PID.TID 0000.0001) %MON ad_dynstat_adsss_max         =   0.0000000000000E+00
(PID.TID 0000.0001) %MON ad_dynstat_adsss_min         =   0.0000000000000E+00
(PID.TID 0000.0001) %MON ad_dynstat_adsss_mean        =   0.0000000000000E+00
(PID.TID 0000.0001) %MON ad_dynstat_adsss_sd          =   0.0000000000000E+00
(PID.TID 0000.0001) %MON ad_dynstat_adsss_del2        =   0.0000000000000E+00
(PID.TID 0000.0001) %MON ad_forcing_adqnet_max        =   0.0000000000000E+00
(PID.TID 0000.0001) %MON ad_forcing_adqnet_min        =   0.0000000000000E+00
(PID.TID 0000.0001) %MON ad_forcing_adqnet_mean       =   0.0000000000000E+00
(PID.TID 0000.0001) %MON ad_forcing_adqnet_sd         =   0.0000000000000E+00
(PID.TID 0000.0001) %MON ad_forcing_adqnet_del2       =   0.0000000000000E+00
(PID.TID 0000.0001) %MON ad_forcing_adempmr_max       =   0.0000000000000E+00
(PID.TID 0000.0001) %MON ad_forcing_adempmr_min       =   0.0000000000000E+00
(PID.TID 0000.0001) %MON ad_forcing_adempmr_mean      =   0.0000000000000E+00
(PID.TID 0000.0001) %MON ad_forcing_adempmr_sd        =   0.0000000000000E+00
(PID.TID 0000.0001) %MON ad_forcing_adempmr_del2      =   0.0000000000000E+00
(PID.TID 0000.0001) %MON ad_forcing_adfu_max          =   0.0000000000000E+00
(PID.TID 0000.0001) %MON ad_forcing_adfu_min          =   0.0000000000000E+00
(PID.TID 0000.0001) %MON ad_forcing_adfu_mean         =   0.0000000000000E+00
(PID.TID 0000.0001) %MON ad_forcing_adfu_sd           =   0.0000000000000E+00
(PID.TID 0000.0001) %MON ad_forcing_adfu_del2         =   0.0000000000000E+00
(PID.TID 0000.0001) %MON ad_forcing_adfv_max          =   0.0000000000000E+00
(PID.TID 0000.0001) %MON ad_forcing_adfv_min          =   0.0000000000000E+00
(PID.TID 0000.0001) %MON ad_forcing_adfv_mean         =   0.0000000000000E+00
(PID.TID 0000.0001) %MON ad_forcing_adfv_sd           =   0.0000000000000E+00
(PID.TID 0000.0001) %MON ad_forcing_adfv_del2         =   0.0000000000000E+00
(PID.TID 0000.0001) %MON ad_advcfl_aduvel_max         =   4.2022834344777E-04
(PID.TID 0000.0001) %MON ad_advcfl_advvel_max         =   5.4055805139576E-04
(PID.TID 0000.0001) %MON ad_advcfl_adwvel_max         =   1.4051164874166E-01
(PID.TID 0000.0001) %MON ad_advcfl_adW_hf_max         =   7.0255824370831E-01
(PID.TID 0000.0001) // =======================================================
(PID.TID 0000.0001) // End MONITOR dynamic field statistics
(PID.TID 0000.0001) // =======================================================
 cg2d: Sum(rhs),rhsMax =   2.68882138776405E-16  3.63139398955106E-03
 cg2d: Sum(rhs),rhsMax =   5.08044425756235E-13  8.30033658997357E-02
 SURF_ADJUSTMENT: Iter=      8643 Nb_pts,Vol=       343  8.64325785E+10
 cg2d: Sum(rhs),rhsMax =   4.30497759836002E-13  9.80476981168039E-02
 SURF_ADJUSTMENT: Iter=      8644 Nb_pts,Vol=       343  8.64310080E+10
 cg2d: Sum(rhs),rhsMax =   4.30497759836002E-13  9.80476981168039E-02
(PID.TID 0000.0001) // =======================================================
(PID.TID 0000.0001) // Begin MONITOR dynamic field statistics
(PID.TID 0000.0001) // =======================================================
(PID.TID 0000.0001) %MON ad_time_tsnumber             =                  8644
(PID.TID 0000.0001) %MON ad_time_secondsf             =   1.5559200000000E+07
(PID.TID 0000.0001) %MON ad_dynstat_adeta_max         =   2.8641533407131E-02
(PID.TID 0000.0001) %MON ad_dynstat_adeta_min         =  -8.3035128250227E-02
(PID.TID 0000.0001) %MON ad_dynstat_adeta_mean        =  -1.6659832733360E-04
(PID.TID 0000.0001) %MON ad_dynstat_adeta_sd          =   6.4802940584084E-03
(PID.TID 0000.0001) %MON ad_dynstat_adeta_del2        =   9.8510670137397E-05
(PID.TID 0000.0001) %MON ad_dynstat_aduvel_max        =   1.4563535389674E-03
(PID.TID 0000.0001) %MON ad_dynstat_aduvel_min        =  -1.6650870090613E-03
(PID.TID 0000.0001) %MON ad_dynstat_aduvel_mean       =  -5.9026240339423E-04
(PID.TID 0000.0001) %MON ad_dynstat_aduvel_sd         =   2.0469051049981E-04
(PID.TID 0000.0001) %MON ad_dynstat_aduvel_del2       =   3.5761928701769E-07
(PID.TID 0000.0001) %MON ad_dynstat_advvel_max        =   6.7037678915706E-04
(PID.TID 0000.0001) %MON ad_dynstat_advvel_min        =  -3.0269471434556E-03
(PID.TID 0000.0001) %MON ad_dynstat_advvel_mean       =  -3.3011341520374E-04
(PID.TID 0000.0001) %MON ad_dynstat_advvel_sd         =   3.6395505207193E-04
(PID.TID 0000.0001) %MON ad_dynstat_advvel_del2       =   4.7961215202942E-07
(PID.TID 0000.0001) %MON ad_dynstat_adwvel_max        =   1.3537419249978E-03
(PID.TID 0000.0001) %MON ad_dynstat_adwvel_min        =  -1.3898345826940E-03
(PID.TID 0000.0001) %MON ad_dynstat_adwvel_mean       =  -6.5948671446996E-06
(PID.TID 0000.0001) %MON ad_dynstat_adwvel_sd         =   6.1490585434583E-05
(PID.TID 0000.0001) %MON ad_dynstat_adwvel_del2       =   4.2710475050437E-07
(PID.TID 0000.0001) %MON ad_dynstat_adtheta_max       =  -1.3016054689329E+00
(PID.TID 0000.0001) %MON ad_dynstat_adtheta_min       =  -6.5282231399065E+00
(PID.TID 0000.0001) %MON ad_dynstat_adtheta_mean      =  -3.8200024123096E+00
(PID.TID 0000.0001) %MON ad_dynstat_adtheta_sd        =   4.8534119371691E-02
(PID.TID 0000.0001) %MON ad_dynstat_adtheta_del2      =   1.2729741648701E-04
(PID.TID 0000.0001) %MON ad_dynstat_adsalt_max        =   2.6521765644838E-02
(PID.TID 0000.0001) %MON ad_dynstat_adsalt_min        =  -1.5130848632120E-02
(PID.TID 0000.0001) %MON ad_dynstat_adsalt_mean       =   5.1567577571131E-04
(PID.TID 0000.0001) %MON ad_dynstat_adsalt_sd         =   2.2211861689580E-03
(PID.TID 0000.0001) %MON ad_dynstat_adsalt_del2       =   4.5998425619337E-06
(PID.TID 0000.0001) %MON ad_dynstat_adsst_max         =   0.0000000000000E+00
(PID.TID 0000.0001) %MON ad_dynstat_adsst_min         =   0.0000000000000E+00
(PID.TID 0000.0001) %MON ad_dynstat_adsst_mean        =   0.0000000000000E+00
(PID.TID 0000.0001) %MON ad_dynstat_adsst_sd          =   0.0000000000000E+00
(PID.TID 0000.0001) %MON ad_dynstat_adsst_del2        =   0.0000000000000E+00
(PID.TID 0000.0001) %MON ad_dynstat_adsss_max         =   0.0000000000000E+00
(PID.TID 0000.0001) %MON ad_dynstat_adsss_min         =   0.0000000000000E+00
(PID.TID 0000.0001) %MON ad_dynstat_adsss_mean        =   0.0000000000000E+00
(PID.TID 0000.0001) %MON ad_dynstat_adsss_sd          =   0.0000000000000E+00
(PID.TID 0000.0001) %MON ad_dynstat_adsss_del2        =   0.0000000000000E+00
(PID.TID 0000.0001) %MON ad_forcing_adqnet_max        =   0.0000000000000E+00
(PID.TID 0000.0001) %MON ad_forcing_adqnet_min        =   0.0000000000000E+00
(PID.TID 0000.0001) %MON ad_forcing_adqnet_mean       =   0.0000000000000E+00
(PID.TID 0000.0001) %MON ad_forcing_adqnet_sd         =   0.0000000000000E+00
(PID.TID 0000.0001) %MON ad_forcing_adqnet_del2       =   0.0000000000000E+00
(PID.TID 0000.0001) %MON ad_forcing_adempmr_max       =   0.0000000000000E+00
(PID.TID 0000.0001) %MON ad_forcing_adempmr_min       =   0.0000000000000E+00
(PID.TID 0000.0001) %MON ad_forcing_adempmr_mean      =   0.0000000000000E+00
(PID.TID 0000.0001) %MON ad_forcing_adempmr_sd        =   0.0000000000000E+00
(PID.TID 0000.0001) %MON ad_forcing_adempmr_del2      =   0.0000000000000E+00
(PID.TID 0000.0001) %MON ad_forcing_adfu_max          =   0.0000000000000E+00
(PID.TID 0000.0001) %MON ad_forcing_adfu_min          =   0.0000000000000E+00
(PID.TID 0000.0001) %MON ad_forcing_adfu_mean         =   0.0000000000000E+00
(PID.TID 0000.0001) %MON ad_forcing_adfu_sd           =   0.0000000000000E+00
(PID.TID 0000.0001) %MON ad_forcing_adfu_del2         =   0.0000000000000E+00
(PID.TID 0000.0001) %MON ad_forcing_adfv_max          =   0.0000000000000E+00
(PID.TID 0000.0001) %MON ad_forcing_adfv_min          =   0.0000000000000E+00
(PID.TID 0000.0001) %MON ad_forcing_adfv_mean         =   0.0000000000000E+00
(PID.TID 0000.0001) %MON ad_forcing_adfv_sd           =   0.0000000000000E+00
(PID.TID 0000.0001) %MON ad_forcing_adfv_del2         =   0.0000000000000E+00
(PID.TID 0000.0001) %MON ad_advcfl_aduvel_max         =   4.3044063542248E-04
(PID.TID 0000.0001) %MON ad_advcfl_advvel_max         =   4.9007273631482E-04
(PID.TID 0000.0001) %MON ad_advcfl_adwvel_max         =   8.3390074961638E-02
(PID.TID 0000.0001) %MON ad_advcfl_adW_hf_max         =   4.0612257749935E-01
(PID.TID 0000.0001) // =======================================================
(PID.TID 0000.0001) // End MONITOR dynamic field statistics
(PID.TID 0000.0001) // =======================================================
 cg2d: Sum(rhs),rhsMax =  -1.57859836313889E-16  3.87610854398911E-03
 cg2d: Sum(rhs),rhsMax =   5.08044425756235E-13  8.30033658997357E-02
(PID.TID 0000.0001) // =======================================================
(PID.TID 0000.0001) // Begin MONITOR dynamic field statistics
(PID.TID 0000.0001) // =======================================================
(PID.TID 0000.0001) %MON ad_time_tsnumber             =                  8643
(PID.TID 0000.0001) %MON ad_time_secondsf             =   1.5557400000000E+07
(PID.TID 0000.0001) %MON ad_dynstat_adeta_max         =   2.0778541301554E-02
(PID.TID 0000.0001) %MON ad_dynstat_adeta_min         =  -7.5524140886561E-02
(PID.TID 0000.0001) %MON ad_dynstat_adeta_mean        =  -1.9914320383382E-04
(PID.TID 0000.0001) %MON ad_dynstat_adeta_sd          =   5.5111644058734E-03
(PID.TID 0000.0001) %MON ad_dynstat_adeta_del2        =   8.8046609469838E-05
(PID.TID 0000.0001) %MON ad_dynstat_aduvel_max        =   1.6026767175968E-03
(PID.TID 0000.0001) %MON ad_dynstat_aduvel_min        =  -1.5457768395809E-03
(PID.TID 0000.0001) %MON ad_dynstat_aduvel_mean       =  -4.5934146525969E-04
(PID.TID 0000.0001) %MON ad_dynstat_aduvel_sd         =   1.7780086952307E-04
(PID.TID 0000.0001) %MON ad_dynstat_aduvel_del2       =   3.0691499296225E-07
(PID.TID 0000.0001) %MON ad_dynstat_advvel_max        =   6.1255376327503E-04
(PID.TID 0000.0001) %MON ad_dynstat_advvel_min        =  -3.2761488756492E-03
(PID.TID 0000.0001) %MON ad_dynstat_advvel_mean       =  -6.9069715135342E-04
(PID.TID 0000.0001) %MON ad_dynstat_advvel_sd         =   3.6688429659038E-04
(PID.TID 0000.0001) %MON ad_dynstat_advvel_del2       =   3.6639638458482E-07
(PID.TID 0000.0001) %MON ad_dynstat_adwvel_max        =   9.0812342576371E-04
(PID.TID 0000.0001) %MON ad_dynstat_adwvel_min        =  -1.6826385178776E-03
(PID.TID 0000.0001) %MON ad_dynstat_adwvel_mean       =  -7.0713158667249E-06
(PID.TID 0000.0001) %MON ad_dynstat_adwvel_sd         =   6.8302649704793E-05
(PID.TID 0000.0001) %MON ad_dynstat_adwvel_del2       =   4.5935377625117E-07
(PID.TID 0000.0001) %MON ad_dynstat_adtheta_max       =  -1.0851733369266E+00
(PID.TID 0000.0001) %MON ad_dynstat_adtheta_min       =  -6.5594898879732E+00
(PID.TID 0000.0001) %MON ad_dynstat_adtheta_mean      =  -3.8186831271596E+00
(PID.TID 0000.0001) %MON ad_dynstat_adtheta_sd        =   4.9306926521802E-02
(PID.TID 0000.0001) %MON ad_dynstat_adtheta_del2      =   1.4286028786440E-04
(PID.TID 0000.0001) %MON ad_dynstat_adsalt_max        =   3.1363872226561E-02
(PID.TID 0000.0001) %MON ad_dynstat_adsalt_min        =  -1.8693785498951E-02
(PID.TID 0000.0001) %MON ad_dynstat_adsalt_mean       =   5.9567457661629E-04
(PID.TID 0000.0001) %MON ad_dynstat_adsalt_sd         =   2.5522157761511E-03
(PID.TID 0000.0001) %MON ad_dynstat_adsalt_del2       =   5.3867236306952E-06
(PID.TID 0000.0001) %MON ad_dynstat_adsst_max         =   0.0000000000000E+00
(PID.TID 0000.0001) %MON ad_dynstat_adsst_min         =   0.0000000000000E+00
(PID.TID 0000.0001) %MON ad_dynstat_adsst_mean        =   0.0000000000000E+00
(PID.TID 0000.0001) %MON ad_dynstat_adsst_sd          =   0.0000000000000E+00
(PID.TID 0000.0001) %MON ad_dynstat_adsst_del2        =   0.0000000000000E+00
(PID.TID 0000.0001) %MON ad_dynstat_adsss_max         =   0.0000000000000E+00
(PID.TID 0000.0001) %MON ad_dynstat_adsss_min         =   0.0000000000000E+00
(PID.TID 0000.0001) %MON ad_dynstat_adsss_mean        =   0.0000000000000E+00
(PID.TID 0000.0001) %MON ad_dynstat_adsss_sd          =   0.0000000000000E+00
(PID.TID 0000.0001) %MON ad_dynstat_adsss_del2        =   0.0000000000000E+00
(PID.TID 0000.0001) %MON ad_forcing_adqnet_max        =   0.0000000000000E+00
(PID.TID 0000.0001) %MON ad_forcing_adqnet_min        =   0.0000000000000E+00
(PID.TID 0000.0001) %MON ad_forcing_adqnet_mean       =   0.0000000000000E+00
(PID.TID 0000.0001) %MON ad_forcing_adqnet_sd         =   0.0000000000000E+00
(PID.TID 0000.0001) %MON ad_forcing_adqnet_del2       =   0.0000000000000E+00
(PID.TID 0000.0001) %MON ad_forcing_adempmr_max       =   0.0000000000000E+00
(PID.TID 0000.0001) %MON ad_forcing_adempmr_min       =   0.0000000000000E+00
(PID.TID 0000.0001) %MON ad_forcing_adempmr_mean      =   0.0000000000000E+00
(PID.TID 0000.0001) %MON ad_forcing_adempmr_sd        =   0.0000000000000E+00
(PID.TID 0000.0001) %MON ad_forcing_adempmr_del2      =   0.0000000000000E+00
(PID.TID 0000.0001) %MON ad_forcing_adfu_max          =   0.0000000000000E+00
(PID.TID 0000.0001) %MON ad_forcing_adfu_min          =   0.0000000000000E+00
(PID.TID 0000.0001) %MON ad_forcing_adfu_mean         =   0.0000000000000E+00
(PID.TID 0000.0001) %MON ad_forcing_adfu_sd           =   0.0000000000000E+00
(PID.TID 0000.0001) %MON ad_forcing_adfu_del2         =   0.0000000000000E+00
(PID.TID 0000.0001) %MON ad_forcing_adfv_max          =   0.0000000000000E+00
(PID.TID 0000.0001) %MON ad_forcing_adfv_min          =   0.0000000000000E+00
(PID.TID 0000.0001) %MON ad_forcing_adfv_mean         =   0.0000000000000E+00
(PID.TID 0000.0001) %MON ad_forcing_adfv_sd           =   0.0000000000000E+00
(PID.TID 0000.0001) %MON ad_forcing_adfv_del2         =   0.0000000000000E+00
(PID.TID 0000.0001) %MON ad_advcfl_aduvel_max         =   4.0764366540884E-04
(PID.TID 0000.0001) %MON ad_advcfl_advvel_max         =   5.3041931952310E-04
(PID.TID 0000.0001) %MON ad_advcfl_adwvel_max         =   1.0095831107265E-01
(PID.TID 0000.0001) %MON ad_advcfl_adW_hf_max         =   2.6942402226101E-01
(PID.TID 0000.0001) // =======================================================
(PID.TID 0000.0001) // End MONITOR dynamic field statistics
(PID.TID 0000.0001) // =======================================================
 cg2d: Sum(rhs),rhsMax =  -9.92261828258734E-16  3.84801918641727E-03
(PID.TID 0000.0001) SOLVE_FOR_PRESSURE: putPmEinXvector =    F
 cg2d: Sum(rhs),rhsMax =   7.94736970460494E-13  5.27879962774467E-02
 SURF_ADJUSTMENT: Iter=      8641 Nb_pts,Vol=       343  8.64319980E+10
 cg2d: Sum(rhs),rhsMax =   6.09356640667025E-13  6.89222812810889E-02
 SURF_ADJUSTMENT: Iter=      8642 Nb_pts,Vol=       343  8.64329516E+10
 cg2d: Sum(rhs),rhsMax =   6.09356640667025E-13  6.89222812810889E-02
(PID.TID 0000.0001) // =======================================================
(PID.TID 0000.0001) // Begin MONITOR dynamic field statistics
(PID.TID 0000.0001) // =======================================================
(PID.TID 0000.0001) %MON ad_time_tsnumber             =                  8642
(PID.TID 0000.0001) %MON ad_time_secondsf             =   1.5555600000000E+07
(PID.TID 0000.0001) %MON ad_dynstat_adeta_max         =   2.4266804677616E-02
(PID.TID 0000.0001) %MON ad_dynstat_adeta_min         =  -6.1941746866478E-02
(PID.TID 0000.0001) %MON ad_dynstat_adeta_mean        =  -2.1623166277545E-04
(PID.TID 0000.0001) %MON ad_dynstat_adeta_sd          =   5.1550134777499E-03
(PID.TID 0000.0001) %MON ad_dynstat_adeta_del2        =   8.6944785850262E-05
(PID.TID 0000.0001) %MON ad_dynstat_aduvel_max        =   1.6416354336196E-03
(PID.TID 0000.0001) %MON ad_dynstat_aduvel_min        =  -1.2932628256256E-03
(PID.TID 0000.0001) %MON ad_dynstat_aduvel_mean       =  -2.2719342680839E-04
(PID.TID 0000.0001) %MON ad_dynstat_aduvel_sd         =   1.6536893460881E-04
(PID.TID 0000.0001) %MON ad_dynstat_aduvel_del2       =   2.7501837535990E-07
(PID.TID 0000.0001) %MON ad_dynstat_advvel_max        =   1.0620253862345E-03
(PID.TID 0000.0001) %MON ad_dynstat_advvel_min        =  -3.2198120554856E-03
(PID.TID 0000.0001) %MON ad_dynstat_advvel_mean       =  -9.8015652860142E-04
(PID.TID 0000.0001) %MON ad_dynstat_advvel_sd         =   3.8257877881745E-04
(PID.TID 0000.0001) %MON ad_dynstat_advvel_del2       =   4.2733048539334E-07
(PID.TID 0000.0001) %MON ad_dynstat_adwvel_max        =   9.4382633056209E-04
(PID.TID 0000.0001) %MON ad_dynstat_adwvel_min        =  -1.8986865270556E-03
(PID.TID 0000.0001) %MON ad_dynstat_adwvel_mean       =  -7.3610763486693E-06
(PID.TID 0000.0001) %MON ad_dynstat_adwvel_sd         =   7.3156828992764E-05
(PID.TID 0000.0001) %MON ad_dynstat_adwvel_del2       =   4.7845523539390E-07
(PID.TID 0000.0001) %MON ad_dynstat_adtheta_max       =  -1.0045635920382E+00
(PID.TID 0000.0001) %MON ad_dynstat_adtheta_min       =  -6.3872061358244E+00
(PID.TID 0000.0001) %MON ad_dynstat_adtheta_mean      =  -3.8175291811723E+00
(PID.TID 0000.0001) %MON ad_dynstat_adtheta_sd        =   5.6020229028500E-02
(PID.TID 0000.0001) %MON ad_dynstat_adtheta_del2      =   2.1888720722195E-04
(PID.TID 0000.0001) %MON ad_dynstat_adsalt_max        =   3.5504380733407E-02
(PID.TID 0000.0001) %MON ad_dynstat_adsalt_min        =  -2.1766506808701E-02
(PID.TID 0000.0001) %MON ad_dynstat_adsalt_mean       =   6.7700789396730E-04
(PID.TID 0000.0001) %MON ad_dynstat_adsalt_sd         =   2.8800781758000E-03
(PID.TID 0000.0001) %MON ad_dynstat_adsalt_del2       =   6.0578404323105E-06
(PID.TID 0000.0001) %MON ad_dynstat_adsst_max         =   0.0000000000000E+00
(PID.TID 0000.0001) %MON ad_dynstat_adsst_min         =   0.0000000000000E+00
(PID.TID 0000.0001) %MON ad_dynstat_adsst_mean        =   0.0000000000000E+00
(PID.TID 0000.0001) %MON ad_dynstat_adsst_sd          =   0.0000000000000E+00
(PID.TID 0000.0001) %MON ad_dynstat_adsst_del2        =   0.0000000000000E+00
(PID.TID 0000.0001) %MON ad_dynstat_adsss_max         =   0.0000000000000E+00
(PID.TID 0000.0001) %MON ad_dynstat_adsss_min         =   0.0000000000000E+00
(PID.TID 0000.0001) %MON ad_dynstat_adsss_mean        =   0.0000000000000E+00
(PID.TID 0000.0001) %MON ad_dynstat_adsss_sd          =   0.0000000000000E+00
(PID.TID 0000.0001) %MON ad_dynstat_adsss_del2        =   0.0000000000000E+00
(PID.TID 0000.0001) %MON ad_forcing_adqnet_max        =   0.0000000000000E+00
(PID.TID 0000.0001) %MON ad_forcing_adqnet_min        =   0.0000000000000E+00
(PID.TID 0000.0001) %MON ad_forcing_adqnet_mean       =   0.0000000000000E+00
(PID.TID 0000.0001) %MON ad_forcing_adqnet_sd         =   0.0000000000000E+00
(PID.TID 0000.0001) %MON ad_forcing_adqnet_del2       =   0.0000000000000E+00
(PID.TID 0000.0001) %MON ad_forcing_adempmr_max       =   0.0000000000000E+00
(PID.TID 0000.0001) %MON ad_forcing_adempmr_min       =   0.0000000000000E+00
(PID.TID 0000.0001) %MON ad_forcing_adempmr_mean      =   0.0000000000000E+00
(PID.TID 0000.0001) %MON ad_forcing_adempmr_sd        =   0.0000000000000E+00
(PID.TID 0000.0001) %MON ad_forcing_adempmr_del2      =   0.0000000000000E+00
(PID.TID 0000.0001) %MON ad_forcing_adfu_max          =   0.0000000000000E+00
(PID.TID 0000.0001) %MON ad_forcing_adfu_min          =   0.0000000000000E+00
(PID.TID 0000.0001) %MON ad_forcing_adfu_mean         =   0.0000000000000E+00
(PID.TID 0000.0001) %MON ad_forcing_adfu_sd           =   0.0000000000000E+00
(PID.TID 0000.0001) %MON ad_forcing_adfu_del2         =   0.0000000000000E+00
(PID.TID 0000.0001) %MON ad_forcing_adfv_max          =   0.0000000000000E+00
(PID.TID 0000.0001) %MON ad_forcing_adfv_min          =   0.0000000000000E+00
(PID.TID 0000.0001) %MON ad_forcing_adfv_mean         =   0.0000000000000E+00
(PID.TID 0000.0001) %MON ad_forcing_adfv_sd           =   0.0000000000000E+00
(PID.TID 0000.0001) %MON ad_forcing_adfv_del2         =   0.0000000000000E+00
(PID.TID 0000.0001) %MON ad_advcfl_aduvel_max         =   4.1755288392109E-04
(PID.TID 0000.0001) %MON ad_advcfl_advvel_max         =   5.2129820233658E-04
(PID.TID 0000.0001) %MON ad_advcfl_adwvel_max         =   1.1392119162333E-01
(PID.TID 0000.0001) %MON ad_advcfl_adW_hf_max         =   2.8314789916863E-01
(PID.TID 0000.0001) // =======================================================
(PID.TID 0000.0001) // End MONITOR dynamic field statistics
(PID.TID 0000.0001) // =======================================================
 cg2d: Sum(rhs),rhsMax =  -3.88578058618805E-16  3.57466201665488E-03
(PID.TID 0000.0001) SOLVE_FOR_PRESSURE: putPmEinXvector =    F
 cg2d: Sum(rhs),rhsMax =   7.94736970460494E-13  5.27879962774467E-02
(PID.TID 0000.0001) // =======================================================
(PID.TID 0000.0001) // Begin MONITOR dynamic field statistics
(PID.TID 0000.0001) // =======================================================
(PID.TID 0000.0001) %MON ad_time_tsnumber             =                  8641
(PID.TID 0000.0001) %MON ad_time_secondsf             =   1.5553800000000E+07
(PID.TID 0000.0001) %MON ad_dynstat_adeta_max         =   4.5365950120261E-02
(PID.TID 0000.0001) %MON ad_dynstat_adeta_min         =  -7.5578424593365E-02
(PID.TID 0000.0001) %MON ad_dynstat_adeta_mean        =  -2.1428634091345E-04
(PID.TID 0000.0001) %MON ad_dynstat_adeta_sd          =   6.2920850201101E-03
(PID.TID 0000.0001) %MON ad_dynstat_adeta_del2        =   1.0444101718460E-04
(PID.TID 0000.0001) %MON ad_dynstat_aduvel_max        =   1.5537156982325E-03
(PID.TID 0000.0001) %MON ad_dynstat_aduvel_min        =  -1.0649523115755E-03
(PID.TID 0000.0001) %MON ad_dynstat_aduvel_mean       =   7.2727478792753E-05
(PID.TID 0000.0001) %MON ad_dynstat_aduvel_sd         =   1.8494879171048E-04
(PID.TID 0000.0001) %MON ad_dynstat_aduvel_del2       =   3.1148114297988E-07
(PID.TID 0000.0001) %MON ad_dynstat_advvel_max        =   2.2839221024721E-03
(PID.TID 0000.0001) %MON ad_dynstat_advvel_min        =  -2.8634228120633E-03
(PID.TID 0000.0001) %MON ad_dynstat_advvel_mean       =  -1.1526829206019E-03
(PID.TID 0000.0001) %MON ad_dynstat_advvel_sd         =   4.0248759179998E-04
(PID.TID 0000.0001) %MON ad_dynstat_advvel_del2       =   6.3601715503515E-07
(PID.TID 0000.0001) %MON ad_dynstat_adwvel_max        =   1.5177004778956E-03
(PID.TID 0000.0001) %MON ad_dynstat_adwvel_min        =  -2.0670881009126E-03
(PID.TID 0000.0001) %MON ad_dynstat_adwvel_mean       =  -7.5006626020688E-06
(PID.TID 0000.0001) %MON ad_dynstat_adwvel_sd         =   7.5625126574808E-05
(PID.TID 0000.0001) %MON ad_dynstat_adwvel_del2       =   4.8113862772442E-07
(PID.TID 0000.0001) %MON ad_dynstat_adtheta_max       =  -9.8248944803750E-01
(PID.TID 0000.0001) %MON ad_dynstat_adtheta_min       =  -6.4916965522516E+00
(PID.TID 0000.0001) %MON ad_dynstat_adtheta_mean      =  -3.8162889731554E+00
(PID.TID 0000.0001) %MON ad_dynstat_adtheta_sd        =   5.8272713902533E-02
(PID.TID 0000.0001) %MON ad_dynstat_adtheta_del2      =   2.5462393748509E-04
(PID.TID 0000.0001) %MON ad_dynstat_adsalt_max        =   3.8778730884823E-02
(PID.TID 0000.0001) %MON ad_dynstat_adsalt_min        =  -2.4173648936931E-02
(PID.TID 0000.0001) %MON ad_dynstat_adsalt_mean       =   7.5946306868586E-04
(PID.TID 0000.0001) %MON ad_dynstat_adsalt_sd         =   3.2010814554034E-03
(PID.TID 0000.0001) %MON ad_dynstat_adsalt_del2       =   6.6139851776339E-06
(PID.TID 0000.0001) %MON ad_dynstat_adsst_max         =   0.0000000000000E+00
(PID.TID 0000.0001) %MON ad_dynstat_adsst_min         =   0.0000000000000E+00
(PID.TID 0000.0001) %MON ad_dynstat_adsst_mean        =   0.0000000000000E+00
(PID.TID 0000.0001) %MON ad_dynstat_adsst_sd          =   0.0000000000000E+00
(PID.TID 0000.0001) %MON ad_dynstat_adsst_del2        =   0.0000000000000E+00
(PID.TID 0000.0001) %MON ad_dynstat_adsss_max         =   0.0000000000000E+00
(PID.TID 0000.0001) %MON ad_dynstat_adsss_min         =   0.0000000000000E+00
(PID.TID 0000.0001) %MON ad_dynstat_adsss_mean        =   0.0000000000000E+00
(PID.TID 0000.0001) %MON ad_dynstat_adsss_sd          =   0.0000000000000E+00
(PID.TID 0000.0001) %MON ad_dynstat_adsss_del2        =   0.0000000000000E+00
(PID.TID 0000.0001) %MON ad_forcing_adqnet_max        =   0.0000000000000E+00
(PID.TID 0000.0001) %MON ad_forcing_adqnet_min        =   0.0000000000000E+00
(PID.TID 0000.0001) %MON ad_forcing_adqnet_mean       =   0.0000000000000E+00
(PID.TID 0000.0001) %MON ad_forcing_adqnet_sd         =   0.0000000000000E+00
(PID.TID 0000.0001) %MON ad_forcing_adqnet_del2       =   0.0000000000000E+00
(PID.TID 0000.0001) %MON ad_forcing_adempmr_max       =   0.0000000000000E+00
(PID.TID 0000.0001) %MON ad_forcing_adempmr_min       =   0.0000000000000E+00
(PID.TID 0000.0001) %MON ad_forcing_adempmr_mean      =   0.0000000000000E+00
(PID.TID 0000.0001) %MON ad_forcing_adempmr_sd        =   0.0000000000000E+00
(PID.TID 0000.0001) %MON ad_forcing_adempmr_del2      =   0.0000000000000E+00
(PID.TID 0000.0001) %MON ad_forcing_adfu_max          =   0.0000000000000E+00
(PID.TID 0000.0001) %MON ad_forcing_adfu_min          =   0.0000000000000E+00
(PID.TID 0000.0001) %MON ad_forcing_adfu_mean         =   0.0000000000000E+00
(PID.TID 0000.0001) %MON ad_forcing_adfu_sd           =   0.0000000000000E+00
(PID.TID 0000.0001) %MON ad_forcing_adfu_del2         =   0.0000000000000E+00
(PID.TID 0000.0001) %MON ad_forcing_adfv_max          =   0.0000000000000E+00
(PID.TID 0000.0001) %MON ad_forcing_adfv_min          =   0.0000000000000E+00
(PID.TID 0000.0001) %MON ad_forcing_adfv_mean         =   0.0000000000000E+00
(PID.TID 0000.0001) %MON ad_forcing_adfv_sd           =   0.0000000000000E+00
(PID.TID 0000.0001) %MON ad_forcing_adfv_del2         =   0.0000000000000E+00
(PID.TID 0000.0001) %MON ad_advcfl_aduvel_max         =   3.9519034330298E-04
(PID.TID 0000.0001) %MON ad_advcfl_advvel_max         =   4.6359760716935E-04
(PID.TID 0000.0001) %MON ad_advcfl_adwvel_max         =   1.2402528605475E-01
(PID.TID 0000.0001) %MON ad_advcfl_adW_hf_max         =   4.5531014336869E-01
(PID.TID 0000.0001) // =======================================================
(PID.TID 0000.0001) // End MONITOR dynamic field statistics
(PID.TID 0000.0001) // =======================================================
 cg2d: Sum(rhs),rhsMax =   1.04083408558608E-16  3.13094209656697E-03
(PID.TID 0000.0001)  nRecords = 243 ; filePrec =  64 ; fileIter =      8640
(PID.TID 0000.0001)     nDims =   2 , dims:
(PID.TID 0000.0001)    1:  50   1  50
(PID.TID 0000.0001)    2: 100   1 100
(PID.TID 0000.0001)     nFlds =  11 , nFl3D =   8 , fields:
(PID.TID 0000.0001)  >Uvel    < >Vvel    < >Theta   < >Salt    < >GuNm1   < >GvNm1   < >GtNm1   < >GsNm1   < >EtaN    < >dEtaHdt < >EtaH    <
(PID.TID 0000.0001)   nTimRec =   0 , timeList:
(PID.TID 0000.0001) READ_MFLDS_3D_RL: read field: "Uvel    ", #   1 in fldList, rec=   1
(PID.TID 0000.0001) READ_MFLDS_3D_RL: read field: "Vvel    ", #   2 in fldList, rec=   2
(PID.TID 0000.0001) READ_MFLDS_3D_RL: read field: "Theta   ", #   3 in fldList, rec=   3
(PID.TID 0000.0001) READ_MFLDS_3D_RL: read field: "Salt    ", #   4 in fldList, rec=   4
(PID.TID 0000.0001) READ_MFLDS_3D_RL: read field: "GuNm1   ", #   5 in fldList, rec=   5
(PID.TID 0000.0001) READ_MFLDS_3D_RL: read field: "GvNm1   ", #   6 in fldList, rec=   6
(PID.TID 0000.0001) READ_MFLDS_3D_RL: read field: "GtNm1   ", #   7 in fldList, rec=   7
(PID.TID 0000.0001) READ_MFLDS_3D_RL: read field: "GsNm1   ", #   8 in fldList, rec=   8
(PID.TID 0000.0001) READ_MFLDS_3D_RL: read field: "EtaN    ", #   9 in fldList, rec= 241
(PID.TID 0000.0001) READ_MFLDS_3D_RL: read field: "dEtaHdt ", #  10 in fldList, rec= 242
(PID.TID 0000.0001) READ_MFLDS_3D_RL: read field: "EtaH    ", #  11 in fldList, rec= 243
(PID.TID 0000.0001) READ_MFLDS_CHECK: - normal end ; reset MFLDS file-name: pickup.0000008640
 SURF_ADJUSTMENT: Iter=        -1 Nb_pts,Vol=       343  8.64061790E+10
(PID.TID 0000.0001) // =======================================================
(PID.TID 0000.0001) // Begin MONITOR dynamic field statistics
(PID.TID 0000.0001) // =======================================================
(PID.TID 0000.0001) %MON ad_time_tsnumber             =                  8640
(PID.TID 0000.0001) %MON ad_time_secondsf             =   1.5552000000000E+07
(PID.TID 0000.0001) %MON ad_dynstat_adeta_max         =   6.5662024656720E-02
(PID.TID 0000.0001) %MON ad_dynstat_adeta_min         =  -1.0584872748876E-01
(PID.TID 0000.0001) %MON ad_dynstat_adeta_mean        =  -1.9213463100492E-04
(PID.TID 0000.0001) %MON ad_dynstat_adeta_sd          =   8.4405492150192E-03
(PID.TID 0000.0001) %MON ad_dynstat_adeta_del2        =   1.3455094244595E-04
(PID.TID 0000.0001) %MON ad_dynstat_aduvel_max        =   1.5326636842023E-03
(PID.TID 0000.0001) %MON ad_dynstat_aduvel_min        =  -1.1904264596086E-03
(PID.TID 0000.0001) %MON ad_dynstat_aduvel_mean       =   3.9924506650109E-04
(PID.TID 0000.0001) %MON ad_dynstat_aduvel_sd         =   2.2844117916550E-04
(PID.TID 0000.0001) %MON ad_dynstat_aduvel_del2       =   4.0349349219619E-07
(PID.TID 0000.0001) %MON ad_dynstat_advvel_max        =   3.9145118586106E-03
(PID.TID 0000.0001) %MON ad_dynstat_advvel_min        =  -2.2337100235601E-03
(PID.TID 0000.0001) %MON ad_dynstat_advvel_mean       =  -1.1805772802086E-03
(PID.TID 0000.0001) %MON ad_dynstat_advvel_sd         =   4.2104926809153E-04
(PID.TID 0000.0001) %MON ad_dynstat_advvel_del2       =   8.9687985656063E-07
(PID.TID 0000.0001) %MON ad_dynstat_adwvel_max        =   1.7172970788261E-03
(PID.TID 0000.0001) %MON ad_dynstat_adwvel_min        =  -2.2545159464094E-03
(PID.TID 0000.0001) %MON ad_dynstat_adwvel_mean       =  -7.2545879003490E-06
(PID.TID 0000.0001) %MON ad_dynstat_adwvel_sd         =   7.6569939840957E-05
(PID.TID 0000.0001) %MON ad_dynstat_adwvel_del2       =   4.9237309711687E-07
(PID.TID 0000.0001) %MON ad_dynstat_adtheta_max       =  -9.7258311101155E-01
(PID.TID 0000.0001) %MON ad_dynstat_adtheta_min       =  -6.4706695929610E+00
(PID.TID 0000.0001) %MON ad_dynstat_adtheta_mean      =  -3.8154872035320E+00
(PID.TID 0000.0001) %MON ad_dynstat_adtheta_sd        =   7.3418051748895E-02
(PID.TID 0000.0001) %MON ad_dynstat_adtheta_del2      =   3.9038047375763E-04
(PID.TID 0000.0001) %MON ad_dynstat_adsalt_max        =   4.1138741374614E-02
(PID.TID 0000.0001) %MON ad_dynstat_adsalt_min        =  -2.5842462465580E-02
(PID.TID 0000.0001) %MON ad_dynstat_adsalt_mean       =   8.4283983407503E-04
(PID.TID 0000.0001) %MON ad_dynstat_adsalt_sd         =   3.5212834554368E-03
(PID.TID 0000.0001) %MON ad_dynstat_adsalt_del2       =   7.0892063816654E-06
(PID.TID 0000.0001) %MON ad_dynstat_adsst_max         =   0.0000000000000E+00
(PID.TID 0000.0001) %MON ad_dynstat_adsst_min         =   0.0000000000000E+00
(PID.TID 0000.0001) %MON ad_dynstat_adsst_mean        =   0.0000000000000E+00
(PID.TID 0000.0001) %MON ad_dynstat_adsst_sd          =   0.0000000000000E+00
(PID.TID 0000.0001) %MON ad_dynstat_adsst_del2        =   0.0000000000000E+00
(PID.TID 0000.0001) %MON ad_dynstat_adsss_max         =   0.0000000000000E+00
(PID.TID 0000.0001) %MON ad_dynstat_adsss_min         =   0.0000000000000E+00
(PID.TID 0000.0001) %MON ad_dynstat_adsss_mean        =   0.0000000000000E+00
(PID.TID 0000.0001) %MON ad_dynstat_adsss_sd          =   0.0000000000000E+00
(PID.TID 0000.0001) %MON ad_dynstat_adsss_del2        =   0.0000000000000E+00
(PID.TID 0000.0001) %MON ad_forcing_adqnet_max        =   0.0000000000000E+00
(PID.TID 0000.0001) %MON ad_forcing_adqnet_min        =   0.0000000000000E+00
(PID.TID 0000.0001) %MON ad_forcing_adqnet_mean       =   0.0000000000000E+00
(PID.TID 0000.0001) %MON ad_forcing_adqnet_sd         =   0.0000000000000E+00
(PID.TID 0000.0001) %MON ad_forcing_adqnet_del2       =   0.0000000000000E+00
(PID.TID 0000.0001) %MON ad_forcing_adempmr_max       =   0.0000000000000E+00
(PID.TID 0000.0001) %MON ad_forcing_adempmr_min       =   0.0000000000000E+00
(PID.TID 0000.0001) %MON ad_forcing_adempmr_mean      =   0.0000000000000E+00
(PID.TID 0000.0001) %MON ad_forcing_adempmr_sd        =   0.0000000000000E+00
(PID.TID 0000.0001) %MON ad_forcing_adempmr_del2      =   0.0000000000000E+00
(PID.TID 0000.0001) %MON ad_forcing_adfu_max          =   0.0000000000000E+00
(PID.TID 0000.0001) %MON ad_forcing_adfu_min          =   0.0000000000000E+00
(PID.TID 0000.0001) %MON ad_forcing_adfu_mean         =   0.0000000000000E+00
(PID.TID 0000.0001) %MON ad_forcing_adfu_sd           =   0.0000000000000E+00
(PID.TID 0000.0001) %MON ad_forcing_adfu_del2         =   0.0000000000000E+00
(PID.TID 0000.0001) %MON ad_forcing_adfv_max          =   0.0000000000000E+00
(PID.TID 0000.0001) %MON ad_forcing_adfv_min          =   0.0000000000000E+00
(PID.TID 0000.0001) %MON ad_forcing_adfv_mean         =   0.0000000000000E+00
(PID.TID 0000.0001) %MON ad_forcing_adfv_sd           =   0.0000000000000E+00
(PID.TID 0000.0001) %MON ad_forcing_adfv_del2         =   0.0000000000000E+00
(PID.TID 0000.0001) %MON ad_advcfl_aduvel_max         =   3.8858446386885E-04
(PID.TID 0000.0001) %MON ad_advcfl_advvel_max         =   6.3377239408813E-04
(PID.TID 0000.0001) %MON ad_advcfl_adwvel_max         =   1.3527095678456E-01
(PID.TID 0000.0001) %MON ad_advcfl_adW_hf_max         =   5.1518912364784E-01
(PID.TID 0000.0001) // =======================================================
(PID.TID 0000.0001) // End MONITOR dynamic field statistics
(PID.TID 0000.0001) // =======================================================
 ph-check entering grdchk_main 
 ph-check fcref =    370477.59861892514     
grad-res -------------------------------
 grad-res  proc    #    i    j    k   bi   bj iobc               fc ref           fc + eps           fc - eps
 grad-res  proc    #    i    j    k   bi   bj iobc             adj grad            fd grad         1 - fd/adj
 grad-res exact position met: 
 grad-res     048676   20   24   20    1    1
 ph-test icomp, ncvarcomp, ichknum        48676      100597           1
 ph-grd _loc: bi, bj, icomptest, ichknum            1           1           0           1
 ph-grd _loc: bi, bj, icomptest, ichknum            1           1           0           1
 ph-grd _loc: bi, bj, icomptest, ichknum            1           1           0           1
 ph-grd _loc: bi, bj, icomptest, ichknum            1           1           0           1
 ph-grd _loc: bi, bj, icomptest, ichknum            1           1           0           1
 ph-grd _loc: bi, bj, icomptest, ichknum            1           1           0           1
 ph-grd _loc: bi, bj, icomptest, ichknum            1           1           0           1
 ph-grd _loc: bi, bj, icomptest, ichknum            1           1        2989           1
 ph-grd _loc: bi, bj, icomptest, ichknum            1           1        6076           1
 ph-grd _loc: bi, bj, icomptest, ichknum            1           1        9310           1
 ph-grd _loc: bi, bj, icomptest, ichknum            1           1       12642           1
 ph-grd _loc: bi, bj, icomptest, ichknum            1           1       16072           1
 ph-grd _loc: bi, bj, icomptest, ichknum            1           1       19649           1
 ph-grd _loc: bi, bj, icomptest, ichknum            1           1       23324           1
 ph-grd _loc: bi, bj, icomptest, ichknum            1           1       27146           1
 ph-grd _loc: bi, bj, icomptest, ichknum            1           1       31066           1
 ph-grd _loc: bi, bj, icomptest, ichknum            1           1       35084           1
 ph-grd _loc: bi, bj, icomptest, ichknum            1           1       39249           1
 ph-grd _loc: bi, bj, icomptest, ichknum            1           1       43512           1
 ph-grd _loc: bi, bj, icomptest, ichknum            1           1       47922           1
 ph-grd -->hit<--           20          24          20           1
(PID.TID 0000.0001) INI_CG2D: CG2D normalisation factor =  1.0404366262810520E-03
(PID.TID 0000.0001) 
(PID.TID 0000.0001)  nRecords = 243 ; filePrec =  64 ; fileIter =      8640
(PID.TID 0000.0001)     nDims =   2 , dims:
(PID.TID 0000.0001)    1:  50   1  50
(PID.TID 0000.0001)    2: 100   1 100
(PID.TID 0000.0001)     nFlds =  11 , nFl3D =   8 , fields:
(PID.TID 0000.0001)  >Uvel    < >Vvel    < >Theta   < >Salt    < >GuNm1   < >GvNm1   < >GtNm1   < >GsNm1   < >EtaN    < >dEtaHdt < >EtaH    <
(PID.TID 0000.0001)   nTimRec =   0 , timeList:
(PID.TID 0000.0001) READ_MFLDS_3D_RL: read field: "Uvel    ", #   1 in fldList, rec=   1
(PID.TID 0000.0001) READ_MFLDS_3D_RL: read field: "Vvel    ", #   2 in fldList, rec=   2
(PID.TID 0000.0001) READ_MFLDS_3D_RL: read field: "Theta   ", #   3 in fldList, rec=   3
(PID.TID 0000.0001) READ_MFLDS_3D_RL: read field: "Salt    ", #   4 in fldList, rec=   4
(PID.TID 0000.0001) READ_MFLDS_3D_RL: read field: "GuNm1   ", #   5 in fldList, rec=   5
(PID.TID 0000.0001) READ_MFLDS_3D_RL: read field: "GvNm1   ", #   6 in fldList, rec=   6
(PID.TID 0000.0001) READ_MFLDS_3D_RL: read field: "GtNm1   ", #   7 in fldList, rec=   7
(PID.TID 0000.0001) READ_MFLDS_3D_RL: read field: "GsNm1   ", #   8 in fldList, rec=   8
(PID.TID 0000.0001) READ_MFLDS_3D_RL: read field: "EtaN    ", #   9 in fldList, rec= 241
(PID.TID 0000.0001) READ_MFLDS_3D_RL: read field: "dEtaHdt ", #  10 in fldList, rec= 242
(PID.TID 0000.0001) READ_MFLDS_3D_RL: read field: "EtaH    ", #  11 in fldList, rec= 243
(PID.TID 0000.0001) READ_MFLDS_CHECK: - normal end ; reset MFLDS file-name: pickup.0000008640
 SURF_ADJUSTMENT: Iter=        -1 Nb_pts,Vol=       343  8.64061790E+10
 SURF_ADJUSTMENT: Iter=      8640 Nb_pts,Vol=       343  8.64061794E+10
(PID.TID 0000.0001) // =======================================================
(PID.TID 0000.0001) // Model current state
(PID.TID 0000.0001) // =======================================================
(PID.TID 0000.0001) 
(PID.TID 0000.0001) SOLVE_FOR_PRESSURE: putPmEinXvector =    F
 cg2d: Sum(rhs),rhsMax =   7.94736970460494E-13  5.27879962774467E-02
 SURF_ADJUSTMENT: Iter=      8641 Nb_pts,Vol=       343  8.64319973E+10
 cg2d: Sum(rhs),rhsMax =   6.06090454517358E-13  6.89222802851768E-02
 SURF_ADJUSTMENT: Iter=      8642 Nb_pts,Vol=       343  8.64329510E+10
 cg2d: Sum(rhs),rhsMax =   5.07818478023489E-13  8.30033649807625E-02
 SURF_ADJUSTMENT: Iter=      8643 Nb_pts,Vol=       343  8.64325778E+10
 cg2d: Sum(rhs),rhsMax =   4.28628934103815E-13  9.80476978960063E-02
 SURF_ADJUSTMENT: Iter=      8644 Nb_pts,Vol=       343  8.64310073E+10
 cg2d: Sum(rhs),rhsMax =   3.65891588945469E-13  1.14437851008119E-01
 SURF_ADJUSTMENT: Iter=      8645 Nb_pts,Vol=       343  8.64281820E+10
 cg2d: Sum(rhs),rhsMax =   3.14419009491557E-13  1.32278985278782E-01
 SURF_ADJUSTMENT: Iter=      8646 Nb_pts,Vol=       343  8.64244205E+10
 cg2d: Sum(rhs),rhsMax =   2.76330770331706E-13  1.51611292032675E-01
 SURF_ADJUSTMENT: Iter=      8647 Nb_pts,Vol=       343  8.64203107E+10
 cg2d: Sum(rhs),rhsMax =   2.44407684195369E-13  1.72463288082399E-01
 SURF_ADJUSTMENT: Iter=      8648 Nb_pts,Vol=       343  8.64165420E+10
 cg2d: Sum(rhs),rhsMax =   2.15763388058954E-13  1.94860198102001E-01
 SURF_ADJUSTMENT: Iter=      8649 Nb_pts,Vol=       343  8.64137707E+10
 cg2d: Sum(rhs),rhsMax =   1.92084385506816E-13  2.18828144614776E-01
 SURF_ADJUSTMENT: Iter=      8650 Nb_pts,Vol=       343  8.64125249E+10
(PID.TID 0000.0001) Did not write pickup because writePickupAtEnd = FALSE
 --> objf_shelfice(bi,bj) =  0.000000000000000D+00
 --> objf_shifwflx(bi,bj) =  0.000000000000000D+00
 --> objf_test(bi,bj)   =  0.370477560436986D+06
 --> objf_tracer(bi,bj) =  0.000000000000000D+00
 --> objf_atl(bi,bj)    =  0.000000000000000D+00
  local fc =  0.370477560436986D+06
 global fc =  0.370477560436986D+06
 ph-check fcpertplus =    370477.56043698633     
 ph-check fcpertminus =    370477.59861892514     
(PID.TID 0000.0001) INI_CG2D: CG2D normalisation factor =  1.0404366262810520E-03
(PID.TID 0000.0001) 
(PID.TID 0000.0001)  nRecords = 243 ; filePrec =  64 ; fileIter =      8640
(PID.TID 0000.0001)     nDims =   2 , dims:
(PID.TID 0000.0001)    1:  50   1  50
(PID.TID 0000.0001)    2: 100   1 100
(PID.TID 0000.0001)     nFlds =  11 , nFl3D =   8 , fields:
(PID.TID 0000.0001)  >Uvel    < >Vvel    < >Theta   < >Salt    < >GuNm1   < >GvNm1   < >GtNm1   < >GsNm1   < >EtaN    < >dEtaHdt < >EtaH    <
(PID.TID 0000.0001)   nTimRec =   0 , timeList:
(PID.TID 0000.0001) READ_MFLDS_3D_RL: read field: "Uvel    ", #   1 in fldList, rec=   1
(PID.TID 0000.0001) READ_MFLDS_3D_RL: read field: "Vvel    ", #   2 in fldList, rec=   2
(PID.TID 0000.0001) READ_MFLDS_3D_RL: read field: "Theta   ", #   3 in fldList, rec=   3
(PID.TID 0000.0001) READ_MFLDS_3D_RL: read field: "Salt    ", #   4 in fldList, rec=   4
(PID.TID 0000.0001) READ_MFLDS_3D_RL: read field: "GuNm1   ", #   5 in fldList, rec=   5
(PID.TID 0000.0001) READ_MFLDS_3D_RL: read field: "GvNm1   ", #   6 in fldList, rec=   6
(PID.TID 0000.0001) READ_MFLDS_3D_RL: read field: "GtNm1   ", #   7 in fldList, rec=   7
(PID.TID 0000.0001) READ_MFLDS_3D_RL: read field: "GsNm1   ", #   8 in fldList, rec=   8
(PID.TID 0000.0001) READ_MFLDS_3D_RL: read field: "EtaN    ", #   9 in fldList, rec= 241
(PID.TID 0000.0001) READ_MFLDS_3D_RL: read field: "dEtaHdt ", #  10 in fldList, rec= 242
(PID.TID 0000.0001) READ_MFLDS_3D_RL: read field: "EtaH    ", #  11 in fldList, rec= 243
(PID.TID 0000.0001) READ_MFLDS_CHECK: - normal end ; reset MFLDS file-name: pickup.0000008640
 SURF_ADJUSTMENT: Iter=        -1 Nb_pts,Vol=       343  8.64061790E+10
 SURF_ADJUSTMENT: Iter=      8640 Nb_pts,Vol=       343  8.64061794E+10
(PID.TID 0000.0001) // =======================================================
(PID.TID 0000.0001) // Model current state
(PID.TID 0000.0001) // =======================================================
(PID.TID 0000.0001) 
(PID.TID 0000.0001) SOLVE_FOR_PRESSURE: putPmEinXvector =    F
 cg2d: Sum(rhs),rhsMax =   7.94736970460494E-13  5.27879962774467E-02
 SURF_ADJUSTMENT: Iter=      8641 Nb_pts,Vol=       343  8.64319987E+10
 cg2d: Sum(rhs),rhsMax =   6.06051829814963E-13  6.89222822740792E-02
 SURF_ADJUSTMENT: Iter=      8642 Nb_pts,Vol=       343  8.64329523E+10
 cg2d: Sum(rhs),rhsMax =   5.06151029292315E-13  8.30033668157579E-02
 SURF_ADJUSTMENT: Iter=      8643 Nb_pts,Vol=       343  8.64325792E+10
 cg2d: Sum(rhs),rhsMax =   4.29172146497285E-13  9.80476983366970E-02
 SURF_ADJUSTMENT: Iter=      8644 Nb_pts,Vol=       343  8.64310087E+10
 cg2d: Sum(rhs),rhsMax =   3.68060481181418E-13  1.14437850504154E-01
 SURF_ADJUSTMENT: Iter=      8645 Nb_pts,Vol=       343  8.64281833E+10
 cg2d: Sum(rhs),rhsMax =   3.16448161619999E-13  1.32278984228337E-01
 SURF_ADJUSTMENT: Iter=      8646 Nb_pts,Vol=       343  8.64244218E+10
 cg2d: Sum(rhs),rhsMax =   2.76896046239386E-13  1.51611290373839E-01
 SURF_ADJUSTMENT: Iter=      8647 Nb_pts,Vol=       343  8.64203120E+10
 cg2d: Sum(rhs),rhsMax =   2.44015203008929E-13  1.72463285620970E-01
 SURF_ADJUSTMENT: Iter=      8648 Nb_pts,Vol=       343  8.64165433E+10
 cg2d: Sum(rhs),rhsMax =   2.16896650379744E-13  1.94860194724214E-01
 SURF_ADJUSTMENT: Iter=      8649 Nb_pts,Vol=       343  8.64137720E+10
 cg2d: Sum(rhs),rhsMax =   1.91897414842171E-13  2.18828140319252E-01
 SURF_ADJUSTMENT: Iter=      8650 Nb_pts,Vol=       343  8.64125261E+10
(PID.TID 0000.0001) Did not write pickup because writePickupAtEnd = FALSE
 --> objf_shelfice(bi,bj) =  0.000000000000000D+00
 --> objf_shifwflx(bi,bj) =  0.000000000000000D+00
 --> objf_test(bi,bj)   =  0.370477636963025D+06
 --> objf_tracer(bi,bj) =  0.000000000000000D+00
 --> objf_atl(bi,bj)    =  0.000000000000000D+00
  local fc =  0.370477636963025D+06
 global fc =  0.370477636963025D+06
grad-res -------------------------------
 grad-res     0    1   20   24   20    1    1    1   3.70477598619E+05  3.70477560437E+05  3.70477636963E+05
 grad-res     0    1    148676    0    1    1    1  -3.82630187331E+00 -3.82630191161E+00 -1.00102153233E-08
(PID.TID 0000.0001)  ADM  ref_cost_function      =  3.70477598618925E+05
(PID.TID 0000.0001)  ADM  adjoint_gradient       = -3.82630187331087E+00
(PID.TID 0000.0001)  ADM  finite-diff_grad       = -3.82630191161297E+00
 ph-grd  ierr ---------------------------
 ph-grd  ierr =            0 , icomp =        48676 , ichknum =            1
 ph-test icomp, ncvarcomp, ichknum        48677      100597           2
 ph-grd _loc: bi, bj, icomptest, ichknum            1           1       48676           2
 ph-grd -->hit<--           21          24          20           1
(PID.TID 0000.0001) INI_CG2D: CG2D normalisation factor =  1.0404366262810520E-03
(PID.TID 0000.0001) 
(PID.TID 0000.0001)  nRecords = 243 ; filePrec =  64 ; fileIter =      8640
(PID.TID 0000.0001)     nDims =   2 , dims:
(PID.TID 0000.0001)    1:  50   1  50
(PID.TID 0000.0001)    2: 100   1 100
(PID.TID 0000.0001)     nFlds =  11 , nFl3D =   8 , fields:
(PID.TID 0000.0001)  >Uvel    < >Vvel    < >Theta   < >Salt    < >GuNm1   < >GvNm1   < >GtNm1   < >GsNm1   < >EtaN    < >dEtaHdt < >EtaH    <
(PID.TID 0000.0001)   nTimRec =   0 , timeList:
(PID.TID 0000.0001) READ_MFLDS_3D_RL: read field: "Uvel    ", #   1 in fldList, rec=   1
(PID.TID 0000.0001) READ_MFLDS_3D_RL: read field: "Vvel    ", #   2 in fldList, rec=   2
(PID.TID 0000.0001) READ_MFLDS_3D_RL: read field: "Theta   ", #   3 in fldList, rec=   3
(PID.TID 0000.0001) READ_MFLDS_3D_RL: read field: "Salt    ", #   4 in fldList, rec=   4
(PID.TID 0000.0001) READ_MFLDS_3D_RL: read field: "GuNm1   ", #   5 in fldList, rec=   5
(PID.TID 0000.0001) READ_MFLDS_3D_RL: read field: "GvNm1   ", #   6 in fldList, rec=   6
(PID.TID 0000.0001) READ_MFLDS_3D_RL: read field: "GtNm1   ", #   7 in fldList, rec=   7
(PID.TID 0000.0001) READ_MFLDS_3D_RL: read field: "GsNm1   ", #   8 in fldList, rec=   8
(PID.TID 0000.0001) READ_MFLDS_3D_RL: read field: "EtaN    ", #   9 in fldList, rec= 241
(PID.TID 0000.0001) READ_MFLDS_3D_RL: read field: "dEtaHdt ", #  10 in fldList, rec= 242
(PID.TID 0000.0001) READ_MFLDS_3D_RL: read field: "EtaH    ", #  11 in fldList, rec= 243
(PID.TID 0000.0001) READ_MFLDS_CHECK: - normal end ; reset MFLDS file-name: pickup.0000008640
 SURF_ADJUSTMENT: Iter=        -1 Nb_pts,Vol=       343  8.64061790E+10
 SURF_ADJUSTMENT: Iter=      8640 Nb_pts,Vol=       343  8.64061794E+10
(PID.TID 0000.0001) // =======================================================
(PID.TID 0000.0001) // Model current state
(PID.TID 0000.0001) // =======================================================
(PID.TID 0000.0001) 
(PID.TID 0000.0001) SOLVE_FOR_PRESSURE: putPmEinXvector =    F
 cg2d: Sum(rhs),rhsMax =   7.94736970460494E-13  5.27879962774467E-02
 SURF_ADJUSTMENT: Iter=      8641 Nb_pts,Vol=       343  8.64319973E+10
 cg2d: Sum(rhs),rhsMax =   6.07416271143982E-13  6.89222803530218E-02
 SURF_ADJUSTMENT: Iter=      8642 Nb_pts,Vol=       343  8.64329510E+10
 cg2d: Sum(rhs),rhsMax =   5.05823383395790E-13  8.30033649916144E-02
 SURF_ADJUSTMENT: Iter=      8643 Nb_pts,Vol=       343  8.64325778E+10
 cg2d: Sum(rhs),rhsMax =   4.26856331314437E-13  9.80476978283014E-02
 SURF_ADJUSTMENT: Iter=      8644 Nb_pts,Vol=       343  8.64310073E+10
 cg2d: Sum(rhs),rhsMax =   3.65938575557119E-13  1.14437850891902E-01
 SURF_ADJUSTMENT: Iter=      8645 Nb_pts,Vol=       343  8.64281820E+10
 cg2d: Sum(rhs),rhsMax =   3.15781052023269E-13  1.32278985115422E-01
 SURF_ADJUSTMENT: Iter=      8646 Nb_pts,Vol=       343  8.64244205E+10
 cg2d: Sum(rhs),rhsMax =   2.75380250287088E-13  1.51611291806060E-01
 SURF_ADJUSTMENT: Iter=      8647 Nb_pts,Vol=       343  8.64203107E+10
 cg2d: Sum(rhs),rhsMax =   2.43252005994662E-13  1.72463287778075E-01
 SURF_ADJUSTMENT: Iter=      8648 Nb_pts,Vol=       343  8.64165420E+10
 cg2d: Sum(rhs),rhsMax =   2.15377439190603E-13  1.94860197708940E-01
 SURF_ADJUSTMENT: Iter=      8649 Nb_pts,Vol=       343  8.64137707E+10
 cg2d: Sum(rhs),rhsMax =   1.93374342146585E-13  2.18828144122407E-01
 SURF_ADJUSTMENT: Iter=      8650 Nb_pts,Vol=       343  8.64125249E+10
(PID.TID 0000.0001) Did not write pickup because writePickupAtEnd = FALSE
 --> objf_shelfice(bi,bj) =  0.000000000000000D+00
 --> objf_shifwflx(bi,bj) =  0.000000000000000D+00
 --> objf_test(bi,bj)   =  0.370477560442394D+06
 --> objf_tracer(bi,bj) =  0.000000000000000D+00
 --> objf_atl(bi,bj)    =  0.000000000000000D+00
  local fc =  0.370477560442394D+06
 global fc =  0.370477560442394D+06
 ph-check fcpertplus =    370477.56044239429     
 ph-check fcpertminus =    370477.59861892514     
(PID.TID 0000.0001) INI_CG2D: CG2D normalisation factor =  1.0404366262810520E-03
(PID.TID 0000.0001) 
(PID.TID 0000.0001)  nRecords = 243 ; filePrec =  64 ; fileIter =      8640
(PID.TID 0000.0001)     nDims =   2 , dims:
(PID.TID 0000.0001)    1:  50   1  50
(PID.TID 0000.0001)    2: 100   1 100
(PID.TID 0000.0001)     nFlds =  11 , nFl3D =   8 , fields:
(PID.TID 0000.0001)  >Uvel    < >Vvel    < >Theta   < >Salt    < >GuNm1   < >GvNm1   < >GtNm1   < >GsNm1   < >EtaN    < >dEtaHdt < >EtaH    <
(PID.TID 0000.0001)   nTimRec =   0 , timeList:
(PID.TID 0000.0001) READ_MFLDS_3D_RL: read field: "Uvel    ", #   1 in fldList, rec=   1
(PID.TID 0000.0001) READ_MFLDS_3D_RL: read field: "Vvel    ", #   2 in fldList, rec=   2
(PID.TID 0000.0001) READ_MFLDS_3D_RL: read field: "Theta   ", #   3 in fldList, rec=   3
(PID.TID 0000.0001) READ_MFLDS_3D_RL: read field: "Salt    ", #   4 in fldList, rec=   4
(PID.TID 0000.0001) READ_MFLDS_3D_RL: read field: "GuNm1   ", #   5 in fldList, rec=   5
(PID.TID 0000.0001) READ_MFLDS_3D_RL: read field: "GvNm1   ", #   6 in fldList, rec=   6
(PID.TID 0000.0001) READ_MFLDS_3D_RL: read field: "GtNm1   ", #   7 in fldList, rec=   7
(PID.TID 0000.0001) READ_MFLDS_3D_RL: read field: "GsNm1   ", #   8 in fldList, rec=   8
(PID.TID 0000.0001) READ_MFLDS_3D_RL: read field: "EtaN    ", #   9 in fldList, rec= 241
(PID.TID 0000.0001) READ_MFLDS_3D_RL: read field: "dEtaHdt ", #  10 in fldList, rec= 242
(PID.TID 0000.0001) READ_MFLDS_3D_RL: read field: "EtaH    ", #  11 in fldList, rec= 243
(PID.TID 0000.0001) READ_MFLDS_CHECK: - normal end ; reset MFLDS file-name: pickup.0000008640
 SURF_ADJUSTMENT: Iter=        -1 Nb_pts,Vol=       343  8.64061790E+10
 SURF_ADJUSTMENT: Iter=      8640 Nb_pts,Vol=       343  8.64061794E+10
(PID.TID 0000.0001) // =======================================================
(PID.TID 0000.0001) // Model current state
(PID.TID 0000.0001) // =======================================================
(PID.TID 0000.0001) 
(PID.TID 0000.0001) SOLVE_FOR_PRESSURE: putPmEinXvector =    F
 cg2d: Sum(rhs),rhsMax =   7.94736970460494E-13  5.27879962774467E-02
 SURF_ADJUSTMENT: Iter=      8641 Nb_pts,Vol=       343  8.64319987E+10
 cg2d: Sum(rhs),rhsMax =   6.09240820769949E-13  6.89222822063439E-02
 SURF_ADJUSTMENT: Iter=      8642 Nb_pts,Vol=       343  8.64329523E+10
 cg2d: Sum(rhs),rhsMax =   5.09066828404889E-13  8.30033668049395E-02
 SURF_ADJUSTMENT: Iter=      8643 Nb_pts,Vol=       343  8.64325792E+10
 cg2d: Sum(rhs),rhsMax =   4.27331062788187E-13  9.80476984042521E-02
 SURF_ADJUSTMENT: Iter=      8644 Nb_pts,Vol=       343  8.64310087E+10
 cg2d: Sum(rhs),rhsMax =   3.66620389645814E-13  1.14437850620017E-01
 SURF_ADJUSTMENT: Iter=      8645 Nb_pts,Vol=       343  8.64281833E+10
 cg2d: Sum(rhs),rhsMax =   3.17364556401238E-13  1.32278984391445E-01
 SURF_ADJUSTMENT: Iter=      8646 Nb_pts,Vol=       343  8.64244218E+10
 cg2d: Sum(rhs),rhsMax =   2.76037358118777E-13  1.51611290599717E-01
 SURF_ADJUSTMENT: Iter=      8647 Nb_pts,Vol=       343  8.64203120E+10
 cg2d: Sum(rhs),rhsMax =   2.43200072710600E-13  1.72463285924393E-01
 SURF_ADJUSTMENT: Iter=      8648 Nb_pts,Vol=       343  8.64165433E+10
 cg2d: Sum(rhs),rhsMax =   2.15472957401999E-13  1.94860195116271E-01
 SURF_ADJUSTMENT: Iter=      8649 Nb_pts,Vol=       343  8.64137720E+10
 cg2d: Sum(rhs),rhsMax =   1.92877018610066E-13  2.18828140810794E-01
 SURF_ADJUSTMENT: Iter=      8650 Nb_pts,Vol=       343  8.64125261E+10
(PID.TID 0000.0001) Did not write pickup because writePickupAtEnd = FALSE
 --> objf_shelfice(bi,bj) =  0.000000000000000D+00
 --> objf_shifwflx(bi,bj) =  0.000000000000000D+00
 --> objf_test(bi,bj)   =  0.370477636957617D+06
 --> objf_tracer(bi,bj) =  0.000000000000000D+00
 --> objf_atl(bi,bj)    =  0.000000000000000D+00
  local fc =  0.370477636957617D+06
 global fc =  0.370477636957617D+06
grad-res -------------------------------
 grad-res     0    2   21   24   20    1    1    1   3.70477598619E+05  3.70477560442E+05  3.70477636958E+05
 grad-res     0    2    248677    0    1    1    1  -3.82576108532E+00 -3.82576114498E+00 -1.55936159540E-08
(PID.TID 0000.0001)  ADM  ref_cost_function      =  3.70477598618925E+05
(PID.TID 0000.0001)  ADM  adjoint_gradient       = -3.82576108532334E+00
(PID.TID 0000.0001)  ADM  finite-diff_grad       = -3.82576114498079E+00
 ph-grd  ierr ---------------------------
 ph-grd  ierr =            0 , icomp =        48677 , ichknum =            2
 ph-test icomp, ncvarcomp, ichknum        48678      100597           3
 ph-grd _loc: bi, bj, icomptest, ichknum            1           1       48677           3
 ph-grd -->hit<--           22          24          20           1
(PID.TID 0000.0001) INI_CG2D: CG2D normalisation factor =  1.0404366262810520E-03
(PID.TID 0000.0001) 
(PID.TID 0000.0001)  nRecords = 243 ; filePrec =  64 ; fileIter =      8640
(PID.TID 0000.0001)     nDims =   2 , dims:
(PID.TID 0000.0001)    1:  50   1  50
(PID.TID 0000.0001)    2: 100   1 100
(PID.TID 0000.0001)     nFlds =  11 , nFl3D =   8 , fields:
(PID.TID 0000.0001)  >Uvel    < >Vvel    < >Theta   < >Salt    < >GuNm1   < >GvNm1   < >GtNm1   < >GsNm1   < >EtaN    < >dEtaHdt < >EtaH    <
(PID.TID 0000.0001)   nTimRec =   0 , timeList:
(PID.TID 0000.0001) READ_MFLDS_3D_RL: read field: "Uvel    ", #   1 in fldList, rec=   1
(PID.TID 0000.0001) READ_MFLDS_3D_RL: read field: "Vvel    ", #   2 in fldList, rec=   2
(PID.TID 0000.0001) READ_MFLDS_3D_RL: read field: "Theta   ", #   3 in fldList, rec=   3
(PID.TID 0000.0001) READ_MFLDS_3D_RL: read field: "Salt    ", #   4 in fldList, rec=   4
(PID.TID 0000.0001) READ_MFLDS_3D_RL: read field: "GuNm1   ", #   5 in fldList, rec=   5
(PID.TID 0000.0001) READ_MFLDS_3D_RL: read field: "GvNm1   ", #   6 in fldList, rec=   6
(PID.TID 0000.0001) READ_MFLDS_3D_RL: read field: "GtNm1   ", #   7 in fldList, rec=   7
(PID.TID 0000.0001) READ_MFLDS_3D_RL: read field: "GsNm1   ", #   8 in fldList, rec=   8
(PID.TID 0000.0001) READ_MFLDS_3D_RL: read field: "EtaN    ", #   9 in fldList, rec= 241
(PID.TID 0000.0001) READ_MFLDS_3D_RL: read field: "dEtaHdt ", #  10 in fldList, rec= 242
(PID.TID 0000.0001) READ_MFLDS_3D_RL: read field: "EtaH    ", #  11 in fldList, rec= 243
(PID.TID 0000.0001) READ_MFLDS_CHECK: - normal end ; reset MFLDS file-name: pickup.0000008640
 SURF_ADJUSTMENT: Iter=        -1 Nb_pts,Vol=       343  8.64061790E+10
 SURF_ADJUSTMENT: Iter=      8640 Nb_pts,Vol=       343  8.64061794E+10
(PID.TID 0000.0001) // =======================================================
(PID.TID 0000.0001) // Model current state
(PID.TID 0000.0001) // =======================================================
(PID.TID 0000.0001) 
(PID.TID 0000.0001) SOLVE_FOR_PRESSURE: putPmEinXvector =    F
 cg2d: Sum(rhs),rhsMax =   7.94736970460494E-13  5.27879962774467E-02
 SURF_ADJUSTMENT: Iter=      8641 Nb_pts,Vol=       343  8.64319973E+10
 cg2d: Sum(rhs),rhsMax =   6.10955567820898E-13  6.89222804172861E-02
 SURF_ADJUSTMENT: Iter=      8642 Nb_pts,Vol=       343  8.64329510E+10
 cg2d: Sum(rhs),rhsMax =   5.04735820196570E-13  8.30033650055089E-02
 SURF_ADJUSTMENT: Iter=      8643 Nb_pts,Vol=       343  8.64325778E+10
 cg2d: Sum(rhs),rhsMax =   4.26843402203531E-13  9.80476977689003E-02
 SURF_ADJUSTMENT: Iter=      8644 Nb_pts,Vol=       343  8.64310073E+10
 cg2d: Sum(rhs),rhsMax =   3.65922082131570E-13  1.14437850787476E-01
 SURF_ADJUSTMENT: Iter=      8645 Nb_pts,Vol=       343  8.64281820E+10
 cg2d: Sum(rhs),rhsMax =   3.20137755823076E-13  1.32278984968395E-01
 SURF_ADJUSTMENT: Iter=      8646 Nb_pts,Vol=       343  8.64244205E+10
 cg2d: Sum(rhs),rhsMax =   2.76168980262517E-13  1.51611291602396E-01
 SURF_ADJUSTMENT: Iter=      8647 Nb_pts,Vol=       343  8.64203107E+10
 cg2d: Sum(rhs),rhsMax =   2.44882293696375E-13  1.72463287504305E-01
 SURF_ADJUSTMENT: Iter=      8648 Nb_pts,Vol=       343  8.64165420E+10
 cg2d: Sum(rhs),rhsMax =   2.15493286192733E-13  1.94860197354517E-01
 SURF_ADJUSTMENT: Iter=      8649 Nb_pts,Vol=       343  8.64137707E+10
 cg2d: Sum(rhs),rhsMax =   1.90940850370441E-13  2.18828143678378E-01
 SURF_ADJUSTMENT: Iter=      8650 Nb_pts,Vol=       343  8.64125249E+10
(PID.TID 0000.0001) Did not write pickup because writePickupAtEnd = FALSE
 --> objf_shelfice(bi,bj) =  0.000000000000000D+00
 --> objf_shifwflx(bi,bj) =  0.000000000000000D+00
 --> objf_test(bi,bj)   =  0.370477560445975D+06
 --> objf_tracer(bi,bj) =  0.000000000000000D+00
 --> objf_atl(bi,bj)    =  0.000000000000000D+00
  local fc =  0.370477560445975D+06
 global fc =  0.370477560445975D+06
 ph-check fcpertplus =    370477.56044597476     
 ph-check fcpertminus =    370477.59861892514     
(PID.TID 0000.0001) INI_CG2D: CG2D normalisation factor =  1.0404366262810520E-03
(PID.TID 0000.0001) 
(PID.TID 0000.0001)  nRecords = 243 ; filePrec =  64 ; fileIter =      8640
(PID.TID 0000.0001)     nDims =   2 , dims:
(PID.TID 0000.0001)    1:  50   1  50
(PID.TID 0000.0001)    2: 100   1 100
(PID.TID 0000.0001)     nFlds =  11 , nFl3D =   8 , fields:
(PID.TID 0000.0001)  >Uvel    < >Vvel    < >Theta   < >Salt    < >GuNm1   < >GvNm1   < >GtNm1   < >GsNm1   < >EtaN    < >dEtaHdt < >EtaH    <
(PID.TID 0000.0001)   nTimRec =   0 , timeList:
(PID.TID 0000.0001) READ_MFLDS_3D_RL: read field: "Uvel    ", #   1 in fldList, rec=   1
(PID.TID 0000.0001) READ_MFLDS_3D_RL: read field: "Vvel    ", #   2 in fldList, rec=   2
(PID.TID 0000.0001) READ_MFLDS_3D_RL: read field: "Theta   ", #   3 in fldList, rec=   3
(PID.TID 0000.0001) READ_MFLDS_3D_RL: read field: "Salt    ", #   4 in fldList, rec=   4
(PID.TID 0000.0001) READ_MFLDS_3D_RL: read field: "GuNm1   ", #   5 in fldList, rec=   5
(PID.TID 0000.0001) READ_MFLDS_3D_RL: read field: "GvNm1   ", #   6 in fldList, rec=   6
(PID.TID 0000.0001) READ_MFLDS_3D_RL: read field: "GtNm1   ", #   7 in fldList, rec=   7
(PID.TID 0000.0001) READ_MFLDS_3D_RL: read field: "GsNm1   ", #   8 in fldList, rec=   8
(PID.TID 0000.0001) READ_MFLDS_3D_RL: read field: "EtaN    ", #   9 in fldList, rec= 241
(PID.TID 0000.0001) READ_MFLDS_3D_RL: read field: "dEtaHdt ", #  10 in fldList, rec= 242
(PID.TID 0000.0001) READ_MFLDS_3D_RL: read field: "EtaH    ", #  11 in fldList, rec= 243
(PID.TID 0000.0001) READ_MFLDS_CHECK: - normal end ; reset MFLDS file-name: pickup.0000008640
 SURF_ADJUSTMENT: Iter=        -1 Nb_pts,Vol=       343  8.64061790E+10
 SURF_ADJUSTMENT: Iter=      8640 Nb_pts,Vol=       343  8.64061794E+10
(PID.TID 0000.0001) // =======================================================
(PID.TID 0000.0001) // Model current state
(PID.TID 0000.0001) // =======================================================
(PID.TID 0000.0001) 
(PID.TID 0000.0001) SOLVE_FOR_PRESSURE: putPmEinXvector =    F
 cg2d: Sum(rhs),rhsMax =   7.94736970460494E-13  5.27879962774467E-02
 SURF_ADJUSTMENT: Iter=      8641 Nb_pts,Vol=       343  8.64319987E+10
 cg2d: Sum(rhs),rhsMax =   6.10312256461853E-13  6.89222821423739E-02
 SURF_ADJUSTMENT: Iter=      8642 Nb_pts,Vol=       343  8.64329523E+10
 cg2d: Sum(rhs),rhsMax =   5.06486616969754E-13  8.30033667910466E-02
 SURF_ADJUSTMENT: Iter=      8643 Nb_pts,Vol=       343  8.64325792E+10
 cg2d: Sum(rhs),rhsMax =   4.27195239361029E-13  9.80476984635750E-02
 SURF_ADJUSTMENT: Iter=      8644 Nb_pts,Vol=       343  8.64310087E+10
 cg2d: Sum(rhs),rhsMax =   3.66803118369459E-13  1.14437850724105E-01
 SURF_ADJUSTMENT: Iter=      8645 Nb_pts,Vol=       343  8.64281833E+10
 cg2d: Sum(rhs),rhsMax =   3.19684830365520E-13  1.32278984537892E-01
 SURF_ADJUSTMENT: Iter=      8646 Nb_pts,Vol=       343  8.64244218E+10
 cg2d: Sum(rhs),rhsMax =   2.76668580623599E-13  1.51611290802931E-01
 SURF_ADJUSTMENT: Iter=      8647 Nb_pts,Vol=       343  8.64203120E+10
 cg2d: Sum(rhs),rhsMax =   2.44963039653170E-13  1.72463286197560E-01
 SURF_ADJUSTMENT: Iter=      8648 Nb_pts,Vol=       343  8.64165433E+10
 cg2d: Sum(rhs),rhsMax =   2.16289388742935E-13  1.94860195469634E-01
 SURF_ADJUSTMENT: Iter=      8649 Nb_pts,Vol=       343  8.64137720E+10
 cg2d: Sum(rhs),rhsMax =   1.91159940524446E-13  2.18828141253641E-01
 SURF_ADJUSTMENT: Iter=      8650 Nb_pts,Vol=       343  8.64125261E+10
(PID.TID 0000.0001) Did not write pickup because writePickupAtEnd = FALSE
 --> objf_shelfice(bi,bj) =  0.000000000000000D+00
 --> objf_shifwflx(bi,bj) =  0.000000000000000D+00
 --> objf_test(bi,bj)   =  0.370477636954036D+06
 --> objf_tracer(bi,bj) =  0.000000000000000D+00
 --> objf_atl(bi,bj)    =  0.000000000000000D+00
  local fc =  0.370477636954036D+06
 global fc =  0.370477636954036D+06
grad-res -------------------------------
 grad-res     0    3   22   24   20    1    1    1   3.70477598619E+05  3.70477560446E+05  3.70477636954E+05
 grad-res     0    3    348678    0    1    1    1  -3.82540306527E+00 -3.82540306309E+00  5.68986635585E-10
(PID.TID 0000.0001)  ADM  ref_cost_function      =  3.70477598618925E+05
(PID.TID 0000.0001)  ADM  adjoint_gradient       = -3.82540306526898E+00
(PID.TID 0000.0001)  ADM  finite-diff_grad       = -3.82540306309238E+00
 ph-grd  ierr ---------------------------
 ph-grd  ierr =            0 , icomp =        48678 , ichknum =            3
 ph-test icomp, ncvarcomp, ichknum        48679      100597           4
 ph-grd _loc: bi, bj, icomptest, ichknum            1           1       48678           4
 ph-grd -->hit<--           23          24          20           1
(PID.TID 0000.0001) INI_CG2D: CG2D normalisation factor =  1.0404366262810520E-03
(PID.TID 0000.0001) 
(PID.TID 0000.0001)  nRecords = 243 ; filePrec =  64 ; fileIter =      8640
(PID.TID 0000.0001)     nDims =   2 , dims:
(PID.TID 0000.0001)    1:  50   1  50
(PID.TID 0000.0001)    2: 100   1 100
(PID.TID 0000.0001)     nFlds =  11 , nFl3D =   8 , fields:
(PID.TID 0000.0001)  >Uvel    < >Vvel    < >Theta   < >Salt    < >GuNm1   < >GvNm1   < >GtNm1   < >GsNm1   < >EtaN    < >dEtaHdt < >EtaH    <
(PID.TID 0000.0001)   nTimRec =   0 , timeList:
(PID.TID 0000.0001) READ_MFLDS_3D_RL: read field: "Uvel    ", #   1 in fldList, rec=   1
(PID.TID 0000.0001) READ_MFLDS_3D_RL: read field: "Vvel    ", #   2 in fldList, rec=   2
(PID.TID 0000.0001) READ_MFLDS_3D_RL: read field: "Theta   ", #   3 in fldList, rec=   3
(PID.TID 0000.0001) READ_MFLDS_3D_RL: read field: "Salt    ", #   4 in fldList, rec=   4
(PID.TID 0000.0001) READ_MFLDS_3D_RL: read field: "GuNm1   ", #   5 in fldList, rec=   5
(PID.TID 0000.0001) READ_MFLDS_3D_RL: read field: "GvNm1   ", #   6 in fldList, rec=   6
(PID.TID 0000.0001) READ_MFLDS_3D_RL: read field: "GtNm1   ", #   7 in fldList, rec=   7
(PID.TID 0000.0001) READ_MFLDS_3D_RL: read field: "GsNm1   ", #   8 in fldList, rec=   8
(PID.TID 0000.0001) READ_MFLDS_3D_RL: read field: "EtaN    ", #   9 in fldList, rec= 241
(PID.TID 0000.0001) READ_MFLDS_3D_RL: read field: "dEtaHdt ", #  10 in fldList, rec= 242
(PID.TID 0000.0001) READ_MFLDS_3D_RL: read field: "EtaH    ", #  11 in fldList, rec= 243
(PID.TID 0000.0001) READ_MFLDS_CHECK: - normal end ; reset MFLDS file-name: pickup.0000008640
 SURF_ADJUSTMENT: Iter=        -1 Nb_pts,Vol=       343  8.64061790E+10
 SURF_ADJUSTMENT: Iter=      8640 Nb_pts,Vol=       343  8.64061794E+10
(PID.TID 0000.0001) // =======================================================
(PID.TID 0000.0001) // Model current state
(PID.TID 0000.0001) // =======================================================
(PID.TID 0000.0001) 
(PID.TID 0000.0001) SOLVE_FOR_PRESSURE: putPmEinXvector =    F
 cg2d: Sum(rhs),rhsMax =   7.94736970460494E-13  5.27879962774467E-02
 SURF_ADJUSTMENT: Iter=      8641 Nb_pts,Vol=       343  8.64319973E+10
 cg2d: Sum(rhs),rhsMax =   6.10224517401045E-13  6.89222804779588E-02
 SURF_ADJUSTMENT: Iter=      8642 Nb_pts,Vol=       343  8.64329510E+10
 cg2d: Sum(rhs),rhsMax =   5.05966823343210E-13  8.30033650220065E-02
 SURF_ADJUSTMENT: Iter=      8643 Nb_pts,Vol=       343  8.64325778E+10
 cg2d: Sum(rhs),rhsMax =   4.27036105587163E-13  9.80476977168651E-02
 SURF_ADJUSTMENT: Iter=      8644 Nb_pts,Vol=       343  8.64310073E+10
 cg2d: Sum(rhs),rhsMax =   3.67152963305466E-13  1.14437850693737E-01
 SURF_ADJUSTMENT: Iter=      8645 Nb_pts,Vol=       343  8.64281820E+10
 cg2d: Sum(rhs),rhsMax =   3.17415391930601E-13  1.32278984836438E-01
 SURF_ADJUSTMENT: Iter=      8646 Nb_pts,Vol=       343  8.64244205E+10
 cg2d: Sum(rhs),rhsMax =   2.78638521760896E-13  1.51611291419354E-01
 SURF_ADJUSTMENT: Iter=      8647 Nb_pts,Vol=       343  8.64203107E+10
 cg2d: Sum(rhs),rhsMax =   2.44581102332858E-13  1.72463287257840E-01
 SURF_ADJUSTMENT: Iter=      8648 Nb_pts,Vol=       343  8.64165420E+10
 cg2d: Sum(rhs),rhsMax =   2.14763645235705E-13  1.94860197035699E-01
 SURF_ADJUSTMENT: Iter=      8649 Nb_pts,Vol=       343  8.64137707E+10
 cg2d: Sum(rhs),rhsMax =   1.93338942945653E-13  2.18828143279145E-01
 SURF_ADJUSTMENT: Iter=      8650 Nb_pts,Vol=       343  8.64125249E+10
(PID.TID 0000.0001) Did not write pickup because writePickupAtEnd = FALSE
 --> objf_shelfice(bi,bj) =  0.000000000000000D+00
 --> objf_shifwflx(bi,bj) =  0.000000000000000D+00
 --> objf_test(bi,bj)   =  0.370477560448304D+06
 --> objf_tracer(bi,bj) =  0.000000000000000D+00
 --> objf_atl(bi,bj)    =  0.000000000000000D+00
  local fc =  0.370477560448304D+06
 global fc =  0.370477560448304D+06
 ph-check fcpertplus =    370477.56044830399     
 ph-check fcpertminus =    370477.59861892514     
(PID.TID 0000.0001) INI_CG2D: CG2D normalisation factor =  1.0404366262810520E-03
(PID.TID 0000.0001) 
(PID.TID 0000.0001)  nRecords = 243 ; filePrec =  64 ; fileIter =      8640
(PID.TID 0000.0001)     nDims =   2 , dims:
(PID.TID 0000.0001)    1:  50   1  50
(PID.TID 0000.0001)    2: 100   1 100
(PID.TID 0000.0001)     nFlds =  11 , nFl3D =   8 , fields:
(PID.TID 0000.0001)  >Uvel    < >Vvel    < >Theta   < >Salt    < >GuNm1   < >GvNm1   < >GtNm1   < >GsNm1   < >EtaN    < >dEtaHdt < >EtaH    <
(PID.TID 0000.0001)   nTimRec =   0 , timeList:
(PID.TID 0000.0001) READ_MFLDS_3D_RL: read field: "Uvel    ", #   1 in fldList, rec=   1
(PID.TID 0000.0001) READ_MFLDS_3D_RL: read field: "Vvel    ", #   2 in fldList, rec=   2
(PID.TID 0000.0001) READ_MFLDS_3D_RL: read field: "Theta   ", #   3 in fldList, rec=   3
(PID.TID 0000.0001) READ_MFLDS_3D_RL: read field: "Salt    ", #   4 in fldList, rec=   4
(PID.TID 0000.0001) READ_MFLDS_3D_RL: read field: "GuNm1   ", #   5 in fldList, rec=   5
(PID.TID 0000.0001) READ_MFLDS_3D_RL: read field: "GvNm1   ", #   6 in fldList, rec=   6
(PID.TID 0000.0001) READ_MFLDS_3D_RL: read field: "GtNm1   ", #   7 in fldList, rec=   7
(PID.TID 0000.0001) READ_MFLDS_3D_RL: read field: "GsNm1   ", #   8 in fldList, rec=   8
(PID.TID 0000.0001) READ_MFLDS_3D_RL: read field: "EtaN    ", #   9 in fldList, rec= 241
(PID.TID 0000.0001) READ_MFLDS_3D_RL: read field: "dEtaHdt ", #  10 in fldList, rec= 242
(PID.TID 0000.0001) READ_MFLDS_3D_RL: read field: "EtaH    ", #  11 in fldList, rec= 243
(PID.TID 0000.0001) READ_MFLDS_CHECK: - normal end ; reset MFLDS file-name: pickup.0000008640
 SURF_ADJUSTMENT: Iter=        -1 Nb_pts,Vol=       343  8.64061790E+10
 SURF_ADJUSTMENT: Iter=      8640 Nb_pts,Vol=       343  8.64061794E+10
(PID.TID 0000.0001) // =======================================================
(PID.TID 0000.0001) // Model current state
(PID.TID 0000.0001) // =======================================================
(PID.TID 0000.0001) 
(PID.TID 0000.0001) SOLVE_FOR_PRESSURE: putPmEinXvector =    F
 cg2d: Sum(rhs),rhsMax =   7.94736970460494E-13  5.27879962774467E-02
 SURF_ADJUSTMENT: Iter=      8641 Nb_pts,Vol=       343  8.64319987E+10
 cg2d: Sum(rhs),rhsMax =   6.06151630624940E-13  6.89222820820362E-02
 SURF_ADJUSTMENT: Iter=      8642 Nb_pts,Vol=       343  8.64329523E+10
 cg2d: Sum(rhs),rhsMax =   5.04246275810638E-13  8.30033667745048E-02
 SURF_ADJUSTMENT: Iter=      8643 Nb_pts,Vol=       343  8.64325792E+10
 cg2d: Sum(rhs),rhsMax =   4.27814345906573E-13  9.80476985154835E-02
 SURF_ADJUSTMENT: Iter=      8644 Nb_pts,Vol=       343  8.64310087E+10
 cg2d: Sum(rhs),rhsMax =   3.66190151118717E-13  1.14437850817619E-01
 SURF_ADJUSTMENT: Iter=      8645 Nb_pts,Vol=       343  8.64281833E+10
 cg2d: Sum(rhs),rhsMax =   3.18280490396554E-13  1.32278984669403E-01
 SURF_ADJUSTMENT: Iter=      8646 Nb_pts,Vol=       343  8.64244218E+10
 cg2d: Sum(rhs),rhsMax =   2.77605439720843E-13  1.51611290985363E-01
 SURF_ADJUSTMENT: Iter=      8647 Nb_pts,Vol=       343  8.64203120E+10
 cg2d: Sum(rhs),rhsMax =   2.42635718374767E-13  1.72463286443260E-01
 SURF_ADJUSTMENT: Iter=      8648 Nb_pts,Vol=       343  8.64165433E+10
 cg2d: Sum(rhs),rhsMax =   2.13678602806536E-13  1.94860195788073E-01
 SURF_ADJUSTMENT: Iter=      8649 Nb_pts,Vol=       343  8.64137720E+10
 cg2d: Sum(rhs),rhsMax =   1.92943453098185E-13  2.18828141651565E-01
 SURF_ADJUSTMENT: Iter=      8650 Nb_pts,Vol=       343  8.64125262E+10
(PID.TID 0000.0001) Did not write pickup because writePickupAtEnd = FALSE
 --> objf_shelfice(bi,bj) =  0.000000000000000D+00
 --> objf_shifwflx(bi,bj) =  0.000000000000000D+00
 --> objf_test(bi,bj)   =  0.370477636951708D+06
 --> objf_tracer(bi,bj) =  0.000000000000000D+00
 --> objf_atl(bi,bj)    =  0.000000000000000D+00
  local fc =  0.370477636951708D+06
 global fc =  0.370477636951708D+06
grad-res -------------------------------
 grad-res     0    4   23   24   20    1    1    1   3.70477598619E+05  3.70477560448E+05  3.70477636952E+05
 grad-res     0    4    448679    0    1    1    1  -3.82517018522E+00 -3.82517018297E+00  5.86826254256E-10
(PID.TID 0000.0001)  ADM  ref_cost_function      =  3.70477598618925E+05
(PID.TID 0000.0001)  ADM  adjoint_gradient       = -3.82517018521693E+00
(PID.TID 0000.0001)  ADM  finite-diff_grad       = -3.82517018297222E+00
 ph-grd  ierr ---------------------------
 ph-grd  ierr =            0 , icomp =        48679 , ichknum =            4
 ph-test icomp, ncvarcomp, ichknum        48680      100597           5
 ph-grd _loc: bi, bj, icomptest, ichknum            1           1       48679           5
 ph-grd -->hit<--           24          24          20           1
(PID.TID 0000.0001) INI_CG2D: CG2D normalisation factor =  1.0404366262810520E-03
(PID.TID 0000.0001) 
(PID.TID 0000.0001)  nRecords = 243 ; filePrec =  64 ; fileIter =      8640
(PID.TID 0000.0001)     nDims =   2 , dims:
(PID.TID 0000.0001)    1:  50   1  50
(PID.TID 0000.0001)    2: 100   1 100
(PID.TID 0000.0001)     nFlds =  11 , nFl3D =   8 , fields:
(PID.TID 0000.0001)  >Uvel    < >Vvel    < >Theta   < >Salt    < >GuNm1   < >GvNm1   < >GtNm1   < >GsNm1   < >EtaN    < >dEtaHdt < >EtaH    <
(PID.TID 0000.0001)   nTimRec =   0 , timeList:
(PID.TID 0000.0001) READ_MFLDS_3D_RL: read field: "Uvel    ", #   1 in fldList, rec=   1
(PID.TID 0000.0001) READ_MFLDS_3D_RL: read field: "Vvel    ", #   2 in fldList, rec=   2
(PID.TID 0000.0001) READ_MFLDS_3D_RL: read field: "Theta   ", #   3 in fldList, rec=   3
(PID.TID 0000.0001) READ_MFLDS_3D_RL: read field: "Salt    ", #   4 in fldList, rec=   4
(PID.TID 0000.0001) READ_MFLDS_3D_RL: read field: "GuNm1   ", #   5 in fldList, rec=   5
(PID.TID 0000.0001) READ_MFLDS_3D_RL: read field: "GvNm1   ", #   6 in fldList, rec=   6
(PID.TID 0000.0001) READ_MFLDS_3D_RL: read field: "GtNm1   ", #   7 in fldList, rec=   7
(PID.TID 0000.0001) READ_MFLDS_3D_RL: read field: "GsNm1   ", #   8 in fldList, rec=   8
(PID.TID 0000.0001) READ_MFLDS_3D_RL: read field: "EtaN    ", #   9 in fldList, rec= 241
(PID.TID 0000.0001) READ_MFLDS_3D_RL: read field: "dEtaHdt ", #  10 in fldList, rec= 242
(PID.TID 0000.0001) READ_MFLDS_3D_RL: read field: "EtaH    ", #  11 in fldList, rec= 243
(PID.TID 0000.0001) READ_MFLDS_CHECK: - normal end ; reset MFLDS file-name: pickup.0000008640
 SURF_ADJUSTMENT: Iter=        -1 Nb_pts,Vol=       343  8.64061790E+10
 SURF_ADJUSTMENT: Iter=      8640 Nb_pts,Vol=       343  8.64061794E+10
(PID.TID 0000.0001) // =======================================================
(PID.TID 0000.0001) // Model current state
(PID.TID 0000.0001) // =======================================================
(PID.TID 0000.0001) 
(PID.TID 0000.0001) SOLVE_FOR_PRESSURE: putPmEinXvector =    F
 cg2d: Sum(rhs),rhsMax =   7.94736970460494E-13  5.27879962774467E-02
 SURF_ADJUSTMENT: Iter=      8641 Nb_pts,Vol=       343  8.64319973E+10
 cg2d: Sum(rhs),rhsMax =   6.08414333453863E-13  6.89222805347657E-02
 SURF_ADJUSTMENT: Iter=      8642 Nb_pts,Vol=       343  8.64329510E+10
 cg2d: Sum(rhs),rhsMax =   5.07565587866757E-13  8.30033650406006E-02
 SURF_ADJUSTMENT: Iter=      8643 Nb_pts,Vol=       343  8.64325778E+10
 cg2d: Sum(rhs),rhsMax =   4.28766722647411E-13  9.80476976714686E-02
 SURF_ADJUSTMENT: Iter=      8644 Nb_pts,Vol=       343  8.64310073E+10
 cg2d: Sum(rhs),rhsMax =   3.66804880197989E-13  1.14437850609406E-01
 SURF_ADJUSTMENT: Iter=      8645 Nb_pts,Vol=       343  8.64281820E+10
 cg2d: Sum(rhs),rhsMax =   3.17492776860662E-13  1.32278984717898E-01
 SURF_ADJUSTMENT: Iter=      8646 Nb_pts,Vol=       343  8.64244205E+10
 cg2d: Sum(rhs),rhsMax =   2.76806138774233E-13  1.51611291254707E-01
 SURF_ADJUSTMENT: Iter=      8647 Nb_pts,Vol=       343  8.64203107E+10
 cg2d: Sum(rhs),rhsMax =   2.43615647403314E-13  1.72463287036220E-01
 SURF_ADJUSTMENT: Iter=      8648 Nb_pts,Vol=       343  8.64165420E+10
 cg2d: Sum(rhs),rhsMax =   2.14988183505627E-13  1.94860196748778E-01
 SURF_ADJUSTMENT: Iter=      8649 Nb_pts,Vol=       343  8.64137707E+10
 cg2d: Sum(rhs),rhsMax =   1.90291115113525E-13  2.18828142919979E-01
 SURF_ADJUSTMENT: Iter=      8650 Nb_pts,Vol=       343  8.64125249E+10
(PID.TID 0000.0001) Did not write pickup because writePickupAtEnd = FALSE
 --> objf_shelfice(bi,bj) =  0.000000000000000D+00
 --> objf_shifwflx(bi,bj) =  0.000000000000000D+00
 --> objf_test(bi,bj)   =  0.370477560449870D+06
 --> objf_tracer(bi,bj) =  0.000000000000000D+00
 --> objf_atl(bi,bj)    =  0.000000000000000D+00
  local fc =  0.370477560449870D+06
 global fc =  0.370477560449870D+06
 ph-check fcpertplus =    370477.56044987025     
 ph-check fcpertminus =    370477.59861892514     
(PID.TID 0000.0001) INI_CG2D: CG2D normalisation factor =  1.0404366262810520E-03
(PID.TID 0000.0001) 
(PID.TID 0000.0001)  nRecords = 243 ; filePrec =  64 ; fileIter =      8640
(PID.TID 0000.0001)     nDims =   2 , dims:
(PID.TID 0000.0001)    1:  50   1  50
(PID.TID 0000.0001)    2: 100   1 100
(PID.TID 0000.0001)     nFlds =  11 , nFl3D =   8 , fields:
(PID.TID 0000.0001)  >Uvel    < >Vvel    < >Theta   < >Salt    < >GuNm1   < >GvNm1   < >GtNm1   < >GsNm1   < >EtaN    < >dEtaHdt < >EtaH    <
(PID.TID 0000.0001)   nTimRec =   0 , timeList:
(PID.TID 0000.0001) READ_MFLDS_3D_RL: read field: "Uvel    ", #   1 in fldList, rec=   1
(PID.TID 0000.0001) READ_MFLDS_3D_RL: read field: "Vvel    ", #   2 in fldList, rec=   2
(PID.TID 0000.0001) READ_MFLDS_3D_RL: read field: "Theta   ", #   3 in fldList, rec=   3
(PID.TID 0000.0001) READ_MFLDS_3D_RL: read field: "Salt    ", #   4 in fldList, rec=   4
(PID.TID 0000.0001) READ_MFLDS_3D_RL: read field: "GuNm1   ", #   5 in fldList, rec=   5
(PID.TID 0000.0001) READ_MFLDS_3D_RL: read field: "GvNm1   ", #   6 in fldList, rec=   6
(PID.TID 0000.0001) READ_MFLDS_3D_RL: read field: "GtNm1   ", #   7 in fldList, rec=   7
(PID.TID 0000.0001) READ_MFLDS_3D_RL: read field: "GsNm1   ", #   8 in fldList, rec=   8
(PID.TID 0000.0001) READ_MFLDS_3D_RL: read field: "EtaN    ", #   9 in fldList, rec= 241
(PID.TID 0000.0001) READ_MFLDS_3D_RL: read field: "dEtaHdt ", #  10 in fldList, rec= 242
(PID.TID 0000.0001) READ_MFLDS_3D_RL: read field: "EtaH    ", #  11 in fldList, rec= 243
(PID.TID 0000.0001) READ_MFLDS_CHECK: - normal end ; reset MFLDS file-name: pickup.0000008640
 SURF_ADJUSTMENT: Iter=        -1 Nb_pts,Vol=       343  8.64061790E+10
 SURF_ADJUSTMENT: Iter=      8640 Nb_pts,Vol=       343  8.64061794E+10
(PID.TID 0000.0001) // =======================================================
(PID.TID 0000.0001) // Model current state
(PID.TID 0000.0001) // =======================================================
(PID.TID 0000.0001) 
(PID.TID 0000.0001) SOLVE_FOR_PRESSURE: putPmEinXvector =    F
 cg2d: Sum(rhs),rhsMax =   7.94736970460494E-13  5.27879962774467E-02
 SURF_ADJUSTMENT: Iter=      8641 Nb_pts,Vol=       343  8.64319987E+10
 cg2d: Sum(rhs),rhsMax =   6.07756846151414E-13  6.89222820253925E-02
 SURF_ADJUSTMENT: Iter=      8642 Nb_pts,Vol=       343  8.64329523E+10
 cg2d: Sum(rhs),rhsMax =   5.06631195329454E-13  8.30033667562077E-02
 SURF_ADJUSTMENT: Iter=      8643 Nb_pts,Vol=       343  8.64325792E+10
 cg2d: Sum(rhs),rhsMax =   4.28008133492377E-13  9.80476985607416E-02
 SURF_ADJUSTMENT: Iter=      8644 Nb_pts,Vol=       343  8.64310087E+10
 cg2d: Sum(rhs),rhsMax =   3.69182874375429E-13  1.14437850901729E-01
 SURF_ADJUSTMENT: Iter=      8645 Nb_pts,Vol=       343  8.64281833E+10
 cg2d: Sum(rhs),rhsMax =   3.17526793703823E-13  1.32278984787810E-01
 SURF_ADJUSTMENT: Iter=      8646 Nb_pts,Vol=       343  8.64244218E+10
 cg2d: Sum(rhs),rhsMax =   2.77902646641376E-13  1.51611291149502E-01
 SURF_ADJUSTMENT: Iter=      8647 Nb_pts,Vol=       343  8.64203120E+10
 cg2d: Sum(rhs),rhsMax =   2.40276467342385E-13  1.72463286664239E-01
 SURF_ADJUSTMENT: Iter=      8648 Nb_pts,Vol=       343  8.64165433E+10
 cg2d: Sum(rhs),rhsMax =   2.13980309166084E-13  1.94860196074182E-01
 SURF_ADJUSTMENT: Iter=      8649 Nb_pts,Vol=       343  8.64137720E+10
 cg2d: Sum(rhs),rhsMax =   1.94036383098159E-13  2.18828142009774E-01
 SURF_ADJUSTMENT: Iter=      8650 Nb_pts,Vol=       343  8.64125262E+10
(PID.TID 0000.0001) Did not write pickup because writePickupAtEnd = FALSE
 --> objf_shelfice(bi,bj) =  0.000000000000000D+00
 --> objf_shifwflx(bi,bj) =  0.000000000000000D+00
 --> objf_test(bi,bj)   =  0.370477636950142D+06
 --> objf_tracer(bi,bj) =  0.000000000000000D+00
 --> objf_atl(bi,bj)    =  0.000000000000000D+00
  local fc =  0.370477636950142D+06
 global fc =  0.370477636950142D+06
grad-res -------------------------------
 grad-res     0    5   24   24   20    1    1    1   3.70477598619E+05  3.70477560450E+05  3.70477636950E+05
 grad-res     0    5    548680    0    1    1    1  -3.82501359646E+00 -3.82501358981E+00  1.73877656717E-09
(PID.TID 0000.0001)  ADM  ref_cost_function      =  3.70477598618925E+05
(PID.TID 0000.0001)  ADM  adjoint_gradient       = -3.82501359646329E+00
(PID.TID 0000.0001)  ADM  finite-diff_grad       = -3.82501358981244E+00
 ph-grd  ierr ---------------------------
 ph-grd  ierr =            0 , icomp =        48680 , ichknum =            5
(PID.TID 0000.0001) 
(PID.TID 0000.0001) // =======================================================
(PID.TID 0000.0001) // Gradient check results  >>> START <<<
(PID.TID 0000.0001) // =======================================================
(PID.TID 0000.0001) 
(PID.TID 0000.0001)  EPS =   1.000000E-02
(PID.TID 0000.0001) 
(PID.TID 0000.0001) grdchk output h.p:  Id Itile Jtile LAYER   bi   bj   X(Id)           X(Id)+/-EPS
(PID.TID 0000.0001) grdchk output h.c:  Id  FC                   FC1                  FC2
(PID.TID 0000.0001) grdchk output h.g:  Id     FC1-FC2/(2*EPS)      ADJ GRAD(FC)         1-FDGRD/ADGRD
(PID.TID 0000.0001) 
(PID.TID 0000.0001) grdchk output (p):   1    20    24    20    1    1   0.000000000E+00 -1.000000000E-02
(PID.TID 0000.0001) grdchk output (c):   1  3.7047759861893E+05  3.7047756043699E+05  3.7047763696302E+05
(PID.TID 0000.0001) grdchk output (g):   1    -3.8263019116130E+00 -3.8263018733109E+00 -1.0010215323319E-08
(PID.TID 0000.0001) 
(PID.TID 0000.0001) grdchk output (p):   2    21    24    20    1    1   0.000000000E+00 -1.000000000E-02
(PID.TID 0000.0001) grdchk output (c):   2  3.7047759861893E+05  3.7047756044239E+05  3.7047763695762E+05
(PID.TID 0000.0001) grdchk output (g):   2    -3.8257611449808E+00 -3.8257610853233E+00 -1.5593615954046E-08
(PID.TID 0000.0001) 
(PID.TID 0000.0001) grdchk output (p):   3    22    24    20    1    1   0.000000000E+00 -1.000000000E-02
(PID.TID 0000.0001) grdchk output (c):   3  3.7047759861893E+05  3.7047756044597E+05  3.7047763695404E+05
(PID.TID 0000.0001) grdchk output (g):   3    -3.8254030630924E+00 -3.8254030652690E+00  5.6898663558513E-10
(PID.TID 0000.0001) 
(PID.TID 0000.0001) grdchk output (p):   4    23    24    20    1    1   0.000000000E+00 -1.000000000E-02
(PID.TID 0000.0001) grdchk output (c):   4  3.7047759861893E+05  3.7047756044830E+05  3.7047763695171E+05
(PID.TID 0000.0001) grdchk output (g):   4    -3.8251701829722E+00 -3.8251701852169E+00  5.8682625425632E-10
(PID.TID 0000.0001) 
(PID.TID 0000.0001) grdchk output (p):   5    24    24    20    1    1   0.000000000E+00 -1.000000000E-02
(PID.TID 0000.0001) grdchk output (c):   5  3.7047759861893E+05  3.7047756044987E+05  3.7047763695014E+05
(PID.TID 0000.0001) grdchk output (g):   5    -3.8250135898124E+00 -3.8250135964633E+00  1.7387765671728E-09
(PID.TID 0000.0001) 
(PID.TID 0000.0001) grdchk  summary  :  RMS of    5 ratios =  8.3313471195984E-09
(PID.TID 0000.0001) 
(PID.TID 0000.0001) // =======================================================
(PID.TID 0000.0001) // Gradient check results  >>> END <<<
(PID.TID 0000.0001) // =======================================================
(PID.TID 0000.0001) 
(PID.TID 0000.0001)   Seconds in section "ALL                    [THE_MODEL_MAIN]":
(PID.TID 0000.0001)           User time:   341.32999999999998
(PID.TID 0000.0001)         System time:  0.65000000000000002
(PID.TID 0000.0001)     Wall clock time:   345.85526704788208
(PID.TID 0000.0001)          No. starts:           1
(PID.TID 0000.0001)           No. stops:           1
(PID.TID 0000.0001)   Seconds in section "INITIALISE_FIXED       [THE_MODEL_MAIN]":
(PID.TID 0000.0001)           User time:  0.57000000000000006
(PID.TID 0000.0001)         System time:  7.00000000000000067E-002
(PID.TID 0000.0001)     Wall clock time:   2.5526289939880371
(PID.TID 0000.0001)          No. starts:           1
(PID.TID 0000.0001)           No. stops:           1
(PID.TID 0000.0001)   Seconds in section "ADTHE_MAIN_LOOP          [ADJOINT RUN]":
(PID.TID 0000.0001)           User time:   145.86000000000001
(PID.TID 0000.0001)         System time:  0.50000000000000000
(PID.TID 0000.0001)     Wall clock time:   147.89623594284058
(PID.TID 0000.0001)          No. starts:           1
(PID.TID 0000.0001)           No. stops:           1
(PID.TID 0000.0001)   Seconds in section "UPDATE_SURF_DR      [FORWARD_STEP]":
(PID.TID 0000.0001)           User time:  0.25000000000000000
(PID.TID 0000.0001)         System time:   0.0000000000000000
(PID.TID 0000.0001)     Wall clock time:  0.21176457405090332
(PID.TID 0000.0001)          No. starts:         240
(PID.TID 0000.0001)           No. stops:         240
(PID.TID 0000.0001)   Seconds in section "LOAD_FIELDS_DRIVER  [FORWARD_STEP]":
(PID.TID 0000.0001)           User time:  9.99999999999090505E-003
(PID.TID 0000.0001)         System time:   0.0000000000000000
(PID.TID 0000.0001)     Wall clock time:  3.40199470520019531E-003
(PID.TID 0000.0001)          No. starts:         120
(PID.TID 0000.0001)           No. stops:         120
(PID.TID 0000.0001)   Seconds in section "EXTERNAL_FLDS_LOAD [LOAD_FLDS_DRIVER]":
(PID.TID 0000.0001)           User time:   0.0000000000000000
(PID.TID 0000.0001)         System time:   0.0000000000000000
(PID.TID 0000.0001)     Wall clock time:  1.39880180358886719E-003
(PID.TID 0000.0001)          No. starts:         140
(PID.TID 0000.0001)           No. stops:         140
(PID.TID 0000.0001)   Seconds in section "I/O (WRITE)        [ADJOINT LOOP]":
(PID.TID 0000.0001)           User time:   0.0000000000000000
(PID.TID 0000.0001)         System time:   0.0000000000000000
(PID.TID 0000.0001)     Wall clock time:  1.64842605590820313E-003
(PID.TID 0000.0001)          No. starts:         180
(PID.TID 0000.0001)           No. stops:         180
(PID.TID 0000.0001)   Seconds in section "DO_ATMOSPHERIC_PHYS [FORWARD_STEP]":
(PID.TID 0000.0001)           User time:   0.0000000000000000
(PID.TID 0000.0001)         System time:   0.0000000000000000
(PID.TID 0000.0001)     Wall clock time:  1.09505653381347656E-003
(PID.TID 0000.0001)          No. starts:         120
(PID.TID 0000.0001)           No. stops:         120
(PID.TID 0000.0001)   Seconds in section "DO_OCEANIC_PHYS     [FORWARD_STEP]":
(PID.TID 0000.0001)           User time:   5.2199999999999136
(PID.TID 0000.0001)         System time:   0.0000000000000000
(PID.TID 0000.0001)     Wall clock time:   5.2920355796813965
(PID.TID 0000.0001)          No. starts:         120
(PID.TID 0000.0001)           No. stops:         120
(PID.TID 0000.0001)   Seconds in section "SHELFICE_THERMODYNAMICS [DO_OCEANIC_PHYS]":
(PID.TID 0000.0001)           User time:  0.66999999999984539
(PID.TID 0000.0001)         System time:   0.0000000000000000
(PID.TID 0000.0001)     Wall clock time:  0.65557980537414551
(PID.TID 0000.0001)          No. starts:         130
(PID.TID 0000.0001)           No. stops:         130
(PID.TID 0000.0001)   Seconds in section "DYNAMICS            [FORWARD_STEP]":
(PID.TID 0000.0001)           User time:   86.129999999999882
(PID.TID 0000.0001)         System time:   0.0000000000000000
(PID.TID 0000.0001)     Wall clock time:   86.283653497695923
(PID.TID 0000.0001)          No. starts:         120
(PID.TID 0000.0001)           No. stops:         120
(PID.TID 0000.0001)   Seconds in section "SOLVE_FOR_PRESSURE  [FORWARD_STEP]":
(PID.TID 0000.0001)           User time:   52.699999999999875
(PID.TID 0000.0001)         System time:   0.0000000000000000
(PID.TID 0000.0001)     Wall clock time:   52.807987213134766
(PID.TID 0000.0001)          No. starts:         120
(PID.TID 0000.0001)           No. stops:         120
(PID.TID 0000.0001)   Seconds in section "MOM_CORRECTION_STEP [FORWARD_STEP]":
(PID.TID 0000.0001)           User time:   1.8299999999999841
(PID.TID 0000.0001)         System time:   0.0000000000000000
(PID.TID 0000.0001)     Wall clock time:   1.8387329578399658
(PID.TID 0000.0001)          No. starts:         120
(PID.TID 0000.0001)           No. stops:         120
(PID.TID 0000.0001)   Seconds in section "INTEGR_CONTINUITY   [FORWARD_STEP]":
(PID.TID 0000.0001)           User time:   6.0700000000000500
(PID.TID 0000.0001)         System time:   0.0000000000000000
(PID.TID 0000.0001)     Wall clock time:   6.1097958087921143
(PID.TID 0000.0001)          No. starts:         120
(PID.TID 0000.0001)           No. stops:         120
(PID.TID 0000.0001)   Seconds in section "CALC_SURF_DR      [FORWARD_STEP]":
(PID.TID 0000.0001)           User time:  0.15999999999991132
(PID.TID 0000.0001)         System time:   0.0000000000000000
(PID.TID 0000.0001)     Wall clock time:  0.26480507850646973
(PID.TID 0000.0001)          No. starts:         120
(PID.TID 0000.0001)           No. stops:         120
(PID.TID 0000.0001)   Seconds in section "BLOCKING_EXCHANGES  [FORWARD_STEP]":
(PID.TID 0000.0001)           User time:   1.3199999999997658
(PID.TID 0000.0001)         System time:   0.0000000000000000
(PID.TID 0000.0001)     Wall clock time:   1.4146654605865479
(PID.TID 0000.0001)          No. starts:         240
(PID.TID 0000.0001)           No. stops:         240
(PID.TID 0000.0001)   Seconds in section "THERMODYNAMICS      [FORWARD_STEP]":
(PID.TID 0000.0001)           User time:   48.980000000000075
(PID.TID 0000.0001)         System time:  1.00000000000000089E-002
(PID.TID 0000.0001)     Wall clock time:   48.941372632980347
(PID.TID 0000.0001)          No. starts:         120
(PID.TID 0000.0001)           No. stops:         120
(PID.TID 0000.0001)   Seconds in section "TRC_CORRECTION_STEP [FORWARD_STEP]":
(PID.TID 0000.0001)           User time:   11.980000000000132
(PID.TID 0000.0001)         System time:   0.0000000000000000
(PID.TID 0000.0001)     Wall clock time:   11.993926763534546
(PID.TID 0000.0001)          No. starts:         120
(PID.TID 0000.0001)           No. stops:         120
(PID.TID 0000.0001)   Seconds in section "MONITOR             [FORWARD_STEP]":
(PID.TID 0000.0001)           User time:   2.3799999999999955
(PID.TID 0000.0001)         System time:   0.0000000000000000
(PID.TID 0000.0001)     Wall clock time:   2.3936481475830078
(PID.TID 0000.0001)          No. starts:         120
(PID.TID 0000.0001)           No. stops:         120
(PID.TID 0000.0001)   Seconds in section "COST_TILE           [FORWARD_STEP]":
(PID.TID 0000.0001)           User time:   5.4200000000003570
(PID.TID 0000.0001)         System time:   0.0000000000000000
(PID.TID 0000.0001)     Wall clock time:   5.3563613891601563
(PID.TID 0000.0001)          No. starts:         120
(PID.TID 0000.0001)           No. stops:         120
(PID.TID 0000.0001)   Seconds in section "DO_THE_MODEL_IO     [FORWARD_STEP]":
(PID.TID 0000.0001)           User time:  6.99999999999931788E-002
(PID.TID 0000.0001)         System time:  1.00000000000000089E-002
(PID.TID 0000.0001)     Wall clock time:  0.75345802307128906
(PID.TID 0000.0001)          No. starts:         120
(PID.TID 0000.0001)           No. stops:         120
(PID.TID 0000.0001)   Seconds in section "DO_WRITE_PICKUP     [FORWARD_STEP]":
(PID.TID 0000.0001)           User time:  0.12000000000000455
(PID.TID 0000.0001)         System time:  1.00000000000000089E-002
(PID.TID 0000.0001)     Wall clock time:  0.13170766830444336
(PID.TID 0000.0001)          No. starts:         120
(PID.TID 0000.0001)           No. stops:         120
(PID.TID 0000.0001)   Seconds in section "GRDCHK_MAIN         [THE_MODEL_MAIN]":
(PID.TID 0000.0001)           User time:   194.89999999999998
(PID.TID 0000.0001)         System time:  7.99999999999999600E-002
(PID.TID 0000.0001)     Wall clock time:   195.40521812438965
(PID.TID 0000.0001)          No. starts:           1
(PID.TID 0000.0001)           No. stops:           1
(PID.TID 0000.0001)   Seconds in section "INITIALISE_VARIA    [THE_MAIN_LOOP]":
(PID.TID 0000.0001)           User time:   3.3099999999998886
(PID.TID 0000.0001)         System time:  6.99999999999999512E-002
(PID.TID 0000.0001)     Wall clock time:   3.3823142051696777
(PID.TID 0000.0001)          No. starts:          10
(PID.TID 0000.0001)           No. stops:          10
(PID.TID 0000.0001)   Seconds in section "MAIN LOOP           [THE_MAIN_LOOP]":
(PID.TID 0000.0001)           User time:   191.12000000000006
(PID.TID 0000.0001)         System time:   0.0000000000000000
(PID.TID 0000.0001)     Wall clock time:   191.53597640991211
(PID.TID 0000.0001)          No. starts:          10
(PID.TID 0000.0001)           No. stops:          10
(PID.TID 0000.0001)   Seconds in section "FORWARD_STEP        [THE_MAIN_LOOP]":
(PID.TID 0000.0001)           User time:   183.36000000000030
(PID.TID 0000.0001)         System time:   0.0000000000000000
(PID.TID 0000.0001)     Wall clock time:   183.73104023933411
(PID.TID 0000.0001)          No. starts:         100
(PID.TID 0000.0001)           No. stops:         100
(PID.TID 0000.0001)   Seconds in section "COST_FINAL         [ADJOINT SPIN-DOWN]":
(PID.TID 0000.0001)           User time:  7.00000000000500222E-002
(PID.TID 0000.0001)         System time:   0.0000000000000000
(PID.TID 0000.0001)     Wall clock time:  7.06548690795898438E-002
(PID.TID 0000.0001)          No. starts:          10
(PID.TID 0000.0001)           No. stops:          10
(PID.TID 0000.0001) // ======================================================
(PID.TID 0000.0001) // Tile <-> Tile communication statistics
(PID.TID 0000.0001) // ======================================================
(PID.TID 0000.0001) // o Tile number: 000001
(PID.TID 0000.0001) //         No. X exchanges =              0
(PID.TID 0000.0001) //            Max. X spins =              0
(PID.TID 0000.0001) //            Min. X spins =     1000000000
(PID.TID 0000.0001) //          Total. X spins =              0
(PID.TID 0000.0001) //            Avg. X spins =       0.00E+00
(PID.TID 0000.0001) //         No. Y exchanges =              0
(PID.TID 0000.0001) //            Max. Y spins =              0
(PID.TID 0000.0001) //            Min. Y spins =     1000000000
(PID.TID 0000.0001) //          Total. Y spins =              0
(PID.TID 0000.0001) //            Avg. Y spins =       0.00E+00
(PID.TID 0000.0001) // o Thread number: 000001
(PID.TID 0000.0001) //            No. barriers =         192624
(PID.TID 0000.0001) //      Max. barrier spins =              1
(PID.TID 0000.0001) //      Min. barrier spins =              1
(PID.TID 0000.0001) //     Total barrier spins =         192624
(PID.TID 0000.0001) //      Avg. barrier spins =       1.00E+00
PROGRAM MAIN: Execution ended Normally
